MODEL 1
REMARK VINA RESULT:      -7.2      0.000      0.000
REMARK  5 active torsions:
REMARK  status: ('A' for Active; 'I' for Inactive)
REMARK    1  A    between atoms: C2_2  and  O2_12 
REMARK    2  A    between atoms: C3_4  and  O3_11 
REMARK    3  A    between atoms: C4_5  and  O4_13 
REMARK    4  A    between atoms: C5_6  and  C6_7 
REMARK    5  A    between atoms: C6_7  and  O6_14 
ROOT
ATOM      1  C1  GIM d          30.173  65.841   9.815  0.00  0.00     0.138 A 
ATOM      2  C2  GIM d          31.475  65.288   9.231  0.00  0.00     0.119 C 
ATOM      3  N10 GIM d          29.306  66.509   8.971  0.00  0.00    -0.332 N 
ATOM      4  C3  GIM d          32.033  66.342   8.273  0.00  0.00     0.093 C 
ATOM      5  C4  GIM d          31.051  66.501   7.129  0.00  0.00     0.085 C 
ATOM      6  C5  GIM d          29.617  66.844   7.573  0.00  0.00     0.065 C 
ATOM      7  C7  GIM d          28.479  66.440  10.990  0.00  0.00     0.019 A 
ATOM      8  C8  GIM d          28.233  66.837   9.740  0.00  0.00    -0.001 A 
ATOM      9  N1  GIM d          29.670  65.814  11.029  0.00  0.00    -0.243 NA
ATOM     10  H1  GIM d          31.221  64.393   8.645  0.00  0.00     0.099 H 
ATOM     11  H2  GIM d          32.200  67.304   8.781  0.00  0.00     0.091 H 
ATOM     12  H3  GIM d          31.031  65.561   6.559  0.00  0.00     0.090 H 
ATOM     13  H4  GIM d          29.471  67.928   7.457  0.00  0.00     0.080 H 
ATOM     14  H7  GIM d          27.820  66.598  11.843  0.00  0.00     0.117 H 
ATOM     15  H8  GIM d          27.329  67.337   9.395  0.00  0.00     0.113 H 
ENDROOT
BRANCH   6  16
ATOM     16  C6  GIM d          28.666  66.097   6.597  0.00  0.00     0.038 C 
ATOM     17  H5  GIM d          28.499  66.713   5.701  0.00  0.00     0.077 H 
ATOM     18  H6  GIM d          27.703  65.906   7.095  0.00  0.00     0.077 H 
BRANCH  16  19
ATOM     19  O6  GIM d          29.269  64.849   6.219  0.00  0.00    -0.399 OA
ATOM     20  H12 GIM d          28.601  64.266   5.880  0.00  0.00     0.209 HD
ENDBRANCH  16  19
ENDBRANCH   6  16
BRANCH   5  21
ATOM     21  O4  GIM d          31.472  67.576   6.278  0.00  0.00    -0.391 OA
ATOM     22  H11 GIM d          32.222  67.298   5.766  0.00  0.00     0.210 HD
ENDBRANCH   5  21
BRANCH   4  23
ATOM     23  O3  GIM d          33.282  65.785   7.767  0.00  0.00    -0.390 OA
ATOM     24  H9  GIM d          33.099  64.990   7.280  0.00  0.00     0.210 HD
ENDBRANCH   4  23
BRANCH   2  25
ATOM     25  O2  GIM d          32.426  64.890  10.185  0.00  0.00    -0.385 OA
ATOM     26  H10 GIM d          32.015  64.317  10.820  0.00  0.00     0.210 HD
ENDBRANCH   2  25
TORSDOF 5
ENDMDL
MODEL 2
REMARK VINA RESULT:      -6.1      1.773      3.651
REMARK  5 active torsions:
REMARK  status: ('A' for Active; 'I' for Inactive)
REMARK    1  A    between atoms: C2_2  and  O2_12 
REMARK    2  A    between atoms: C3_4  and  O3_11 
REMARK    3  A    between atoms: C4_5  and  O4_13 
REMARK    4  A    between atoms: C5_6  and  C6_7 
REMARK    5  A    between atoms: C6_7  and  O6_14 
ROOT
ATOM      1  C1  GIM d          30.493  66.192   7.643  0.00  0.00     0.138 A 
ATOM      2  C2  GIM d          31.706  66.217   8.575  0.00  0.00     0.119 C 
ATOM      3  N10 GIM d          29.232  66.142   8.208  0.00  0.00    -0.332 N 
ATOM      4  C3  GIM d          31.437  65.224   9.707  0.00  0.00     0.093 C 
ATOM      5  C4  GIM d          30.244  65.728  10.497  0.00  0.00     0.085 C 
ATOM      6  C5  GIM d          28.983  65.972   9.647  0.00  0.00     0.065 C 
ATOM      7  C7  GIM d          29.075  66.188   6.031  0.00  0.00     0.019 A 
ATOM      8  C8  GIM d          28.365  66.180   7.161  0.00  0.00    -0.001 A 
ATOM      9  N1  GIM d          30.386  66.210   6.333  0.00  0.00    -0.243 NA
ATOM     10  H1  GIM d          31.768  67.225   9.011  0.00  0.00     0.099 H 
ATOM     11  H2  GIM d          31.251  64.211   9.322  0.00  0.00     0.091 H 
ATOM     12  H3  GIM d          30.529  66.670  10.988  0.00  0.00     0.090 H 
ATOM     13  H4  GIM d          28.318  65.104   9.764  0.00  0.00     0.080 H 
ATOM     14  H7  GIM d          28.659  66.178   5.024  0.00  0.00     0.117 H 
ATOM     15  H8  GIM d          27.278  66.200   7.232  0.00  0.00     0.113 H 
ENDROOT
BRANCH   6  16
ATOM     16  C6  GIM d          28.289  67.227  10.244  0.00  0.00     0.038 C 
ATOM     17  H5  GIM d          27.197  67.098  10.204  0.00  0.00     0.077 H 
ATOM     18  H6  GIM d          28.575  68.117   9.664  0.00  0.00     0.077 H 
BRANCH  16  19
ATOM     19  O6  GIM d          28.705  67.387  11.610  0.00  0.00    -0.399 OA
ATOM     20  H12 GIM d          29.309  66.691  11.839  0.00  0.00     0.209 HD
ENDBRANCH  16  19
ENDBRANCH   6  16
BRANCH   5  21
ATOM     21  O4  GIM d          29.877  64.757  11.487  0.00  0.00    -0.391 OA
ATOM     22  H11 GIM d          29.105  64.286  11.195  0.00  0.00     0.210 HD
ENDBRANCH   5  21
BRANCH   4  23
ATOM     23  O3  GIM d          32.627  65.262  10.549  0.00  0.00    -0.390 OA
ATOM     24  H9  GIM d          33.379  65.501  10.021  0.00  0.00     0.210 HD
ENDBRANCH   4  23
BRANCH   2  25
ATOM     25  O2  GIM d          32.938  65.973   7.946  0.00  0.00    -0.385 OA
ATOM     26  H10 GIM d          33.639  66.063   8.579  0.00  0.00     0.210 HD
ENDBRANCH   2  25
TORSDOF 5
ENDMDL
MODEL 3
REMARK VINA RESULT:      -6.1      1.639      3.465
REMARK  5 active torsions:
REMARK  status: ('A' for Active; 'I' for Inactive)
REMARK    1  A    between atoms: C2_2  and  O2_12 
REMARK    2  A    between atoms: C3_4  and  O3_11 
REMARK    3  A    between atoms: C4_5  and  O4_13 
REMARK    4  A    between atoms: C5_6  and  C6_7 
REMARK    5  A    between atoms: C6_7  and  O6_14 
ROOT
ATOM      1  C1  GIM d          29.377  66.355   7.376  0.00  0.00     0.138 A 
ATOM      2  C2  GIM d          30.845  66.771   7.274  0.00  0.00     0.119 C 
ATOM      3  N10 GIM d          28.913  65.872   8.585  0.00  0.00    -0.332 N 
ATOM      4  C3  GIM d          31.673  65.725   8.024  0.00  0.00     0.093 C 
ATOM      5  C4  GIM d          31.282  65.782   9.489  0.00  0.00     0.085 C 
ATOM      6  C5  GIM d          29.775  65.601   9.745  0.00  0.00     0.065 C 
ATOM      7  C7  GIM d          27.293  65.902   7.122  0.00  0.00     0.019 A 
ATOM      8  C8  GIM d          27.587  65.633   8.395  0.00  0.00    -0.001 A 
ATOM      9  N1  GIM d          28.396  66.360   6.500  0.00  0.00    -0.243 NA
ATOM     10  H1  GIM d          30.954  67.732   7.797  0.00  0.00     0.099 H 
ATOM     11  H2  GIM d          31.515  64.715   7.616  0.00  0.00     0.091 H 
ATOM     12  H3  GIM d          31.598  66.756   9.891  0.00  0.00     0.090 H 
ATOM     13  H4  GIM d          29.601  64.557  10.046  0.00  0.00     0.080 H 
ATOM     14  H7  GIM d          26.316  65.770   6.659  0.00  0.00     0.117 H 
ATOM     15  H8  GIM d          26.887  65.284   9.152  0.00  0.00     0.113 H 
ENDROOT
BRANCH   6  16
ATOM     16  C6  GIM d          29.418  66.537  10.934  0.00  0.00     0.038 C 
ATOM     17  H5  GIM d          29.199  67.546  10.556  0.00  0.00     0.077 H 
ATOM     18  H6  GIM d          30.266  66.583  11.634  0.00  0.00     0.077 H 
BRANCH  16  19
ATOM     19  O6  GIM d          28.263  66.015  11.610  0.00  0.00    -0.399 OA
ATOM     20  H12 GIM d          27.558  65.895  10.984  0.00  0.00     0.209 HD
ENDBRANCH  16  19
ENDBRANCH   6  16
BRANCH   5  21
ATOM     21  O4  GIM d          31.939  64.725  10.203  0.00  0.00    -0.391 OA
ATOM     22  H11 GIM d          31.723  64.788  11.126  0.00  0.00     0.210 HD
ENDBRANCH   5  21
BRANCH   4  23
ATOM     23  O3  GIM d          33.061  66.147   7.875  0.00  0.00    -0.390 OA
ATOM     24  H9  GIM d          33.159  67.031   8.208  0.00  0.00     0.210 HD
ENDBRANCH   4  23
BRANCH   2  25
ATOM     25  O2  GIM d          31.313  66.969   5.965  0.00  0.00    -0.385 OA
ATOM     26  H10 GIM d          31.176  66.178   5.458  0.00  0.00     0.210 HD
ENDBRANCH   2  25
TORSDOF 5
ENDMDL
MODEL 4
REMARK VINA RESULT:      -4.8      2.044      4.606
REMARK  5 active torsions:
REMARK  status: ('A' for Active; 'I' for Inactive)
REMARK    1  A    between atoms: C2_2  and  O2_12 
REMARK    2  A    between atoms: C3_4  and  O3_11 
REMARK    3  A    between atoms: C4_5  and  O4_13 
REMARK    4  A    between atoms: C5_6  and  C6_7 
REMARK    5  A    between atoms: C6_7  and  O6_14 
ROOT
ATOM      1  C1  GIM d          29.856  66.304   7.479  0.00  0.00     0.138 A 
ATOM      2  C2  GIM d          28.496  65.888   8.044  0.00  0.00     0.119 C 
ATOM      3  N10 GIM d          30.956  66.261   8.317  0.00  0.00    -0.332 N 
ATOM      4  C3  GIM d          28.383  66.477   9.452  0.00  0.00     0.093 C 
ATOM      5  C4  GIM d          29.452  65.833  10.315  0.00  0.00     0.085 C 
ATOM      6  C5  GIM d          30.880  65.973   9.757  0.00  0.00     0.065 C 
ATOM      7  C7  GIM d          31.555  66.937   6.329  0.00  0.00     0.019 A 
ATOM      8  C8  GIM d          32.013  66.630   7.545  0.00  0.00    -0.001 A 
ATOM      9  N1  GIM d          30.227  66.721   6.289  0.00  0.00    -0.243 NA
ATOM     10  H1  GIM d          28.494  64.792   8.130  0.00  0.00     0.099 H 
ATOM     11  H2  GIM d          28.494  67.571   9.444  0.00  0.00     0.091 H 
ATOM     12  H3  GIM d          29.213  64.764  10.418  0.00  0.00     0.090 H 
ATOM     13  H4  GIM d          31.375  66.802  10.283  0.00  0.00     0.080 H 
ATOM     14  H7  GIM d          32.160  67.304   5.501  0.00  0.00     0.117 H 
ATOM     15  H8  GIM d          33.054  66.668   7.863  0.00  0.00     0.113 H 
ENDROOT
BRANCH   6  16
ATOM     16  C6  GIM d          31.615  64.647  10.097  0.00  0.00     0.038 C 
ATOM     17  H5  GIM d          31.665  64.012   9.201  0.00  0.00     0.077 H 
ATOM     18  H6  GIM d          31.068  64.116  10.892  0.00  0.00     0.077 H 
BRANCH  16  19
ATOM     19  O6  GIM d          32.945  64.951  10.548  0.00  0.00    -0.399 OA
ATOM     20  H12 GIM d          32.910  65.662  11.177  0.00  0.00     0.209 HD
ENDBRANCH  16  19
ENDBRANCH   6  16
BRANCH   5  21
ATOM     21  O4  GIM d          29.466  66.455  11.608  0.00  0.00    -0.391 OA
ATOM     22  H11 GIM d          28.840  67.169  11.621  0.00  0.00     0.210 HD
ENDBRANCH   5  21
BRANCH   4  23
ATOM     23  O3  GIM d          27.066  66.080   9.935  0.00  0.00    -0.390 OA
ATOM     24  H9  GIM d          26.400  66.596   9.495  0.00  0.00     0.210 HD
ENDBRANCH   4  23
BRANCH   2  25
ATOM     25  O2  GIM d          27.395  66.232   7.242  0.00  0.00    -0.385 OA
ATOM     26  H10 GIM d          27.702  66.509   6.388  0.00  0.00     0.210 HD
ENDBRANCH   2  25
TORSDOF 5
ENDMDL
MODEL 5
REMARK VINA RESULT:      -4.5      1.391      3.407
REMARK  5 active torsions:
REMARK  status: ('A' for Active; 'I' for Inactive)
REMARK    1  A    between atoms: C2_2  and  O2_12 
REMARK    2  A    between atoms: C3_4  and  O3_11 
REMARK    3  A    between atoms: C4_5  and  O4_13 
REMARK    4  A    between atoms: C5_6  and  C6_7 
REMARK    5  A    between atoms: C6_7  and  O6_14 
ROOT
ATOM      1  C1  GIM d          28.928  65.956   8.536  0.00  0.00     0.138 A 
ATOM      2  C2  GIM d          29.491  66.937   7.506  0.00  0.00     0.119 C 
ATOM      3  N10 GIM d          29.804  65.363   9.426  0.00  0.00    -0.332 N 
ATOM      4  C3  GIM d          30.802  66.350   6.980  0.00  0.00     0.093 C 
ATOM      5  C4  GIM d          31.783  66.288   8.135  0.00  0.00     0.085 C 
ATOM      6  C5  GIM d          31.266  65.510   9.359  0.00  0.00     0.065 C 
ATOM      7  C7  GIM d          27.768  64.675   9.811  0.00  0.00     0.019 A 
ATOM      8  C8  GIM d          29.030  64.594  10.237  0.00  0.00    -0.001 A 
ATOM      9  N1  GIM d          27.708  65.527   8.771  0.00  0.00    -0.243 NA
ATOM     10  H1  GIM d          29.722  67.874   8.033  0.00  0.00     0.099 H 
ATOM     11  H2  GIM d          30.652  65.353   6.540  0.00  0.00     0.091 H 
ATOM     12  H3  GIM d          32.019  67.318   8.442  0.00  0.00     0.090 H 
ATOM     13  H4  GIM d          31.695  64.497   9.329  0.00  0.00     0.080 H 
ATOM     14  H7  GIM d          26.922  64.138  10.238  0.00  0.00     0.117 H 
ATOM     15  H8  GIM d          29.380  64.011  11.088  0.00  0.00     0.113 H 
ENDROOT
BRANCH   6  16
ATOM     16  C6  GIM d          31.808  66.253  10.611  0.00  0.00     0.038 C 
ATOM     17  H5  GIM d          31.117  66.108  11.454  0.00  0.00     0.077 H 
ATOM     18  H6  GIM d          31.899  67.327  10.392  0.00  0.00     0.077 H 
BRANCH  16  19
ATOM     19  O6  GIM d          33.099  65.719  10.949  0.00  0.00    -0.399 OA
ATOM     20  H12 GIM d          33.744  66.036  10.328  0.00  0.00     0.209 HD
ENDBRANCH  16  19
ENDBRANCH   6  16
BRANCH   5  21
ATOM     21  O4  GIM d          32.981  65.620   7.714  0.00  0.00    -0.391 OA
ATOM     22  H11 GIM d          33.042  64.778   8.149  0.00  0.00     0.210 HD
ENDBRANCH   5  21
BRANCH   4  23
ATOM     23  O3  GIM d          31.283  67.302   5.985  0.00  0.00    -0.390 OA
ATOM     24  H9  GIM d          31.981  67.825   6.361  0.00  0.00     0.210 HD
ENDBRANCH   4  23
BRANCH   2  25
ATOM     25  O2  GIM d          28.609  67.268   6.464  0.00  0.00    -0.385 OA
ATOM     26  H10 GIM d          28.028  66.536   6.298  0.00  0.00     0.210 HD
ENDBRANCH   2  25
TORSDOF 5
ENDMDL
