MODEL 1
REMARK VINA RESULT:      -7.7      0.000      0.000
REMARK  4 active torsions:
REMARK  status: ('A' for Active; 'I' for Inactive)
REMARK    1  A    between atoms: C2_2  and  N14_12 
REMARK    2  A    between atoms: C15_13  and  C5_5 
REMARK    3  A    between atoms: C16_15  and  C15_13 
REMARK    4  A    between atoms: C7_14  and  C16_15 
ROOT
ATOM      1  C15 V15 d          -1.512   3.123  11.120  0.00  0.00    -0.020 C 
ATOM      2  H10 V15 d          -0.998   3.228  12.087  0.00  0.00     0.042 H 
ATOM      3  H11 V15 d          -1.262   2.148  10.676  0.00  0.00     0.042 H 
ENDROOT
BRANCH   1   4
ATOM      4  C5  V15 d          -0.960   4.186  10.204  0.00  0.00     0.059 A 
ATOM      5  C4  V15 d          -1.731   4.959   9.368  0.00  0.00     0.007 A 
ATOM      6  C3  V15 d          -1.087   5.928   8.556  0.00  0.00     0.261 A 
ATOM      7  H2  V15 d          -2.812   4.831   9.330  0.00  0.00     0.095 H 
ATOM      8  N1  V15 d           0.269   6.056   8.609  0.00  0.00    -0.155 N 
ATOM      9  O15 V15 d          -1.743   6.641   7.808  0.00  0.00    -0.268 OA
ATOM     10  C2  V15 d           0.980   5.267   9.475  0.00  0.00     0.701 A 
ATOM     11  H1  V15 d           0.739   6.716   8.023  0.00  0.00     0.187 HD
ATOM     12  N6  V15 d           0.367   4.389  10.237  0.00  0.00    -0.070 NA
BRANCH  10  13
ATOM     13  N14 V15 d           2.344   5.414   9.599  0.00  0.00    -0.233 N 
ATOM     14  H8  V15 d           2.909   4.655  10.007  0.00  0.00     0.174 HD
ATOM     15  H9  V15 d           2.800   6.282   9.282  0.00  0.00     0.174 HD
ENDBRANCH  10  13
ENDBRANCH   1   4
BRANCH   1  16
ATOM     16  C16 V15 d          -3.023   3.117  11.407  0.00  0.00    -0.036 C 
ATOM     17  H12 V15 d          -3.514   3.853  10.753  0.00  0.00     0.040 H 
ATOM     18  H13 V15 d          -3.189   3.393  12.458  0.00  0.00     0.040 H 
BRANCH  16  19
ATOM     19  C7  V15 d          -3.626   1.759  11.154  0.00  0.00    -0.058 A 
ATOM     20  C8  V15 d          -2.843   0.608  11.080  0.00  0.00    -0.077 A 
ATOM     21  C9  V15 d          -3.428  -0.624  10.835  0.00  0.00    -0.082 A 
ATOM     22  H3  V15 d          -1.769   0.677  11.214  0.00  0.00     0.084 H 
ATOM     23  C10 V15 d          -4.810  -0.712  10.686  0.00  0.00    -0.083 A 
ATOM     24  H4  V15 d          -2.814  -1.515  10.760  0.00  0.00     0.083 H 
ATOM     25  C11 V15 d          -5.598   0.429  10.772  0.00  0.00    -0.082 A 
ATOM     26  H5  V15 d          -5.272  -1.674  10.502  0.00  0.00     0.083 H 
ATOM     27  C12 V15 d          -5.008   1.664  11.012  0.00  0.00    -0.077 A 
ATOM     28  H6  V15 d          -6.672   0.356  10.652  0.00  0.00     0.083 H 
ATOM     29  H7  V15 d          -5.623   2.553  11.089  0.00  0.00     0.084 H 
ENDBRANCH  16  19
ENDBRANCH   1  16
TORSDOF 4
ENDMDL
MODEL 2
REMARK VINA RESULT:      -6.9      3.603      6.382
REMARK  4 active torsions:
REMARK  status: ('A' for Active; 'I' for Inactive)
REMARK    1  A    between atoms: C2_2  and  N14_12 
REMARK    2  A    between atoms: C15_13  and  C5_5 
REMARK    3  A    between atoms: C16_15  and  C15_13 
REMARK    4  A    between atoms: C7_14  and  C16_15 
ROOT
ATOM      1  C15 V15 d          -1.940   2.395  11.809  0.00  0.00    -0.020 C 
ATOM      2  H10 V15 d          -1.577   1.721  12.599  0.00  0.00     0.042 H 
ATOM      3  H11 V15 d          -2.291   3.334  12.261  0.00  0.00     0.042 H 
ENDROOT
BRANCH   1   4
ATOM      4  C5  V15 d          -3.137   1.732  11.172  0.00  0.00     0.059 A 
ATOM      5  C4  V15 d          -3.057   0.673  10.299  0.00  0.00     0.007 A 
ATOM      6  C3  V15 d          -4.261   0.140   9.771  0.00  0.00     0.261 A 
ATOM      7  H2  V15 d          -2.092   0.253  10.019  0.00  0.00     0.095 H 
ATOM      8  N1  V15 d          -5.455   0.695  10.123  0.00  0.00    -0.155 N 
ATOM      9  O15 V15 d          -4.228  -0.810   8.998  0.00  0.00    -0.268 OA
ATOM     10  C2  V15 d          -5.468   1.739  11.011  0.00  0.00     0.701 A 
ATOM     11  H1  V15 d          -6.309   0.346   9.738  0.00  0.00     0.187 HD
ATOM     12  N6  V15 d          -4.346   2.209  11.509  0.00  0.00    -0.070 NA
BRANCH  10  13
ATOM     13  N14 V15 d          -6.661   2.283  11.436  0.00  0.00    -0.233 N 
ATOM     14  H8  V15 d          -7.426   2.433  10.764  0.00  0.00     0.174 HD
ATOM     15  H9  V15 d          -6.787   2.539  12.425  0.00  0.00     0.174 HD
ENDBRANCH  10  13
ENDBRANCH   1   4
BRANCH   1  16
ATOM     16  C16 V15 d          -0.735   2.740  10.917  0.00  0.00    -0.036 C 
ATOM     17  H12 V15 d          -0.704   2.038  10.071  0.00  0.00     0.040 H 
ATOM     18  H13 V15 d           0.187   2.643  11.508  0.00  0.00     0.040 H 
BRANCH  16  19
ATOM     19  C7  V15 d          -0.832   4.147  10.384  0.00  0.00    -0.058 A 
ATOM     20  C8  V15 d          -2.056   4.730  10.061  0.00  0.00    -0.077 A 
ATOM     21  C9  V15 d          -2.108   6.022   9.562  0.00  0.00    -0.082 A 
ATOM     22  H3  V15 d          -2.974   4.170  10.200  0.00  0.00     0.084 H 
ATOM     23  C10 V15 d          -0.929   6.746   9.406  0.00  0.00    -0.083 A 
ATOM     24  H4  V15 d          -3.060   6.466   9.295  0.00  0.00     0.083 H 
ATOM     25  C11 V15 d           0.294   6.177   9.738  0.00  0.00    -0.082 A 
ATOM     26  H5  V15 d          -0.965   7.760   9.023  0.00  0.00     0.083 H 
ATOM     27  C12 V15 d           0.343   4.879  10.233  0.00  0.00    -0.077 A 
ATOM     28  H6  V15 d           1.209   6.744   9.612  0.00  0.00     0.083 H 
ATOM     29  H7  V15 d           1.296   4.437  10.502  0.00  0.00     0.084 H 
ENDBRANCH  16  19
ENDBRANCH   1  16
TORSDOF 4
ENDMDL
MODEL 3
REMARK VINA RESULT:      -6.5      1.613      2.551
REMARK  4 active torsions:
REMARK  status: ('A' for Active; 'I' for Inactive)
REMARK    1  A    between atoms: C2_2  and  N14_12 
REMARK    2  A    between atoms: C15_13  and  C5_5 
REMARK    3  A    between atoms: C16_15  and  C15_13 
REMARK    4  A    between atoms: C7_14  and  C16_15 
ROOT
ATOM      1  C15 V15 d          -1.905   2.652  11.309  0.00  0.00    -0.020 C 
ATOM      2  H10 V15 d          -2.787   3.019  11.854  0.00  0.00     0.042 H 
ATOM      3  H11 V15 d          -1.088   2.461  12.020  0.00  0.00     0.042 H 
ENDROOT
BRANCH   1   4
ATOM      4  C5  V15 d          -1.450   3.764  10.396  0.00  0.00     0.059 A 
ATOM      5  C4  V15 d          -0.181   4.292  10.398  0.00  0.00     0.007 A 
ATOM      6  C3  V15 d           0.120   5.336   9.486  0.00  0.00     0.261 A 
ATOM      7  H2  V15 d           0.577   3.918  11.085  0.00  0.00     0.095 H 
ATOM      8  N1  V15 d          -0.852   5.799   8.649  0.00  0.00    -0.155 N 
ATOM      9  O15 V15 d           1.243   5.823   9.453  0.00  0.00    -0.268 OA
ATOM     10  C2  V15 d          -2.093   5.219   8.683  0.00  0.00     0.701 A 
ATOM     11  H1  V15 d          -0.661   6.552   8.019  0.00  0.00     0.187 HD
ATOM     12  N6  V15 d          -2.351   4.238   9.519  0.00  0.00    -0.070 NA
BRANCH  10  13
ATOM     13  N14 V15 d          -3.079   5.620   7.809  0.00  0.00    -0.233 N 
ATOM     14  H8  V15 d          -3.689   4.920   7.364  0.00  0.00     0.174 HD
ATOM     15  H9  V15 d          -3.206   6.621   7.600  0.00  0.00     0.174 HD
ENDBRANCH  10  13
ENDBRANCH   1   4
BRANCH   1  16
ATOM     16  C16 V15 d          -2.288   1.301  10.681  0.00  0.00    -0.036 C 
ATOM     17  H12 V15 d          -1.681   0.508  11.142  0.00  0.00     0.040 H 
ATOM     18  H13 V15 d          -2.084   1.338   9.601  0.00  0.00     0.040 H 
BRANCH  16  19
ATOM     19  C7  V15 d          -3.747   0.990  10.895  0.00  0.00    -0.058 A 
ATOM     20  C8  V15 d          -4.668   1.977  11.244  0.00  0.00    -0.077 A 
ATOM     21  C9  V15 d          -6.001   1.653  11.444  0.00  0.00    -0.082 A 
ATOM     22  H3  V15 d          -4.340   3.004  11.358  0.00  0.00     0.084 H 
ATOM     23  C10 V15 d          -6.422   0.337  11.274  0.00  0.00    -0.083 A 
ATOM     24  H4  V15 d          -6.711   2.420  11.732  0.00  0.00     0.083 H 
ATOM     25  C11 V15 d          -5.512  -0.650  10.914  0.00  0.00    -0.082 A 
ATOM     26  H5  V15 d          -7.464   0.081  11.422  0.00  0.00     0.083 H 
ATOM     27  C12 V15 d          -4.176  -0.323  10.719  0.00  0.00    -0.077 A 
ATOM     28  H6  V15 d          -5.845  -1.673  10.786  0.00  0.00     0.083 H 
ATOM     29  H7  V15 d          -3.467  -1.091  10.429  0.00  0.00     0.084 H 
ENDBRANCH  16  19
ENDBRANCH   1  16
TORSDOF 4
ENDMDL
MODEL 4
REMARK VINA RESULT:      -6.5      3.402      6.168
REMARK  4 active torsions:
REMARK  status: ('A' for Active; 'I' for Inactive)
REMARK    1  A    between atoms: C2_2  and  N14_12 
REMARK    2  A    between atoms: C15_13  and  C5_5 
REMARK    3  A    between atoms: C16_15  and  C15_13 
REMARK    4  A    between atoms: C7_14  and  C16_15 
ROOT
ATOM      1  C15 V15 d          -1.925   2.371  11.812  0.00  0.00    -0.020 C 
ATOM      2  H10 V15 d          -1.573   1.654  12.569  0.00  0.00     0.042 H 
ATOM      3  H11 V15 d          -2.247   3.298  12.308  0.00  0.00     0.042 H 
ENDROOT
BRANCH   1   4
ATOM      4  C5  V15 d          -3.144   1.767  11.159  0.00  0.00     0.059 A 
ATOM      5  C4  V15 d          -4.437   2.098  11.488  0.00  0.00     0.007 A 
ATOM      6  C3  V15 d          -5.497   1.458  10.795  0.00  0.00     0.261 A 
ATOM      7  H2  V15 d          -4.644   2.835  12.262  0.00  0.00     0.095 H 
ATOM      8  N1  V15 d          -5.211   0.525   9.842  0.00  0.00    -0.155 N 
ATOM      9  O15 V15 d          -6.661   1.735  11.055  0.00  0.00    -0.268 OA
ATOM     10  C2  V15 d          -3.901   0.252   9.549  0.00  0.00     0.701 A 
ATOM     11  H1  V15 d          -5.948   0.047   9.365  0.00  0.00     0.187 HD
ATOM     12  N6  V15 d          -2.930   0.869  10.184  0.00  0.00    -0.070 NA
BRANCH  10  13
ATOM     13  N14 V15 d          -3.578  -0.639   8.549  0.00  0.00    -0.233 N 
ATOM     14  H8  V15 d          -2.743  -0.479   7.967  0.00  0.00     0.174 HD
ATOM     15  H9  V15 d          -4.170  -1.465   8.382  0.00  0.00     0.174 HD
ENDBRANCH  10  13
ENDBRANCH   1   4
BRANCH   1  16
ATOM     16  C16 V15 d          -0.720   2.724  10.924  0.00  0.00    -0.036 C 
ATOM     17  H12 V15 d          -0.680   2.021  10.080  0.00  0.00     0.040 H 
ATOM     18  H13 V15 d           0.201   2.635  11.519  0.00  0.00     0.040 H 
BRANCH  16  19
ATOM     19  C7  V15 d          -0.825   4.129  10.389  0.00  0.00    -0.058 A 
ATOM     20  C8  V15 d          -2.054   4.713  10.088  0.00  0.00    -0.077 A 
ATOM     21  C9  V15 d          -2.114   6.004   9.586  0.00  0.00    -0.082 A 
ATOM     22  H3  V15 d          -2.970   4.154  10.247  0.00  0.00     0.084 H 
ATOM     23  C10 V15 d          -0.937   6.726   9.405  0.00  0.00    -0.083 A 
ATOM     24  H4  V15 d          -3.070   6.448   9.337  0.00  0.00     0.083 H 
ATOM     25  C11 V15 d           0.291   6.155   9.715  0.00  0.00    -0.082 A 
ATOM     26  H5  V15 d          -0.980   7.738   9.020  0.00  0.00     0.083 H 
ATOM     27  C12 V15 d           0.348   4.859  10.213  0.00  0.00    -0.077 A 
ATOM     28  H6  V15 d           1.204   6.721   9.570  0.00  0.00     0.083 H 
ATOM     29  H7  V15 d           1.305   4.417  10.465  0.00  0.00     0.084 H 
ENDBRANCH  16  19
ENDBRANCH   1  16
TORSDOF 4
ENDMDL
MODEL 5
REMARK VINA RESULT:      -5.2      2.580      3.640
REMARK  4 active torsions:
REMARK  status: ('A' for Active; 'I' for Inactive)
REMARK    1  A    between atoms: C2_2  and  N14_12 
REMARK    2  A    between atoms: C15_13  and  C5_5 
REMARK    3  A    between atoms: C16_15  and  C15_13 
REMARK    4  A    between atoms: C7_14  and  C16_15 
ROOT
ATOM      1  C15 V15 d          -3.844   2.015   7.817  0.00  0.00    -0.020 C 
ATOM      2  H10 V15 d          -3.522   0.963   7.778  0.00  0.00     0.042 H 
ATOM      3  H11 V15 d          -3.604   2.507   6.863  0.00  0.00     0.042 H 
ENDROOT
BRANCH   1   4
ATOM      4  C5  V15 d          -3.025   2.693   8.888  0.00  0.00     0.059 A 
ATOM      5  C4  V15 d          -2.383   2.026   9.905  0.00  0.00     0.007 A 
ATOM      6  C3  V15 d          -1.643   2.783  10.848  0.00  0.00     0.261 A 
ATOM      7  H2  V15 d          -2.442   0.942   9.984  0.00  0.00     0.095 H 
ATOM      8  N1  V15 d          -1.600   4.141  10.737  0.00  0.00    -0.155 N 
ATOM      9  O15 V15 d          -1.050   2.222  11.761  0.00  0.00    -0.268 OA
ATOM     10  C2  V15 d          -2.247   4.745   9.691  0.00  0.00     0.701 A 
ATOM     11  H1  V15 d          -1.103   4.689  11.410  0.00  0.00     0.187 HD
ATOM     12  N6  V15 d          -2.911   4.029   8.812  0.00  0.00    -0.070 NA
BRANCH  10  13
ATOM     13  N14 V15 d          -2.172   6.109   9.514  0.00  0.00    -0.233 N 
ATOM     14  H8  V15 d          -2.468   6.529   8.621  0.00  0.00     0.174 HD
ATOM     15  H9  V15 d          -1.820   6.709  10.273  0.00  0.00     0.174 HD
ENDBRANCH  10  13
ENDBRANCH   1   4
BRANCH   1  16
ATOM     16  C16 V15 d          -5.376   2.017   7.958  0.00  0.00    -0.036 C 
ATOM     17  H12 V15 d          -5.820   1.617   7.035  0.00  0.00     0.040 H 
ATOM     18  H13 V15 d          -5.719   3.050   8.113  0.00  0.00     0.040 H 
BRANCH  16  19
ATOM     19  C7  V15 d          -5.822   1.171   9.123  0.00  0.00    -0.058 A 
ATOM     20  C8  V15 d          -6.265   1.738  10.318  0.00  0.00    -0.077 A 
ATOM     21  C9  V15 d          -6.657   0.931  11.374  0.00  0.00    -0.082 A 
ATOM     22  H3  V15 d          -6.303   2.817  10.421  0.00  0.00     0.084 H 
ATOM     23  C10 V15 d          -6.628  -0.454  11.228  0.00  0.00    -0.083 A 
ATOM     24  H4  V15 d          -6.985   1.374  12.307  0.00  0.00     0.083 H 
ATOM     25  C11 V15 d          -6.200  -1.025  10.037  0.00  0.00    -0.082 A 
ATOM     26  H5  V15 d          -6.942  -1.089  12.049  0.00  0.00     0.083 H 
ATOM     27  C12 V15 d          -5.803  -0.213   8.981  0.00  0.00    -0.077 A 
ATOM     28  H6  V15 d          -6.177  -2.104   9.930  0.00  0.00     0.083 H 
ATOM     29  H7  V15 d          -5.478  -0.659   8.047  0.00  0.00     0.084 H 
ENDBRANCH  16  19
ENDBRANCH   1  16
TORSDOF 4
ENDMDL
