MODEL 1
REMARK VINA RESULT:     -11.0      0.000      0.000
REMARK  9 active torsions:
REMARK  status: ('A' for Active; 'I' for Inactive)
REMARK    1  A    between atoms: C16_2  and  C17_3 
REMARK       I    between atoms: C16_2  and  N7_10 
REMARK    2  A    between atoms: C40_7  and  C44_8 
REMARK    3  A    between atoms: C8_14  and  C18_30 
REMARK    4  A    between atoms: C14_20  and  C37_21 
REMARK    5  A    between atoms: C14_20  and  C38_22 
REMARK    6  A    between atoms: C6_27  and  O36_28 
REMARK    7  A    between atoms: C21_34  and  O24_37 
REMARK    8  A    between atoms: O24_37  and  C25_38 
REMARK    9  A    between atoms: C25_38  and  C26_39 
ROOT
ATOM      1  O35 XNC d          27.077   6.629  40.249  0.00  0.00    -0.265 OA
ATOM      2  C16 XNC d          28.103   6.204  39.743  0.00  0.00     0.278 C 
ATOM      3  N7  XNC d          28.359   6.341  38.368  0.00  0.00    -0.296 N 
ATOM      4  C4  XNC d          29.653   6.238  37.789  0.00  0.00     0.068 A 
ATOM      5  C3  XNC d          30.682   7.104  38.190  0.00  0.00    -0.054 A 
ATOM      6  C2  XNC d          31.940   7.033  37.608  0.00  0.00    -0.078 A 
ATOM      7  C8  XNC d          27.231   6.599  37.448  0.00  0.00     0.086 C 
ATOM      8  C9  XNC d          26.764   5.291  36.865  0.00  0.00     0.087 C 
ATOM      9  S12 XNC d          25.060   5.148  36.882  0.00  0.00     0.176 S 
ATOM     10  O32 XNC d          24.507   6.287  36.154  0.00  0.00    -0.223 OA
ATOM     11  O33 XNC d          24.540   5.194  38.228  0.00  0.00    -0.223 OA
ATOM     12  C13 XNC d          24.628   3.569  36.123  0.00  0.00     0.040 C 
ATOM     13  C14 XNC d          25.624   3.134  35.053  0.00  0.00    -0.029 C 
ATOM     14  C15 XNC d          26.991   3.039  35.771  0.00  0.00    -0.018 C 
ATOM     15  C10 XNC d          27.563   4.312  36.378  0.00  0.00     0.030 C 
ATOM     16  N11 XNC d          28.951   4.353  36.342  0.00  0.00    -0.354 N 
ATOM     17  C5  XNC d          29.901   5.283  36.796  0.00  0.00     0.093 A 
ATOM     18  C6  XNC d          31.166   5.208  36.243  0.00  0.00     0.094 A 
ATOM     19  C1  XNC d          32.170   6.080  36.648  0.00  0.00    -0.049 A 
ATOM     20  H7  XNC d          30.492   7.837  38.965  0.00  0.00     0.087 H 
ATOM     21  H8  XNC d          32.726   7.718  37.907  0.00  0.00     0.083 H 
ATOM     22  H9  XNC d          26.388   7.020  38.016  0.00  0.00     0.090 H 
ATOM     23  H10 XNC d          23.633   3.662  35.661  0.00  0.00     0.057 H 
ATOM     24  H11 XNC d          24.597   2.799  36.908  0.00  0.00     0.057 H 
ATOM     25  H18 XNC d          27.721   2.667  35.038  0.00  0.00     0.043 H 
ATOM     26  H19 XNC d          26.884   2.307  36.585  0.00  0.00     0.043 H 
ATOM     27  H20 XNC d          29.372   3.530  35.888  0.00  0.00     0.166 HD
ATOM     28  H22 XNC d          33.153   6.006  36.196  0.00  0.00     0.087 H 
ENDROOT
BRANCH   7  29
ATOM     29  C18 XNC d          27.708   7.682  36.451  0.00  0.00     0.009 A 
ATOM     30  C23 XNC d          27.937   8.970  36.918  0.00  0.00     0.127 A 
ATOM     31  F34 XNC d          27.732   9.222  38.209  0.00  0.00    -0.205 F 
ATOM     32  C22 XNC d          28.355   9.984  36.054  0.00  0.00    -0.013 A 
ATOM     33  C21 XNC d          28.553   9.707  34.700  0.00  0.00     0.072 A 
ATOM     34  H23 XNC d          28.526  10.985  36.433  0.00  0.00     0.092 H 
ATOM     35  C20 XNC d          28.326   8.406  34.230  0.00  0.00    -0.050 A 
ATOM     36  C19 XNC d          27.901   7.408  35.098  0.00  0.00    -0.069 A 
ATOM     37  H24 XNC d          28.484   8.178  33.182  0.00  0.00     0.087 H 
ATOM     38  H25 XNC d          27.717   6.408  34.720  0.00  0.00     0.084 H 
BRANCH  33  39
ATOM     39  O24 XNC d          28.984  10.720  33.881  0.00  0.00    -0.347 OA
BRANCH  39  40
ATOM     40  C25 XNC d          28.091  11.694  33.299  0.00  0.00     0.050 C 
ATOM     41  H26 XNC d          28.633  12.640  33.150  0.00  0.00     0.082 H 
ATOM     42  H27 XNC d          27.243  11.861  33.979  0.00  0.00     0.082 H 
BRANCH  40  43
ATOM     43  C26 XNC d          27.570  11.198  31.957  0.00  0.00    -0.034 A 
ATOM     44  C31 XNC d          28.373  10.410  31.154  0.00  0.00    -0.075 A 
ATOM     45  C30 XNC d          27.901   9.917  29.943  0.00  0.00    -0.082 A 
ATOM     46  H28 XNC d          29.382  10.174  31.472  0.00  0.00     0.084 H 
ATOM     47  C29 XNC d          26.616  10.229  29.523  0.00  0.00    -0.083 A 
ATOM     48  H29 XNC d          28.537   9.291  29.328  0.00  0.00     0.083 H 
ATOM     49  C28 XNC d          25.797  11.033  30.332  0.00  0.00    -0.082 A 
ATOM     50  H30 XNC d          26.247   9.854  28.575  0.00  0.00     0.083 H 
ATOM     51  C27 XNC d          26.270  11.510  31.548  0.00  0.00    -0.075 A 
ATOM     52  H31 XNC d          24.793  11.283  30.007  0.00  0.00     0.083 H 
ATOM     53  H32 XNC d          25.633  12.120  32.177  0.00  0.00     0.084 H 
ENDBRANCH  40  43
ENDBRANCH  39  40
ENDBRANCH  33  39
ENDBRANCH   7  29
BRANCH   2  54
ATOM     54  C17 XNC d          29.087   5.544  40.639  0.00  0.00     0.125 A 
ATOM     55  C43 XNC d          29.234   4.167  40.650  0.00  0.00    -0.050 A 
ATOM     56  C42 XNC d          30.171   3.606  41.513  0.00  0.00    -0.079 A 
ATOM     57  H1  XNC d          28.633   3.540  40.001  0.00  0.00     0.087 H 
ATOM     58  C41 XNC d          30.967   4.431  42.329  0.00  0.00    -0.059 A 
ATOM     59  H2  XNC d          30.288   2.529  41.557  0.00  0.00     0.083 H 
ATOM     60  C40 XNC d          30.834   5.810  42.292  0.00  0.00     0.031 A 
ATOM     61  H3  XNC d          31.693   3.982  42.996  0.00  0.00     0.086 H 
ATOM     62  N39 XNC d          29.885   6.353  41.449  0.00  0.00    -0.248 NA
BRANCH  60  63
ATOM     63  C44 XNC d          31.658   6.721  43.160  0.00  0.00    -0.035 C 
ATOM     64  H4  XNC d          31.157   6.856  44.130  0.00  0.00     0.035 H 
ATOM     65  H5  XNC d          31.770   7.698  42.667  0.00  0.00     0.035 H 
ATOM     66  H6  XNC d          32.652   6.277  43.320  0.00  0.00     0.035 H 
ENDBRANCH  60  63
ENDBRANCH   2  54
BRANCH  18  67
ATOM     67  O36 XNC d          31.460   4.293  35.276  0.00  0.00    -0.358 OA
ATOM     68  H21 XNC d          31.728   3.478  35.683  0.00  0.00     0.217 HD
ENDBRANCH  18  67
BRANCH  13  69
ATOM     69  C37 XNC d          25.211   1.734  34.536  0.00  0.00    -0.068 C 
ATOM     70  H12 XNC d          24.242   1.803  34.021  0.00  0.00     0.028 H 
ATOM     71  H13 XNC d          25.126   1.040  35.385  0.00  0.00     0.028 H 
ATOM     72  H14 XNC d          25.973   1.362  33.834  0.00  0.00     0.028 H 
ENDBRANCH  13  69
BRANCH  13  73
ATOM     73  C38 XNC d          25.684   4.140  33.871  0.00  0.00    -0.068 C 
ATOM     74  H15 XNC d          26.438   4.911  34.085  0.00  0.00     0.028 H 
ATOM     75  H16 XNC d          24.701   4.615  33.743  0.00  0.00     0.028 H 
ATOM     76  H17 XNC d          25.956   3.606  32.949  0.00  0.00     0.028 H 
ENDBRANCH  13  73
TORSDOF 9
ENDMDL
MODEL 2
REMARK VINA RESULT:      -9.0      2.601      7.333
REMARK  9 active torsions:
REMARK  status: ('A' for Active; 'I' for Inactive)
REMARK    1  A    between atoms: C16_2  and  C17_3 
REMARK       I    between atoms: C16_2  and  N7_10 
REMARK    2  A    between atoms: C40_7  and  C44_8 
REMARK    3  A    between atoms: C8_14  and  C18_30 
REMARK    4  A    between atoms: C14_20  and  C37_21 
REMARK    5  A    between atoms: C14_20  and  C38_22 
REMARK    6  A    between atoms: C6_27  and  O36_28 
REMARK    7  A    between atoms: C21_34  and  O24_37 
REMARK    8  A    between atoms: O24_37  and  C25_38 
REMARK    9  A    between atoms: C25_38  and  C26_39 
ROOT
ATOM      1  O35 XNC d          29.887   5.274  33.278  0.00  0.00    -0.265 OA
ATOM      2  C16 XNC d          29.238   6.016  33.998  0.00  0.00     0.278 C 
ATOM      3  N7  XNC d          29.088   5.766  35.373  0.00  0.00    -0.296 N 
ATOM      4  C4  XNC d          28.702   6.753  36.320  0.00  0.00     0.068 A 
ATOM      5  C3  XNC d          29.473   7.912  36.493  0.00  0.00    -0.054 A 
ATOM      6  C2  XNC d          29.124   8.867  37.438  0.00  0.00    -0.078 A 
ATOM      7  C8  XNC d          29.331   4.401  35.887  0.00  0.00     0.086 C 
ATOM      8  C9  XNC d          28.017   3.669  35.974  0.00  0.00     0.087 C 
ATOM      9  S12 XNC d          28.119   2.081  35.347  0.00  0.00     0.176 S 
ATOM     10  O32 XNC d          29.174   1.379  36.074  0.00  0.00    -0.223 OA
ATOM     11  O33 XNC d          28.480   2.088  33.949  0.00  0.00    -0.223 OA
ATOM     12  C13 XNC d          26.506   1.300  35.549  0.00  0.00     0.040 C 
ATOM     13  C14 XNC d          25.750   1.809  36.772  0.00  0.00    -0.029 C 
ATOM     14  C15 XNC d          25.595   3.335  36.560  0.00  0.00    -0.018 C 
ATOM     15  C10 XNC d          26.864   4.171  36.478  0.00  0.00     0.030 C 
ATOM     16  N11 XNC d          26.704   5.451  36.992  0.00  0.00    -0.354 N 
ATOM     17  C5  XNC d          27.559   6.560  37.104  0.00  0.00     0.093 A 
ATOM     18  C6  XNC d          27.209   7.532  38.024  0.00  0.00     0.094 A 
ATOM     19  C1  XNC d          27.990   8.669  38.187  0.00  0.00    -0.049 A 
ATOM     20  H7  XNC d          30.354   8.064  35.879  0.00  0.00     0.087 H 
ATOM     21  H8  XNC d          29.734   9.751  37.582  0.00  0.00     0.083 H 
ATOM     22  H9  XNC d          29.961   3.852  35.172  0.00  0.00     0.090 H 
ATOM     23  H10 XNC d          26.652   0.214  35.653  0.00  0.00     0.057 H 
ATOM     24  H11 XNC d          25.902   1.504  34.652  0.00  0.00     0.057 H 
ATOM     25  H18 XNC d          24.998   3.724  37.398  0.00  0.00     0.043 H 
ATOM     26  H19 XNC d          25.045   3.481  35.619  0.00  0.00     0.043 H 
ATOM     27  H20 XNC d          25.762   5.623  37.371  0.00  0.00     0.166 HD
ATOM     28  H22 XNC d          27.699   9.415  38.918  0.00  0.00     0.087 H 
ENDROOT
BRANCH   7  29
ATOM     29  C18 XNC d          30.139   4.556  37.197  0.00  0.00     0.009 A 
ATOM     30  C23 XNC d          31.416   5.098  37.139  0.00  0.00     0.127 A 
ATOM     31  F34 XNC d          31.896   5.462  35.952  0.00  0.00    -0.205 F 
ATOM     32  C22 XNC d          32.188   5.245  38.293  0.00  0.00    -0.013 A 
ATOM     33  C21 XNC d          31.675   4.847  39.528  0.00  0.00     0.072 A 
ATOM     34  H23 XNC d          33.184   5.667  38.230  0.00  0.00     0.092 H 
ATOM     35  C20 XNC d          30.384   4.304  39.588  0.00  0.00    -0.050 A 
ATOM     36  C19 XNC d          29.629   4.154  38.431  0.00  0.00    -0.069 A 
ATOM     37  H24 XNC d          29.973   3.998  40.544  0.00  0.00     0.087 H 
ATOM     38  H25 XNC d          28.636   3.721  38.488  0.00  0.00     0.084 H 
BRANCH  33  39
ATOM     39  O24 XNC d          32.450   5.024  40.646  0.00  0.00    -0.347 OA
BRANCH  39  40
ATOM     40  C25 XNC d          32.010   5.782  41.795  0.00  0.00     0.050 C 
ATOM     41  H26 XNC d          32.843   5.877  42.507  0.00  0.00     0.082 H 
ATOM     42  H27 XNC d          31.174   5.255  42.278  0.00  0.00     0.082 H 
BRANCH  40  43
ATOM     43  C26 XNC d          31.551   7.169  41.370  0.00  0.00    -0.034 A 
ATOM     44  C31 XNC d          30.256   7.578  41.632  0.00  0.00    -0.075 A 
ATOM     45  C30 XNC d          29.829   8.854  41.284  0.00  0.00    -0.082 A 
ATOM     46  H28 XNC d          29.566   6.894  42.114  0.00  0.00     0.084 H 
ATOM     47  C29 XNC d          30.703   9.728  40.653  0.00  0.00    -0.083 A 
ATOM     48  H29 XNC d          28.815   9.166  41.506  0.00  0.00     0.083 H 
ATOM     49  C28 XNC d          32.018   9.317  40.380  0.00  0.00    -0.082 A 
ATOM     50  H30 XNC d          30.372  10.721  40.373  0.00  0.00     0.083 H 
ATOM     51  C27 XNC d          32.442   8.045  40.744  0.00  0.00    -0.075 A 
ATOM     52  H31 XNC d          32.704   9.995  39.884  0.00  0.00     0.083 H 
ATOM     53  H32 XNC d          33.461   7.734  40.543  0.00  0.00     0.084 H 
ENDBRANCH  40  43
ENDBRANCH  39  40
ENDBRANCH  33  39
ENDBRANCH   7  29
BRANCH   2  54
ATOM     54  C17 XNC d          28.621   7.212  33.369  0.00  0.00     0.125 A 
ATOM     55  C43 XNC d          27.342   7.161  32.839  0.00  0.00    -0.050 A 
ATOM     56  C42 XNC d          26.818   8.314  32.260  0.00  0.00    -0.079 A 
ATOM     57  H1  XNC d          26.764   6.245  32.872  0.00  0.00     0.087 H 
ATOM     58  C41 XNC d          27.566   9.505  32.248  0.00  0.00    -0.059 A 
ATOM     59  H2  XNC d          25.829   8.293  31.816  0.00  0.00     0.083 H 
ATOM     60  C40 XNC d          28.833   9.556  32.807  0.00  0.00     0.031 A 
ATOM     61  H3  XNC d          27.145  10.396  31.796  0.00  0.00     0.086 H 
ATOM     62  N39 XNC d          29.352   8.401  33.357  0.00  0.00    -0.248 NA
BRANCH  60  63
ATOM     63  C44 XNC d          29.666  10.809  32.799  0.00  0.00    -0.035 C 
ATOM     64  H4  XNC d          29.236  11.530  32.089  0.00  0.00     0.035 H 
ATOM     65  H5  XNC d          30.694  10.564  32.496  0.00  0.00     0.035 H 
ATOM     66  H6  XNC d          29.676  11.250  33.807  0.00  0.00     0.035 H 
ENDBRANCH  60  63
ENDBRANCH   2  54
BRANCH  18  67
ATOM     67  O36 XNC d          26.102   7.393  38.809  0.00  0.00    -0.358 OA
ATOM     68  H21 XNC d          26.363   7.371  39.722  0.00  0.00     0.217 HD
ENDBRANCH  18  67
BRANCH  13  69
ATOM     69  C37 XNC d          24.350   1.146  36.798  0.00  0.00    -0.068 C 
ATOM     70  H12 XNC d          23.622   1.806  36.305  0.00  0.00     0.028 H 
ATOM     71  H13 XNC d          24.044   0.977  37.841  0.00  0.00     0.028 H 
ATOM     72  H14 XNC d          24.390   0.183  36.267  0.00  0.00     0.028 H 
ENDBRANCH  13  69
BRANCH  13  73
ATOM     73  C38 XNC d          26.507   1.505  38.093  0.00  0.00    -0.068 C 
ATOM     74  H15 XNC d          26.507   2.401  38.730  0.00  0.00     0.028 H 
ATOM     75  H16 XNC d          27.543   1.218  37.864  0.00  0.00     0.028 H 
ATOM     76  H17 XNC d          26.006   0.679  38.620  0.00  0.00     0.028 H 
ENDBRANCH  13  73
TORSDOF 9
ENDMDL
MODEL 3
REMARK VINA RESULT:      -8.4      1.598      2.160
REMARK  9 active torsions:
REMARK  status: ('A' for Active; 'I' for Inactive)
REMARK    1  A    between atoms: C16_2  and  C17_3 
REMARK       I    between atoms: C16_2  and  N7_10 
REMARK    2  A    between atoms: C40_7  and  C44_8 
REMARK    3  A    between atoms: C8_14  and  C18_30 
REMARK    4  A    between atoms: C14_20  and  C37_21 
REMARK    5  A    between atoms: C14_20  and  C38_22 
REMARK    6  A    between atoms: C6_27  and  O36_28 
REMARK    7  A    between atoms: C21_34  and  O24_37 
REMARK    8  A    between atoms: O24_37  and  C25_38 
REMARK    9  A    between atoms: C25_38  and  C26_39 
ROOT
ATOM      1  O35 XNC d          28.441   7.713  41.474  0.00  0.00    -0.265 OA
ATOM      2  C16 XNC d          29.473   7.317  40.956  0.00  0.00     0.278 C 
ATOM      3  N7  XNC d          29.566   7.093  39.572  0.00  0.00    -0.296 N 
ATOM      4  C4  XNC d          30.795   7.021  38.862  0.00  0.00     0.068 A 
ATOM      5  C3  XNC d          31.684   8.106  38.868  0.00  0.00    -0.054 A 
ATOM      6  C2  XNC d          32.873   8.059  38.152  0.00  0.00    -0.078 A 
ATOM      7  C8  XNC d          28.326   6.910  38.787  0.00  0.00     0.086 C 
ATOM      8  C9  XNC d          28.050   5.436  38.644  0.00  0.00     0.087 C 
ATOM      9  S12 XNC d          26.410   5.054  38.943  0.00  0.00     0.176 S 
ATOM     10  O32 XNC d          25.592   5.845  38.026  0.00  0.00    -0.223 OA
ATOM     11  O33 XNC d          26.022   5.405  40.288  0.00  0.00    -0.223 OA
ATOM     12  C13 XNC d          26.199   3.279  38.698  0.00  0.00     0.040 C 
ATOM     13  C14 XNC d          27.149   2.709  37.650  0.00  0.00    -0.029 C 
ATOM     14  C15 XNC d          28.574   3.024  38.164  0.00  0.00    -0.018 C 
ATOM     15  C10 XNC d          28.962   4.487  38.324  0.00  0.00     0.030 C 
ATOM     16  N11 XNC d          30.310   4.720  38.081  0.00  0.00    -0.354 N 
ATOM     17  C5  XNC d          31.115   5.870  38.132  0.00  0.00     0.093 A 
ATOM     18  C6  XNC d          32.313   5.828  37.443  0.00  0.00     0.094 A 
ATOM     19  C1  XNC d          33.177   6.917  37.455  0.00  0.00    -0.049 A 
ATOM     20  H7  XNC d          31.440   8.994  39.441  0.00  0.00     0.087 H 
ATOM     21  H8  XNC d          33.546   8.908  38.143  0.00  0.00     0.083 H 
ATOM     22  H9  XNC d          27.481   7.346  39.339  0.00  0.00     0.090 H 
ATOM     23  H10 XNC d          25.164   3.090  38.375  0.00  0.00     0.057 H 
ATOM     24  H11 XNC d          26.384   2.768  39.655  0.00  0.00     0.057 H 
ATOM     25  H18 XNC d          29.285   2.570  37.459  0.00  0.00     0.043 H 
ATOM     26  H19 XNC d          28.680   2.547  39.149  0.00  0.00     0.043 H 
ATOM     27  H20 XNC d          30.826   3.873  37.805  0.00  0.00     0.166 HD
ATOM     28  H22 XNC d          34.109   6.863  36.903  0.00  0.00     0.087 H 
ENDROOT
BRANCH   7  29
ATOM     29  C18 XNC d          28.501   7.722  37.482  0.00  0.00     0.009 A 
ATOM     30  C23 XNC d          28.470   9.109  37.545  0.00  0.00     0.127 A 
ATOM     31  F34 XNC d          28.287   9.685  38.731  0.00  0.00    -0.205 F 
ATOM     32  C22 XNC d          28.609   9.884  36.392  0.00  0.00    -0.013 A 
ATOM     33  C21 XNC d          28.787   9.265  35.154  0.00  0.00     0.072 A 
ATOM     34  H23 XNC d          28.579  10.966  36.458  0.00  0.00     0.092 H 
ATOM     35  C20 XNC d          28.823   7.865  35.091  0.00  0.00    -0.050 A 
ATOM     36  C19 XNC d          28.674   7.103  36.245  0.00  0.00    -0.069 A 
ATOM     37  H24 XNC d          28.969   7.373  34.136  0.00  0.00     0.087 H 
ATOM     38  H25 XNC d          28.692   6.021  36.181  0.00  0.00     0.084 H 
BRANCH  33  39
ATOM     39  O24 XNC d          28.943  10.054  34.044  0.00  0.00    -0.347 OA
BRANCH  39  40
ATOM     40  C25 XNC d          28.069  11.164  33.739  0.00  0.00     0.050 C 
ATOM     41  H26 XNC d          28.655  12.094  33.721  0.00  0.00     0.082 H 
ATOM     42  H27 XNC d          27.291  11.236  34.514  0.00  0.00     0.082 H 
BRANCH  40  43
ATOM     43  C26 XNC d          27.408  10.959  32.383  0.00  0.00    -0.034 A 
ATOM     44  C31 XNC d          27.749   9.866  31.608  0.00  0.00    -0.075 A 
ATOM     45  C30 XNC d          27.130   9.642  30.383  0.00  0.00    -0.082 A 
ATOM     46  H28 XNC d          28.507   9.175  31.959  0.00  0.00     0.084 H 
ATOM     47  C29 XNC d          26.170  10.531  29.921  0.00  0.00    -0.083 A 
ATOM     48  H29 XNC d          27.397   8.775  29.791  0.00  0.00     0.083 H 
ATOM     49  C28 XNC d          25.823  11.646  30.701  0.00  0.00    -0.082 A 
ATOM     50  H30 XNC d          25.691  10.365  28.963  0.00  0.00     0.083 H 
ATOM     51  C27 XNC d          26.435  11.855  31.931  0.00  0.00    -0.075 A 
ATOM     52  H31 XNC d          25.077  12.346  30.343  0.00  0.00     0.083 H 
ATOM     53  H32 XNC d          26.158  12.710  32.537  0.00  0.00     0.084 H 
ENDBRANCH  40  43
ENDBRANCH  39  40
ENDBRANCH  33  39
ENDBRANCH   7  29
BRANCH   2  54
ATOM     54  C17 XNC d          30.642   7.092  41.844  0.00  0.00     0.125 A 
ATOM     55  C43 XNC d          31.020   8.039  42.782  0.00  0.00    -0.050 A 
ATOM     56  C42 XNC d          32.127   7.773  43.584  0.00  0.00    -0.079 A 
ATOM     57  H1  XNC d          30.469   8.966  42.887  0.00  0.00     0.087 H 
ATOM     58  C41 XNC d          32.817   6.554  43.459  0.00  0.00    -0.059 A 
ATOM     59  H2  XNC d          32.457   8.509  44.309  0.00  0.00     0.083 H 
ATOM     60  C40 XNC d          32.415   5.599  42.539  0.00  0.00     0.031 A 
ATOM     61  H3  XNC d          33.676   6.359  44.091  0.00  0.00     0.086 H 
ATOM     62  N39 XNC d          31.331   5.884  41.733  0.00  0.00    -0.248 NA
BRANCH  60  63
ATOM     63  C44 XNC d          33.139   4.290  42.369  0.00  0.00    -0.035 C 
ATOM     64  H4  XNC d          32.627   3.510  42.950  0.00  0.00     0.035 H 
ATOM     65  H5  XNC d          34.173   4.395  42.727  0.00  0.00     0.035 H 
ATOM     66  H6  XNC d          33.146   4.010  41.305  0.00  0.00     0.035 H 
ENDBRANCH  60  63
ENDBRANCH   2  54
BRANCH  18  67
ATOM     67  O36 XNC d          32.673   4.729  36.721  0.00  0.00    -0.358 OA
ATOM     68  H21 XNC d          32.324   4.802  35.840  0.00  0.00     0.217 HD
ENDBRANCH  18  67
BRANCH  13  69
ATOM     69  C37 XNC d          26.949   1.174  37.586  0.00  0.00    -0.068 C 
ATOM     70  H12 XNC d          27.226   0.809  36.586  0.00  0.00     0.028 H 
ATOM     71  H13 XNC d          25.895   0.934  37.784  0.00  0.00     0.028 H 
ATOM     72  H14 XNC d          27.585   0.690  38.342  0.00  0.00     0.028 H 
ENDBRANCH  13  69
BRANCH  13  73
ATOM     73  C38 XNC d          26.912   3.334  36.248  0.00  0.00    -0.068 C 
ATOM     74  H15 XNC d          26.423   4.313  36.361  0.00  0.00     0.028 H 
ATOM     75  H16 XNC d          26.268   2.669  35.654  0.00  0.00     0.028 H 
ATOM     76  H17 XNC d          27.877   3.463  35.736  0.00  0.00     0.028 H 
ENDBRANCH  13  73
TORSDOF 9
ENDMDL
