MODEL 1
REMARK VINA RESULT:      -6.0      0.000      0.000
REMARK  6 active torsions:
REMARK  status: ('A' for Active; 'I' for Inactive)
REMARK    1  A    between atoms: N1_1  and  C1'_9 
REMARK    2  A    between atoms: C2'_10  and  O2'_11 
REMARK    3  A    between atoms: C3'_12  and  O3'_14 
REMARK    4  A    between atoms: C4'_13  and  C5'_16 
REMARK    5  A    between atoms: C5'_16  and  O5'_17 
REMARK    6  A    between atoms: O5'_17  and  P_18 
ROOT
ATOM      1  C1' U5P d          36.173   0.124  12.171  0.00  0.00     0.141 C 
ATOM      2  C2' U5P d          36.582   0.838  13.437  0.00  0.00     0.105 C 
ATOM      3  C3' U5P d          37.977   1.322  13.119  0.00  0.00     0.091 C 
ATOM      4  C4' U5P d          37.924   1.561  11.619  0.00  0.00     0.089 C 
ATOM      5  O4' U5P d          37.097   0.492  11.144  0.00  0.00    -0.353 OA
ATOM      6  H4  U5P d          35.162   0.454  11.887  0.00  0.00     0.123 H 
ATOM      7  H5  U5P d          36.559   0.195  14.329  0.00  0.00     0.093 H 
ATOM      8  H7  U5P d          38.706   0.531  13.346  0.00  0.00     0.091 H 
ATOM      9  H8  U5P d          37.456   2.534  11.405  0.00  0.00     0.090 H 
ENDROOT
BRANCH   1  10
ATOM     10  N1  U5P d          36.156  -1.319  12.335  0.00  0.00    -0.280 N 
ATOM     11  C2  U5P d          35.245  -2.040  11.562  0.00  0.00     0.331 A 
ATOM     12  N3  U5P d          35.218  -3.366  11.667  0.00  0.00    -0.275 N 
ATOM     13  O2  U5P d          34.464  -1.444  10.803  0.00  0.00    -0.246 OA
ATOM     14  C4  U5P d          36.033  -4.039  12.508  0.00  0.00     0.250 A 
ATOM     15  H1  U5P d          34.572  -3.882  11.104  0.00  0.00     0.173 HD
ATOM     16  C5  U5P d          36.959  -3.344  13.289  0.00  0.00    -0.002 A 
ATOM     17  O4  U5P d          35.952  -5.286  12.569  0.00  0.00    -0.268 OA
ATOM     18  C6  U5P d          36.996  -1.958  13.172  0.00  0.00    -0.008 A 
ATOM     19  H2  U5P d          37.629  -3.870  13.966  0.00  0.00     0.094 H 
ATOM     20  H3  U5P d          37.710  -1.386  13.762  0.00  0.00     0.112 H 
ENDBRANCH   1  10
BRANCH   2  21
ATOM     21  O2' U5P d          35.671   1.938  13.547  0.00  0.00    -0.388 OA
ATOM     22  H6  U5P d          35.713   2.296  14.426  0.00  0.00     0.210 HD
ENDBRANCH   2  21
BRANCH   3  23
ATOM     23  O3' U5P d          38.353   2.489  13.853  0.00  0.00    -0.390 OA
ATOM     24  H9  U5P d          39.297   2.505  13.957  0.00  0.00     0.210 HD
ENDBRANCH   3  23
BRANCH   4  25
ATOM     25  C5' U5P d          39.303   1.533  10.972  0.00  0.00     0.059 C 
ATOM     26  H10 U5P d          40.024   2.091  11.589  0.00  0.00     0.079 H 
ATOM     27  H11 U5P d          39.260   1.978   9.966  0.00  0.00     0.079 H 
BRANCH  25  28
ATOM     28  O5' U5P d          39.684   0.167  10.887  0.00  0.00    -0.280 OA
BRANCH  28  29
ATOM     29  P   U5P d          41.219  -0.311  10.947  0.00  0.00     0.422 P 
ATOM     30  O1P U5P d          41.244  -1.647  10.233  0.00  0.00    -0.617 OA
ATOM     31  O2P U5P d          41.540  -0.384  12.426  0.00  0.00    -0.617 OA
ATOM     32  O3P U5P d          41.923   0.821  10.236  0.00  0.00    -0.617 OA
ENDBRANCH  28  29
ENDBRANCH  25  28
ENDBRANCH   4  25
TORSDOF 6
ENDMDL
MODEL 2
REMARK VINA RESULT:      -5.2      2.670      5.375
REMARK  6 active torsions:
REMARK  status: ('A' for Active; 'I' for Inactive)
REMARK    1  A    between atoms: N1_1  and  C1'_9 
REMARK    2  A    between atoms: C2'_10  and  O2'_11 
REMARK    3  A    between atoms: C3'_12  and  O3'_14 
REMARK    4  A    between atoms: C4'_13  and  C5'_16 
REMARK    5  A    between atoms: C5'_16  and  O5'_17 
REMARK    6  A    between atoms: O5'_17  and  P_18 
ROOT
ATOM      1  C1' U5P d          36.472  -1.131  12.159  0.00  0.00     0.141 C 
ATOM      2  C2' U5P d          35.868  -1.984  11.070  0.00  0.00     0.105 C 
ATOM      3  C3' U5P d          35.967  -3.380  11.637  0.00  0.00     0.091 C 
ATOM      4  C4' U5P d          35.843  -3.153  13.135  0.00  0.00     0.089 C 
ATOM      5  O4' U5P d          36.558  -1.929  13.343  0.00  0.00    -0.353 OA
ATOM      6  H4  U5P d          35.812  -0.271  12.346  0.00  0.00     0.123 H 
ATOM      7  H5  U5P d          36.384  -1.890  10.103  0.00  0.00     0.093 H 
ATOM      8  H7  U5P d          36.954  -3.807  11.404  0.00  0.00     0.091 H 
ATOM      9  H8  U5P d          34.785  -3.032  13.414  0.00  0.00     0.090 H 
ENDROOT
BRANCH   1  10
ATOM     10  N1  U5P d          37.788  -0.630  11.798  0.00  0.00    -0.280 N 
ATOM     11  C2  U5P d          37.857   0.654  11.256  0.00  0.00     0.331 A 
ATOM     12  N3  U5P d          39.047   1.155  10.936  0.00  0.00    -0.275 N 
ATOM     13  O2  U5P d          36.817   1.305  11.063  0.00  0.00    -0.246 OA
ATOM     14  C4  U5P d          40.191   0.458  11.105  0.00  0.00     0.250 A 
ATOM     15  H1  U5P d          39.095   2.080  10.558  0.00  0.00     0.173 HD
ATOM     16  C5  U5P d          40.153  -0.826  11.651  0.00  0.00    -0.002 A 
ATOM     17  O4  U5P d          41.278   0.982  10.775  0.00  0.00    -0.268 OA
ATOM     18  C6  U5P d          38.910  -1.348  11.997  0.00  0.00    -0.008 A 
ATOM     19  H2  U5P d          41.065  -1.400  11.802  0.00  0.00     0.094 H 
ATOM     20  H3  U5P d          38.844  -2.344  12.431  0.00  0.00     0.112 H 
ENDBRANCH   1  10
BRANCH   2  21
ATOM     21  O2' U5P d          34.502  -1.559  10.990  0.00  0.00    -0.388 OA
ATOM     22  H6  U5P d          33.949  -2.187  11.440  0.00  0.00     0.210 HD
ENDBRANCH   2  21
BRANCH   3  23
ATOM     23  O3' U5P d          34.973  -4.271  11.127  0.00  0.00    -0.390 OA
ATOM     24  H9  U5P d          34.897  -4.154  10.188  0.00  0.00     0.210 HD
ENDBRANCH   3  23
BRANCH   4  25
ATOM     25  C5' U5P d          36.435  -4.294  13.952  0.00  0.00     0.059 C 
ATOM     26  H10 U5P d          36.853  -5.062  13.285  0.00  0.00     0.079 H 
ATOM     27  H11 U5P d          35.660  -4.746  14.591  0.00  0.00     0.079 H 
BRANCH  25  28
ATOM     28  O5' U5P d          37.462  -3.728  14.754  0.00  0.00    -0.280 OA
BRANCH  28  29
ATOM     29  P   U5P d          38.977  -4.271  14.731  0.00  0.00     0.422 P 
ATOM     30  O1P U5P d          39.045  -5.296  15.845  0.00  0.00    -0.617 OA
ATOM     31  O2P U5P d          39.828  -3.039  14.960  0.00  0.00    -0.617 OA
ATOM     32  O3P U5P d          39.087  -4.824  13.330  0.00  0.00    -0.617 OA
ENDBRANCH  28  29
ENDBRANCH  25  28
ENDBRANCH   4  25
TORSDOF 6
ENDMDL
MODEL 3
REMARK VINA RESULT:      -5.2      2.325      4.140
REMARK  6 active torsions:
REMARK  status: ('A' for Active; 'I' for Inactive)
REMARK    1  A    between atoms: N1_1  and  C1'_9 
REMARK    2  A    between atoms: C2'_10  and  O2'_11 
REMARK    3  A    between atoms: C3'_12  and  O3'_14 
REMARK    4  A    between atoms: C4'_13  and  C5'_16 
REMARK    5  A    between atoms: C5'_16  and  O5'_17 
REMARK    6  A    between atoms: O5'_17  and  P_18 
ROOT
ATOM      1  C1' U5P d          38.778  -3.047  13.395  0.00  0.00     0.141 C 
ATOM      2  C2' U5P d          39.727  -2.923  12.228  0.00  0.00     0.105 C 
ATOM      3  C3' U5P d          39.794  -1.431  12.000  0.00  0.00     0.091 C 
ATOM      4  C4' U5P d          39.591  -0.862  13.394  0.00  0.00     0.089 C 
ATOM      5  O4' U5P d          38.628  -1.749  13.976  0.00  0.00    -0.353 OA
ATOM      6  H4  U5P d          39.214  -3.731  14.139  0.00  0.00     0.123 H 
ATOM      7  H5  U5P d          39.393  -3.466  11.332  0.00  0.00     0.093 H 
ATOM      8  H7  U5P d          38.969  -1.118  11.344  0.00  0.00     0.091 H 
ATOM      9  H8  U5P d          40.535  -0.894  13.960  0.00  0.00     0.090 H 
ENDROOT
BRANCH   1  10
ATOM     10  N1  U5P d          37.481  -3.568  12.996  0.00  0.00    -0.280 N 
ATOM     11  C2  U5P d          37.032  -4.724  13.636  0.00  0.00     0.331 A 
ATOM     12  N3  U5P d          35.839  -5.216  13.314  0.00  0.00    -0.275 N 
ATOM     13  O2  U5P d          37.749  -5.286  14.481  0.00  0.00    -0.246 OA
ATOM     14  C4  U5P d          35.053  -4.644  12.377  0.00  0.00     0.250 A 
ATOM     15  H1  U5P d          35.514  -6.038  13.782  0.00  0.00     0.173 HD
ATOM     16  C5  U5P d          35.474  -3.484  11.725  0.00  0.00    -0.002 A 
ATOM     17  O4  U5P d          33.945  -5.162  12.112  0.00  0.00    -0.268 OA
ATOM     18  C6  U5P d          36.716  -2.961  12.068  0.00  0.00    -0.008 A 
ATOM     19  H2  U5P d          34.850  -3.005  10.973  0.00  0.00     0.094 H 
ATOM     20  H3  U5P d          37.073  -2.054  11.583  0.00  0.00     0.112 H 
ENDBRANCH   1  10
BRANCH   2  21
ATOM     21  O2' U5P d          40.977  -3.423  12.720  0.00  0.00    -0.388 OA
ATOM     22  H6  U5P d          40.815  -4.051  13.414  0.00  0.00     0.210 HD
ENDBRANCH   2  21
BRANCH   3  23
ATOM     23  O3' U5P d          41.019  -1.004  11.400  0.00  0.00    -0.390 OA
ATOM     24  H9  U5P d          41.346  -1.690  10.829  0.00  0.00     0.210 HD
ENDBRANCH   3  23
BRANCH   4  25
ATOM     25  C5' U5P d          39.088   0.577  13.372  0.00  0.00     0.059 C 
ATOM     26  H10 U5P d          39.856   1.254  13.774  0.00  0.00     0.079 H 
ATOM     27  H11 U5P d          38.169   0.667  13.971  0.00  0.00     0.079 H 
BRANCH  25  28
ATOM     28  O5' U5P d          38.820   0.891  12.012  0.00  0.00    -0.280 OA
BRANCH  28  29
ATOM     29  P   U5P d          37.404   1.474  11.520  0.00  0.00     0.422 P 
ATOM     30  O1P U5P d          37.752   2.577  10.539  0.00  0.00    -0.617 OA
ATOM     31  O2P U5P d          36.725   1.951  12.786  0.00  0.00    -0.617 OA
ATOM     32  O3P U5P d          36.758   0.248  10.918  0.00  0.00    -0.617 OA
ENDBRANCH  28  29
ENDBRANCH  25  28
ENDBRANCH   4  25
TORSDOF 6
ENDMDL
MODEL 4
REMARK VINA RESULT:      -4.9      2.086      2.670
REMARK  6 active torsions:
REMARK  status: ('A' for Active; 'I' for Inactive)
REMARK    1  A    between atoms: N1_1  and  C1'_9 
REMARK    2  A    between atoms: C2'_10  and  O2'_11 
REMARK    3  A    between atoms: C3'_12  and  O3'_14 
REMARK    4  A    between atoms: C4'_13  and  C5'_16 
REMARK    5  A    between atoms: C5'_16  and  O5'_17 
REMARK    6  A    between atoms: O5'_17  and  P_18 
ROOT
ATOM      1  C1' U5P d          37.222  -0.139  12.043  0.00  0.00     0.141 C 
ATOM      2  C2' U5P d          36.783   0.936  13.007  0.00  0.00     0.105 C 
ATOM      3  C3' U5P d          37.988   1.106  13.901  0.00  0.00     0.091 C 
ATOM      4  C4' U5P d          39.150   0.783  12.975  0.00  0.00     0.089 C 
ATOM      5  O4' U5P d          38.639  -0.283  12.165  0.00  0.00    -0.353 OA
ATOM      6  H4  U5P d          36.974   0.178  11.019  0.00  0.00     0.123 H 
ATOM      7  H5  U5P d          35.878   0.673  13.575  0.00  0.00     0.093 H 
ATOM      8  H7  U5P d          37.949   0.374  14.721  0.00  0.00     0.091 H 
ATOM      9  H8  U5P d          39.394   1.657  12.352  0.00  0.00     0.090 H 
ENDROOT
BRANCH   1  10
ATOM     10  N1  U5P d          36.567  -1.410  12.302  0.00  0.00    -0.280 N 
ATOM     11  C2  U5P d          35.540  -1.789  11.436  0.00  0.00     0.331 A 
ATOM     12  N3  U5P d          34.934  -2.958  11.628  0.00  0.00    -0.275 N 
ATOM     13  O2  U5P d          35.193  -1.033  10.514  0.00  0.00    -0.246 OA
ATOM     14  C4  U5P d          35.269  -3.785  12.642  0.00  0.00     0.250 A 
ATOM     15  H1  U5P d          34.206  -3.233  11.000  0.00  0.00     0.173 HD
ATOM     16  C5  U5P d          36.296  -3.435  13.519  0.00  0.00    -0.002 A 
ATOM     17  O4  U5P d          34.653  -4.866  12.774  0.00  0.00    -0.268 OA
ATOM     18  C6  U5P d          36.939  -2.218  13.314  0.00  0.00    -0.008 A 
ATOM     19  H2  U5P d          36.585  -4.093  14.337  0.00  0.00     0.094 H 
ATOM     20  H3  U5P d          37.749  -1.916  13.976  0.00  0.00     0.112 H 
ENDBRANCH   1  10
BRANCH   2  21
ATOM     21  O2' U5P d          36.581   2.097  12.192  0.00  0.00    -0.388 OA
ATOM     22  H6  U5P d          37.389   2.596  12.147  0.00  0.00     0.210 HD
ENDBRANCH   2  21
BRANCH   3  23
ATOM     23  O3' U5P d          38.086   2.409  14.479  0.00  0.00    -0.390 OA
ATOM     24  H9  U5P d          37.600   3.027  13.947  0.00  0.00     0.210 HD
ENDBRANCH   3  23
BRANCH   4  25
ATOM     25  C5' U5P d          40.403   0.362  13.733  0.00  0.00     0.059 C 
ATOM     26  H10 U5P d          40.389   0.777  14.751  0.00  0.00     0.079 H 
ATOM     27  H11 U5P d          41.302   0.714  13.205  0.00  0.00     0.079 H 
BRANCH  25  28
ATOM     28  O5' U5P d          40.388  -1.058  13.782  0.00  0.00    -0.280 OA
BRANCH  28  29
ATOM     29  P   U5P d          40.548  -1.879  15.156  0.00  0.00     0.422 P 
ATOM     30  O1P U5P d          41.794  -1.315  15.810  0.00  0.00    -0.617 OA
ATOM     31  O2P U5P d          40.666  -3.327  14.726  0.00  0.00    -0.617 OA
ATOM     32  O3P U5P d          39.247  -1.566  15.857  0.00  0.00    -0.617 OA
ENDBRANCH  28  29
ENDBRANCH  25  28
ENDBRANCH   4  25
TORSDOF 6
ENDMDL
MODEL 5
REMARK VINA RESULT:      -4.8      3.159      5.029
REMARK  6 active torsions:
REMARK  status: ('A' for Active; 'I' for Inactive)
REMARK    1  A    between atoms: N1_1  and  C1'_9 
REMARK    2  A    between atoms: C2'_10  and  O2'_11 
REMARK    3  A    between atoms: C3'_12  and  O3'_14 
REMARK    4  A    between atoms: C4'_13  and  C5'_16 
REMARK    5  A    between atoms: C5'_16  and  O5'_17 
REMARK    6  A    between atoms: O5'_17  and  P_18 
ROOT
ATOM      1  C1' U5P d          38.820  -0.284  13.199  0.00  0.00     0.141 C 
ATOM      2  C2' U5P d          38.903   0.545  11.941  0.00  0.00     0.105 C 
ATOM      3  C3' U5P d          37.587   0.260  11.257  0.00  0.00     0.091 C 
ATOM      4  C4' U5P d          36.642   0.013  12.420  0.00  0.00     0.089 C 
ATOM      5  O4' U5P d          37.458  -0.691  13.365  0.00  0.00    -0.353 OA
ATOM      6  H4  U5P d          39.121   0.337  14.056  0.00  0.00     0.123 H 
ATOM      7  H5  U5P d          39.766   0.292  11.306  0.00  0.00     0.093 H 
ATOM      8  H7  U5P d          37.675  -0.650  10.645  0.00  0.00     0.091 H 
ATOM      9  H8  U5P d          36.301   0.969  12.844  0.00  0.00     0.090 H 
ENDROOT
BRANCH   1  10
ATOM     10  N1  U5P d          39.686  -1.449  13.149  0.00  0.00    -0.280 N 
ATOM     11  C2  U5P d          40.171  -1.938  14.362  0.00  0.00     0.331 A 
ATOM     12  N3  U5P d          40.948  -3.018  14.357  0.00  0.00    -0.275 N 
ATOM     13  O2  U5P d          39.891  -1.358  15.424  0.00  0.00    -0.246 OA
ATOM     14  C4  U5P d          41.296  -3.650  13.215  0.00  0.00     0.250 A 
ATOM     15  H1  U5P d          41.286  -3.374  15.229  0.00  0.00     0.173 HD
ATOM     16  C5  U5P d          40.820  -3.187  11.988  0.00  0.00    -0.002 A 
ATOM     17  O4  U5P d          42.038  -4.655  13.277  0.00  0.00    -0.268 OA
ATOM     18  C6  U5P d          39.998  -2.064  11.992  0.00  0.00    -0.008 A 
ATOM     19  H2  U5P d          41.083  -3.688  11.058  0.00  0.00     0.094 H 
ATOM     20  H3  U5P d          39.604  -1.680  11.052  0.00  0.00     0.112 H 
ENDBRANCH   1  10
BRANCH   2  21
ATOM     21  O2' U5P d          38.959   1.901  12.400  0.00  0.00    -0.388 OA
ATOM     22  H6  U5P d          38.138   2.336  12.202  0.00  0.00     0.210 HD
ENDBRANCH   2  21
BRANCH   3  23
ATOM     23  O3' U5P d          37.151   1.320  10.403  0.00  0.00    -0.390 OA
ATOM     24  H9  U5P d          36.742   0.953   9.629  0.00  0.00     0.210 HD
ENDBRANCH   3  23
BRANCH   4  25
ATOM     25  C5' U5P d          35.419  -0.804  12.018  0.00  0.00     0.059 C 
ATOM     26  H10 U5P d          35.447  -1.024  10.941  0.00  0.00     0.079 H 
ATOM     27  H11 U5P d          34.498  -0.250  12.256  0.00  0.00     0.079 H 
BRANCH  25  28
ATOM     28  O5' U5P d          35.473  -2.010  12.767  0.00  0.00    -0.280 OA
BRANCH  28  29
ATOM     29  P   U5P d          35.569  -3.458  12.073  0.00  0.00     0.422 P 
ATOM     30  O1P U5P d          34.600  -4.330  12.845  0.00  0.00    -0.617 OA
ATOM     31  O2P U5P d          37.023  -3.856  12.217  0.00  0.00    -0.617 OA
ATOM     32  O3P U5P d          35.172  -3.145  10.649  0.00  0.00    -0.617 OA
ENDBRANCH  28  29
ENDBRANCH  25  28
ENDBRANCH   4  25
TORSDOF 6
ENDMDL
MODEL 6
REMARK VINA RESULT:      -4.7      2.414      4.972
REMARK  6 active torsions:
REMARK  status: ('A' for Active; 'I' for Inactive)
REMARK    1  A    between atoms: N1_1  and  C1'_9 
REMARK    2  A    between atoms: C2'_10  and  O2'_11 
REMARK    3  A    between atoms: C3'_12  and  O3'_14 
REMARK    4  A    between atoms: C4'_13  and  C5'_16 
REMARK    5  A    between atoms: C5'_16  and  O5'_17 
REMARK    6  A    between atoms: O5'_17  and  P_18 
ROOT
ATOM      1  C1' U5P d          36.521  -2.096  12.953  0.00  0.00     0.141 C 
ATOM      2  C2' U5P d          37.008  -3.310  12.201  0.00  0.00     0.105 C 
ATOM      3  C3' U5P d          38.055  -3.887  13.125  0.00  0.00     0.091 C 
ATOM      4  C4' U5P d          37.542  -3.507  14.504  0.00  0.00     0.089 C 
ATOM      5  O4' U5P d          36.987  -2.202  14.301  0.00  0.00    -0.353 OA
ATOM      6  H4  U5P d          35.421  -2.091  12.948  0.00  0.00     0.123 H 
ATOM      7  H5  U5P d          37.416  -3.075  11.206  0.00  0.00     0.093 H 
ATOM      8  H7  U5P d          39.024  -3.401  12.939  0.00  0.00     0.091 H 
ATOM      9  H8  U5P d          36.760  -4.212  14.826  0.00  0.00     0.090 H 
ENDROOT
BRANCH   1  10
ATOM     10  N1  U5P d          36.990  -0.856  12.359  0.00  0.00    -0.280 N 
ATOM     11  C2  U5P d          36.415  -0.470  11.147  0.00  0.00     0.331 A 
ATOM     12  N3  U5P d          36.803   0.671  10.585  0.00  0.00    -0.275 N 
ATOM     13  O2  U5P d          35.568  -1.196  10.601  0.00  0.00    -0.246 OA
ATOM     14  C4  U5P d          37.745   1.464  11.140  0.00  0.00     0.250 A 
ATOM     15  H1  U5P d          36.382   0.952   9.722  0.00  0.00     0.173 HD
ATOM     16  C5  U5P d          38.332   1.107  12.354  0.00  0.00    -0.002 A 
ATOM     17  O4  U5P d          38.073   2.521  10.556  0.00  0.00    -0.268 OA
ATOM     18  C6  U5P d          37.920  -0.082  12.950  0.00  0.00    -0.008 A 
ATOM     19  H2  U5P d          39.087   1.737  12.821  0.00  0.00     0.094 H 
ATOM     20  H3  U5P d          38.354  -0.388  13.901  0.00  0.00     0.112 H 
ENDBRANCH   1  10
BRANCH   2  21
ATOM     21  O2' U5P d          35.866  -4.172  12.119  0.00  0.00    -0.388 OA
ATOM     22  H6  U5P d          36.131  -5.067  12.298  0.00  0.00     0.210 HD
ENDBRANCH   2  21
BRANCH   3  23
ATOM     23  O3' U5P d          38.234  -5.296  12.969  0.00  0.00    -0.390 OA
ATOM     24  H9  U5P d          38.612  -5.656  13.763  0.00  0.00     0.210 HD
ENDBRANCH   3  23
BRANCH   4  25
ATOM     25  C5' U5P d          38.645  -3.491  15.555  0.00  0.00     0.059 C 
ATOM     26  H10 U5P d          38.637  -4.431  16.128  0.00  0.00     0.079 H 
ATOM     27  H11 U5P d          38.503  -2.643  16.241  0.00  0.00     0.079 H 
BRANCH  25  28
ATOM     28  O5' U5P d          39.872  -3.355  14.853  0.00  0.00    -0.280 OA
BRANCH  28  29
ATOM     29  P   U5P d          40.800  -2.047  14.975  0.00  0.00     0.422 P 
ATOM     30  O1P U5P d          42.038  -2.509  15.718  0.00  0.00    -0.617 OA
ATOM     31  O2P U5P d          39.952  -1.045  15.730  0.00  0.00    -0.617 OA
ATOM     32  O3P U5P d          41.011  -1.681  13.524  0.00  0.00    -0.617 OA
ENDBRANCH  28  29
ENDBRANCH  25  28
ENDBRANCH   4  25
TORSDOF 6
ENDMDL
MODEL 7
REMARK VINA RESULT:      -4.5      2.304      2.869
REMARK  6 active torsions:
REMARK  status: ('A' for Active; 'I' for Inactive)
REMARK    1  A    between atoms: N1_1  and  C1'_9 
REMARK    2  A    between atoms: C2'_10  and  O2'_11 
REMARK    3  A    between atoms: C3'_12  and  O3'_14 
REMARK    4  A    between atoms: C4'_13  and  C5'_16 
REMARK    5  A    between atoms: C5'_16  and  O5'_17 
REMARK    6  A    between atoms: O5'_17  and  P_18 
ROOT
ATOM      1  C1' U5P d          37.525  -1.308  12.125  0.00  0.00     0.141 C 
ATOM      2  C2' U5P d          36.538  -0.651  13.060  0.00  0.00     0.105 C 
ATOM      3  C3' U5P d          36.966   0.798  13.043  0.00  0.00     0.091 C 
ATOM      4  C4' U5P d          37.528   0.973  11.642  0.00  0.00     0.089 C 
ATOM      5  O4' U5P d          38.188  -0.274  11.393  0.00  0.00    -0.353 OA
ATOM      6  H4  U5P d          36.975  -1.955  11.425  0.00  0.00     0.123 H 
ATOM      7  H5  U5P d          36.548  -1.075  14.075  0.00  0.00     0.093 H 
ATOM      8  H7  U5P d          37.758   0.961  13.788  0.00  0.00     0.091 H 
ATOM      9  H8  U5P d          36.711   1.127  10.921  0.00  0.00     0.090 H 
ENDROOT
BRANCH   1  10
ATOM     10  N1  U5P d          38.498  -2.120  12.835  0.00  0.00    -0.280 N 
ATOM     11  C2  U5P d          38.235  -3.486  12.942  0.00  0.00     0.331 A 
ATOM     12  N3  U5P d          39.115  -4.266  13.564  0.00  0.00    -0.275 N 
ATOM     13  O2  U5P d          37.184  -3.957  12.474  0.00  0.00    -0.246 OA
ATOM     14  C4  U5P d          40.249  -3.777  14.110  0.00  0.00     0.250 A 
ATOM     15  H1  U5P d          38.930  -5.246  13.630  0.00  0.00     0.173 HD
ATOM     16  C5  U5P d          40.542  -2.416  14.014  0.00  0.00    -0.002 A 
ATOM     17  O4  U5P d          41.032  -4.561  14.692  0.00  0.00    -0.268 OA
ATOM     18  C6  U5P d          39.628  -1.601  13.353  0.00  0.00    -0.008 A 
ATOM     19  H2  U5P d          41.455  -2.006  14.441  0.00  0.00     0.094 H 
ATOM     20  H3  U5P d          39.827  -0.535  13.255  0.00  0.00     0.112 H 
ENDBRANCH   1  10
BRANCH   2  21
ATOM     21  O2' U5P d          35.265  -0.817  12.424  0.00  0.00    -0.388 OA
ATOM     22  H6  U5P d          34.575  -0.741  13.073  0.00  0.00     0.210 HD
ENDBRANCH   2  21
BRANCH   3  23
ATOM     23  O3' U5P d          35.901   1.707  13.330  0.00  0.00    -0.390 OA
ATOM     24  H9  U5P d          35.185   1.555  12.724  0.00  0.00     0.210 HD
ENDBRANCH   3  23
BRANCH   4  25
ATOM     25  C5' U5P d          38.493   2.149  11.541  0.00  0.00     0.059 C 
ATOM     26  H10 U5P d          38.908   2.386  12.531  0.00  0.00     0.079 H 
ATOM     27  H11 U5P d          37.974   3.032  11.140  0.00  0.00     0.079 H 
BRANCH  25  28
ATOM     28  O5' U5P d          39.531   1.746  10.658  0.00  0.00    -0.280 OA
BRANCH  28  29
ATOM     29  P   U5P d          41.049   1.531  11.145  0.00  0.00     0.422 P 
ATOM     30  O1P U5P d          41.374   0.092  10.795  0.00  0.00    -0.617 OA
ATOM     31  O2P U5P d          41.019   1.825  12.630  0.00  0.00    -0.617 OA
ATOM     32  O3P U5P d          41.783   2.578  10.341  0.00  0.00    -0.617 OA
ENDBRANCH  28  29
ENDBRANCH  25  28
ENDBRANCH   4  25
TORSDOF 6
ENDMDL
MODEL 8
REMARK VINA RESULT:      -4.4      2.370      4.017
REMARK  6 active torsions:
REMARK  status: ('A' for Active; 'I' for Inactive)
REMARK    1  A    between atoms: N1_1  and  C1'_9 
REMARK    2  A    between atoms: C2'_10  and  O2'_11 
REMARK    3  A    between atoms: C3'_12  and  O3'_14 
REMARK    4  A    between atoms: C4'_13  and  C5'_16 
REMARK    5  A    between atoms: C5'_16  and  O5'_17 
REMARK    6  A    between atoms: O5'_17  and  P_18 
ROOT
ATOM      1  C1' U5P d          38.974  -2.320  13.343  0.00  0.00     0.141 C 
ATOM      2  C2' U5P d          39.742  -3.444  12.692  0.00  0.00     0.105 C 
ATOM      3  C3' U5P d          40.871  -2.725  11.992  0.00  0.00     0.091 C 
ATOM      4  C4' U5P d          41.117  -1.521  12.885  0.00  0.00     0.089 C 
ATOM      5  O4' U5P d          39.799  -1.151  13.310  0.00  0.00    -0.353 OA
ATOM      6  H4  U5P d          38.767  -2.589  14.390  0.00  0.00     0.123 H 
ATOM      7  H5  U5P d          39.135  -4.042  11.995  0.00  0.00     0.093 H 
ATOM      8  H7  U5P d          40.542  -2.393  10.997  0.00  0.00     0.091 H 
ATOM      9  H8  U5P d          41.733  -1.807  13.751  0.00  0.00     0.090 H 
ENDROOT
BRANCH   1  10
ATOM     10  N1  U5P d          37.710  -2.058  12.677  0.00  0.00    -0.280 N 
ATOM     11  C2  U5P d          36.708  -3.020  12.806  0.00  0.00     0.331 A 
ATOM     12  N3  U5P d          35.529  -2.803  12.229  0.00  0.00    -0.275 N 
ATOM     13  O2  U5P d          36.927  -4.067  13.437  0.00  0.00    -0.246 OA
ATOM     14  C4  U5P d          35.273  -1.689  11.509  0.00  0.00     0.250 A 
ATOM     15  H1  U5P d          34.808  -3.488  12.332  0.00  0.00     0.173 HD
ATOM     16  C5  U5P d          36.255  -0.707  11.369  0.00  0.00    -0.002 A 
ATOM     17  O4  U5P d          34.147  -1.549  10.982  0.00  0.00    -0.268 OA
ATOM     18  C6  U5P d          37.485  -0.927  11.980  0.00  0.00    -0.008 A 
ATOM     19  H2  U5P d          36.064   0.201  10.799  0.00  0.00     0.094 H 
ATOM     20  H3  U5P d          38.272  -0.179  11.896  0.00  0.00     0.112 H 
ENDBRANCH   1  10
BRANCH   2  21
ATOM     21  O2' U5P d          40.233  -4.232  13.783  0.00  0.00    -0.388 OA
ATOM     22  H6  U5P d          39.770  -3.995  14.578  0.00  0.00     0.210 HD
ENDBRANCH   2  21
BRANCH   3  23
ATOM     23  O3' U5P d          42.037  -3.534  11.820  0.00  0.00    -0.390 OA
ATOM     24  H9  U5P d          41.962  -4.028  11.012  0.00  0.00     0.210 HD
ENDBRANCH   3  23
BRANCH   4  25
ATOM     25  C5' U5P d          41.810  -0.379  12.152  0.00  0.00     0.059 C 
ATOM     26  H10 U5P d          42.623  -0.770  11.523  0.00  0.00     0.079 H 
ATOM     27  H11 U5P d          42.220   0.343  12.874  0.00  0.00     0.079 H 
BRANCH  25  28
ATOM     28  O5' U5P d          40.821   0.244  11.344  0.00  0.00    -0.280 OA
BRANCH  28  29
ATOM     29  P   U5P d          40.627   1.839  11.285  0.00  0.00     0.422 P 
ATOM     30  O1P U5P d          41.665   2.326  10.294  0.00  0.00    -0.617 OA
ATOM     31  O2P U5P d          40.852   2.305  12.709  0.00  0.00    -0.617 OA
ATOM     32  O3P U5P d          39.189   1.960  10.835  0.00  0.00    -0.617 OA
ENDBRANCH  28  29
ENDBRANCH  25  28
ENDBRANCH   4  25
TORSDOF 6
ENDMDL
MODEL 9
REMARK VINA RESULT:      -4.3      3.276      5.073
REMARK  6 active torsions:
REMARK  status: ('A' for Active; 'I' for Inactive)
REMARK    1  A    between atoms: N1_1  and  C1'_9 
REMARK    2  A    between atoms: C2'_10  and  O2'_11 
REMARK    3  A    between atoms: C3'_12  and  O3'_14 
REMARK    4  A    between atoms: C4'_13  and  C5'_16 
REMARK    5  A    between atoms: C5'_16  and  O5'_17 
REMARK    6  A    between atoms: O5'_17  and  P_18 
ROOT
ATOM      1  C1' U5P d          39.585  -0.129  13.952  0.00  0.00     0.141 C 
ATOM      2  C2' U5P d          40.063   0.082  12.536  0.00  0.00     0.105 C 
ATOM      3  C3' U5P d          38.777   0.120  11.744  0.00  0.00     0.091 C 
ATOM      4  C4' U5P d          37.783   0.708  12.732  0.00  0.00     0.089 C 
ATOM      5  O4' U5P d          38.179   0.130  13.982  0.00  0.00    -0.353 OA
ATOM      6  H4  U5P d          40.102   0.583  14.612  0.00  0.00     0.123 H 
ATOM      7  H5  U5P d          40.746  -0.704  12.182  0.00  0.00     0.093 H 
ATOM      8  H7  U5P d          38.476  -0.903  11.475  0.00  0.00     0.091 H 
ATOM      9  H8  U5P d          37.883   1.804  12.766  0.00  0.00     0.090 H 
ENDROOT
BRANCH   1  10
ATOM     10  N1  U5P d          39.855  -1.475  14.428  0.00  0.00    -0.280 N 
ATOM     11  C2  U5P d          41.080  -1.698  15.057  0.00  0.00     0.331 A 
ATOM     12  N3  U5P d          41.351  -2.913  15.527  0.00  0.00    -0.275 N 
ATOM     13  O2  U5P d          41.905  -0.775  15.158  0.00  0.00    -0.246 OA
ATOM     14  C4  U5P d          40.487  -3.943  15.403  0.00  0.00     0.250 A 
ATOM     15  H1  U5P d          42.225  -3.068  15.988  0.00  0.00     0.173 HD
ATOM     16  C5  U5P d          39.252  -3.748  14.783  0.00  0.00    -0.002 A 
ATOM     17  O4  U5P d          40.806  -5.064  15.857  0.00  0.00    -0.268 OA
ATOM     18  C6  U5P d          38.961  -2.475  14.301  0.00  0.00    -0.008 A 
ATOM     19  H2  U5P d          38.539  -4.564  14.681  0.00  0.00     0.094 H 
ATOM     20  H3  U5P d          38.004  -2.287  13.817  0.00  0.00     0.112 H 
ENDBRANCH   1  10
BRANCH   2  21
ATOM     21  O2' U5P d          40.693   1.369  12.551  0.00  0.00    -0.388 OA
ATOM     22  H6  U5P d          41.296   1.417  13.284  0.00  0.00     0.210 HD
ENDBRANCH   2  21
BRANCH   3  23
ATOM     23  O3' U5P d          38.876   0.880  10.538  0.00  0.00    -0.390 OA
ATOM     24  H9  U5P d          38.056   1.334  10.383  0.00  0.00     0.210 HD
ENDBRANCH   3  23
BRANCH   4  25
ATOM     25  C5' U5P d          36.339   0.363  12.387  0.00  0.00     0.059 C 
ATOM     26  H10 U5P d          35.831   1.240  11.959  0.00  0.00     0.079 H 
ATOM     27  H11 U5P d          35.802   0.031  13.288  0.00  0.00     0.079 H 
BRANCH  25  28
ATOM     28  O5' U5P d          36.391  -0.688  11.432  0.00  0.00    -0.280 OA
BRANCH  28  29
ATOM     29  P   U5P d          35.900  -2.184  11.761  0.00  0.00     0.422 P 
ATOM     30  O1P U5P d          37.097  -3.066  11.463  0.00  0.00    -0.617 OA
ATOM     31  O2P U5P d          34.713  -2.407  10.848  0.00  0.00    -0.617 OA
ATOM     32  O3P U5P d          35.523  -2.071  13.220  0.00  0.00    -0.617 OA
ENDBRANCH  28  29
ENDBRANCH  25  28
ENDBRANCH   4  25
TORSDOF 6
ENDMDL
MODEL 10
REMARK VINA RESULT:      -3.9      2.380      3.357
REMARK  6 active torsions:
REMARK  status: ('A' for Active; 'I' for Inactive)
REMARK    1  A    between atoms: N1_1  and  C1'_9 
REMARK    2  A    between atoms: C2'_10  and  O2'_11 
REMARK    3  A    between atoms: C3'_12  and  O3'_14 
REMARK    4  A    between atoms: C4'_13  and  C5'_16 
REMARK    5  A    between atoms: C5'_16  and  O5'_17 
REMARK    6  A    between atoms: O5'_17  and  P_18 
ROOT
ATOM      1  C1' U5P d          37.391  -1.617  12.142  0.00  0.00     0.141 C 
ATOM      2  C2' U5P d          36.205  -0.844  12.667  0.00  0.00     0.105 C 
ATOM      3  C3' U5P d          36.780   0.529  12.924  0.00  0.00     0.091 C 
ATOM      4  C4' U5P d          37.866   0.649  11.868  0.00  0.00     0.089 C 
ATOM      5  O4' U5P d          38.412  -0.674  11.803  0.00  0.00    -0.353 OA
ATOM      6  H4  U5P d          37.087  -2.165  11.238  0.00  0.00     0.123 H 
ATOM      7  H5  U5P d          35.761  -1.285  13.572  0.00  0.00     0.093 H 
ATOM      8  H7  U5P d          37.228   0.563  13.928  0.00  0.00     0.091 H 
ATOM      9  H8  U5P d          37.426   0.932  10.900  0.00  0.00     0.090 H 
ENDROOT
BRANCH   1  10
ATOM     10  N1  U5P d          37.897  -2.574  13.112  0.00  0.00    -0.280 N 
ATOM     11  C2  U5P d          36.960  -3.355  13.788  0.00  0.00     0.331 A 
ATOM     12  N3  U5P d          37.388  -4.259  14.666  0.00  0.00    -0.275 N 
ATOM     13  O2  U5P d          35.746  -3.192  13.580  0.00  0.00    -0.246 OA
ATOM     14  C4  U5P d          38.699  -4.436  14.936  0.00  0.00     0.250 A 
ATOM     15  H1  U5P d          36.715  -4.826  15.141  0.00  0.00     0.173 HD
ATOM     16  C5  U5P d          39.659  -3.672  14.270  0.00  0.00    -0.002 A 
ATOM     17  O4  U5P d          39.036  -5.295  15.780  0.00  0.00    -0.268 OA
ATOM     18  C6  U5P d          39.214  -2.734  13.344  0.00  0.00    -0.008 A 
ATOM     19  H2  U5P d          40.721  -3.806  14.470  0.00  0.00     0.094 H 
ATOM     20  H3  U5P d          39.936  -2.126  12.802  0.00  0.00     0.112 H 
ENDBRANCH   1  10
BRANCH   2  21
ATOM     21  O2' U5P d          35.277  -0.815  11.576  0.00  0.00    -0.388 OA
ATOM     22  H6  U5P d          35.018  -1.703  11.357  0.00  0.00     0.210 HD
ENDBRANCH   2  21
BRANCH   3  23
ATOM     23  O3' U5P d          35.809   1.574  12.842  0.00  0.00    -0.390 OA
ATOM     24  H9  U5P d          36.051   2.276  13.435  0.00  0.00     0.210 HD
ENDBRANCH   3  23
BRANCH   4  25
ATOM     25  C5' U5P d          38.930   1.677  12.236  0.00  0.00     0.059 C 
ATOM     26  H10 U5P d          38.815   2.580  11.619  0.00  0.00     0.079 H 
ATOM     27  H11 U5P d          39.935   1.255  12.085  0.00  0.00     0.079 H 
BRANCH  25  28
ATOM     28  O5' U5P d          38.732   1.992  13.607  0.00  0.00    -0.280 OA
BRANCH  28  29
ATOM     29  P   U5P d          39.812   1.633  14.744  0.00  0.00     0.422 P 
ATOM     30  O1P U5P d          41.160   1.904  14.106  0.00  0.00    -0.617 OA
ATOM     31  O2P U5P d          39.553   0.177  15.072  0.00  0.00    -0.617 OA
ATOM     32  O3P U5P d          39.416   2.577  15.856  0.00  0.00    -0.617 OA
ENDBRANCH  28  29
ENDBRANCH  25  28
ENDBRANCH   4  25
TORSDOF 6
ENDMDL
