REMARK  6 active torsions:
REMARK  status: ('A' for Active; 'I' for Inactive)
REMARK    1  A    between atoms: C10_10  and  C5_5 
REMARK    2  A    between atoms: C7_7  and  C14_14 
REMARK    3  A    between atoms: C8_8  and  N17_17 
REMARK    4  A    between atoms: N17_17  and  S18_18 
REMARK    5  A    between atoms: S18_18  and  C20_20 
REMARK    6  A    between atoms: C19_19  and  C25_25 
ROOT
ATOM      1  C1  CCT d          12.930  30.871  73.555  0.00  0.00    -0.062 A 
ATOM      2  C2  CCT d          12.904  29.594  72.915  0.00  0.00     0.044 A 
ATOM      3  C3  CCT d          11.675  28.876  72.876  0.00  0.00    -0.062 A 
ATOM      4  C4  CCT d          10.504  29.416  73.455  0.00  0.00    -0.070 A 
ATOM      5  C5  CCT d          10.520  30.692  74.092  0.00  0.00    -0.019 A 
ATOM      6  C6  CCT d          11.753  31.411  74.134  0.00  0.00    -0.070 A 
ATOM      7  C12 CCT d          14.083  29.040  72.318  0.00  0.00     0.099 C 
ATOM      8  N13 CCT d          15.043  28.581  71.811  0.00  0.00    -0.191 NA
ATOM      9  H1  CCT d          13.857  31.432  73.599  0.00  0.00     0.085 H 
ATOM     10  H2  CCT d          11.637  27.904  72.397  0.00  0.00     0.085 H 
ATOM     11  H3  CCT d           9.579  28.852  73.414  0.00  0.00     0.084 H 
ATOM     12  H4  CCT d          11.790  32.382  74.615  0.00  0.00     0.084 H 
ENDROOT
BRANCH   5  13
ATOM     13  C10 CCT d           9.277  31.234  74.669  0.00  0.00     0.018 A 
ATOM     14  C9  CCT d           9.108  32.061  75.768  0.00  0.00    -0.038 A 
ATOM     15  C8  CCT d           7.733  32.392  76.033  0.00  0.00     0.068 A 
ATOM     16  H5  CCT d           9.937  32.426  76.373  0.00  0.00     0.089 H 
ATOM     17  C7  CCT d           6.884  31.797  75.111  0.00  0.00     0.109 A 
ATOM     18  S11 CCT d           7.757  30.874  73.982  0.00  0.00    -0.080 SA
BRANCH  15  19
ATOM     19  N17 CCT d           7.301  33.237  77.137  0.00  0.00    -0.279 N 
ATOM     20  H6  CCT d           6.417  33.069  77.573  0.00  0.00     0.179 HD
BRANCH  19  21
ATOM     21  S18 CCT d           8.282  34.502  77.689  0.00  0.00     0.263 S 
ATOM     22  O26 CCT d           9.481  33.897  78.252  0.00  0.00    -0.200 OA
ATOM     23  O27 CCT d           7.483  35.183  78.686  0.00  0.00    -0.200 OA
BRANCH  21  24
ATOM     24  C20 CCT d           8.733  35.682  76.427  0.00  0.00     0.085 A 
ATOM     25  C19 CCT d           7.775  36.467  75.711  0.00  0.00    -0.039 A 
ATOM     26  C24 CCT d           8.246  37.387  74.720  0.00  0.00    -0.076 A 
ATOM     27  C23 CCT d           9.635  37.525  74.450  0.00  0.00    -0.082 A 
ATOM     28  H10 CCT d           7.533  37.987  74.167  0.00  0.00     0.084 H 
ATOM     29  C22 CCT d          10.578  36.740  75.166  0.00  0.00    -0.081 A 
ATOM     30  H9  CCT d           9.974  38.229  73.698  0.00  0.00     0.083 H 
ATOM     31  C21 CCT d          10.125  35.830  76.146  0.00  0.00    -0.060 A 
ATOM     32  H8  CCT d          11.638  36.839  74.961  0.00  0.00     0.083 H 
ATOM     33  H7  CCT d          10.846  35.234  76.694  0.00  0.00     0.085 H 
BRANCH  25  34
ATOM     34  C25 CCT d           6.286  36.367  75.952  0.00  0.00    -0.050 C 
ATOM     35  H11 CCT d           6.091  35.622  76.737  0.00  0.00     0.033 H 
ATOM     36  H12 CCT d           5.784  36.060  75.023  0.00  0.00     0.033 H 
ATOM     37  H13 CCT d           5.900  37.346  76.272  0.00  0.00     0.033 H 
ENDBRANCH  25  34
ENDBRANCH  21  24
ENDBRANCH  19  21
ENDBRANCH  15  19
BRANCH  17  38
ATOM     38  C14 CCT d           5.402  31.944  75.107  0.00  0.00     0.219 C 
ATOM     39  O15 CCT d           4.768  31.230  74.313  0.00  0.00    -0.643 OA
ATOM     40  O16 CCT d           4.868  32.787  75.871  0.00  0.00    -0.643 OA
ENDBRANCH  17  38
ENDBRANCH   5  13
TORSDOF 6
