MODEL 1
REMARK VINA RESULT:     -10.8      0.000      0.000
REMARK  17 active torsions:
REMARK  status: ('A' for Active; 'I' for Inactive)
REMARK    1  A    between atoms: C_1  and  C2_4 
REMARK    2  A    between atoms: CA_14  and  N_13 
REMARK    3  A    between atoms: C1_15  and  CA_14 
REMARK    4  A    between atoms: CA_14  and  CB_17 
REMARK       I    between atoms: N2_24  and  C1_15 
REMARK    5  A    between atoms: CB_17  and  CG_18 
REMARK    6  A    between atoms: C9_21  and  O2_22 
REMARK    7  A    between atoms: CA1_23  and  C9_21 
REMARK    8  A    between atoms: C9_21  and  CM_33 
REMARK    9  A    between atoms: CA1_23  and  N2_24 
REMARK   10  A    between atoms: CA1_23  and  CB1_25 
REMARK   11  A    between atoms: CB1_25  and  CG1_26 
REMARK   12  A    between atoms: CM_33  and  N11_32 
REMARK   13  A    between atoms: C21_34  and  CC_35 
REMARK       I    between atoms: CC_35  and  N3_45 
REMARK   14  A    between atoms: N3_45  and  CD_46 
REMARK   15  A    between atoms: CD_46  and  C11_47 
REMARK   16  A    between atoms: CD_46  and  C22_48 
REMARK   17  A    between atoms: CD_46  and  C32_49 
ROOT
ATOM      1  C9  ROC d           0.190   5.776   9.241  0.00  0.00     0.078 C 
ATOM      2  H13 ROC d          -0.294   6.180   8.339  0.00  0.00     0.088 H 
ENDROOT
BRANCH   1   3
ATOM      3  O2  ROC d           1.320   5.033   8.891  0.00  0.00    -0.392 OA
ATOM      4  H14 ROC d           1.132   4.108   8.993  0.00  0.00     0.210 HD
ENDBRANCH   1   3
BRANCH   1   5
ATOM      5  CA1 ROC d          -0.781   4.845   9.984  0.00  0.00     0.041 C 
ATOM      6  H15 ROC d          -1.416   5.492  10.607  0.00  0.00     0.076 H 
BRANCH   5   7
ATOM      7  N2  ROC d          -1.674   4.172   9.013  0.00  0.00    -0.363 N 
ATOM      8  C1  ROC d          -2.240   4.958   8.021  0.00  0.00     0.175 C 
ATOM      9  O1  ROC d          -2.082   6.227   7.632  0.00  0.00    -0.175 OA
ATOM     10  H16 ROC d          -1.862   3.191   9.071  0.00  0.00     0.162 HD
BRANCH   8  11
ATOM     11  CA  ROC d          -3.262   4.181   7.188  0.00  0.00     0.083 C 
ATOM     12  H8  ROC d          -2.730   3.791   6.308  0.00  0.00     0.086 H 
BRANCH  11  13
ATOM     13  N   ROC d          -3.757   3.052   7.936  0.00  0.00    -0.354 N 
ATOM     14  C   ROC d          -3.985   1.921   7.218  0.00  0.00     0.204 C 
ATOM     15  O   ROC d          -3.762   1.526   5.969  0.00  0.00    -0.170 OA
ATOM     16  H7  ROC d          -3.922   3.098   8.922  0.00  0.00     0.162 HD
BRANCH  14  17
ATOM     17  C2  ROC d          -4.710   0.876   8.071  0.00  0.00     0.111 A 
ATOM     18  N1  ROC d          -5.211   1.252   9.291  0.00  0.00    -0.244 NA
ATOM     19  C8A ROC d          -5.860   0.335  10.102  0.00  0.00     0.068 A 
ATOM     20  C8  ROC d          -6.348   0.743  11.326  0.00  0.00    -0.054 A 
ATOM     21  C4A ROC d          -6.011  -0.983   9.674  0.00  0.00    -0.007 A 
ATOM     22  C7  ROC d          -7.008  -0.192  12.159  0.00  0.00    -0.081 A 
ATOM     23  H6  ROC d          -6.226   1.770  11.648  0.00  0.00     0.087 H 
ATOM     24  C6  ROC d          -7.162  -1.497  11.737  0.00  0.00    -0.082 A 
ATOM     25  H5  ROC d          -7.391   0.116  13.125  0.00  0.00     0.083 H 
ATOM     26  C5  ROC d          -6.670  -1.904  10.503  0.00  0.00    -0.071 A 
ATOM     27  H4  ROC d          -7.672  -2.211  12.375  0.00  0.00     0.083 H 
ATOM     28  H3  ROC d          -6.795  -2.931  10.181  0.00  0.00     0.084 H 
ATOM     29  C4  ROC d          -5.512  -1.370   8.441  0.00  0.00    -0.068 A 
ATOM     30  C3  ROC d          -4.858  -0.447   7.636  0.00  0.00    -0.050 A 
ATOM     31  H2  ROC d          -5.632  -2.394   8.104  0.00  0.00     0.085 H 
ATOM     32  H1  ROC d          -4.463  -0.750   6.673  0.00  0.00     0.087 H 
ENDBRANCH  14  17
ENDBRANCH  11  13
BRANCH  11  33
ATOM     33  CB  ROC d          -4.424   5.037   6.667  0.00  0.00     0.023 C 
ATOM     34  H9  ROC d          -4.372   6.031   7.137  0.00  0.00     0.049 H 
ATOM     35  H10 ROC d          -5.373   4.552   6.940  0.00  0.00     0.049 H 
BRANCH  33  36
ATOM     36  CG  ROC d          -4.376   5.210   5.131  0.00  0.00     0.151 C 
ATOM     37  OD1 ROC d          -3.977   6.449   4.751  0.00  0.00    -0.178 OA
ATOM     38  ND2 ROC d          -4.757   4.053   4.517  0.00  0.00    -0.381 N 
ATOM     39  H11 ROC d          -4.779   4.000   3.519  0.00  0.00     0.158 HD
ATOM     40  H12 ROC d          -5.015   3.257   5.066  0.00  0.00     0.158 HD
ENDBRANCH  33  36
ENDBRANCH  11  33
ENDBRANCH   8  11
ENDBRANCH   5   7
BRANCH   5  41
ATOM     41  CB1 ROC d          -0.115   3.862  10.942  0.00  0.00    -0.020 C 
ATOM     42  H17 ROC d          -0.095   4.300  11.951  0.00  0.00     0.043 H 
ATOM     43  H18 ROC d           0.915   3.673  10.604  0.00  0.00     0.043 H 
BRANCH  41  44
ATOM     44  CG1 ROC d          -0.883   2.522  10.990  0.00  0.00    -0.056 A 
ATOM     45  CD1 ROC d          -0.457   1.423  10.270  0.00  0.00    -0.077 A 
ATOM     46  CE1 ROC d          -1.182   0.211  10.325  0.00  0.00    -0.082 A 
ATOM     47  H19 ROC d           0.437   1.490   9.659  0.00  0.00     0.084 H 
ATOM     48  CZ  ROC d          -2.328   0.116  11.107  0.00  0.00    -0.083 A 
ATOM     49  H21 ROC d          -0.844  -0.648   9.757  0.00  0.00     0.083 H 
ATOM     50  CE2 ROC d          -2.758   1.213  11.827  0.00  0.00    -0.082 A 
ATOM     51  H23 ROC d          -2.881  -0.816  11.151  0.00  0.00     0.083 H 
ATOM     52  CD2 ROC d          -2.037   2.421  11.769  0.00  0.00    -0.077 A 
ATOM     53  H22 ROC d          -3.651   1.144  12.438  0.00  0.00     0.083 H 
ATOM     54  H20 ROC d          -2.381   3.280  12.333  0.00  0.00     0.084 H 
ENDBRANCH  41  44
ENDBRANCH   5  41
ENDBRANCH   1   5
BRANCH   1  55
ATOM     55  CM  ROC d           0.609   6.901  10.141  0.00  0.00     0.110 C 
ATOM     56  H25 ROC d           1.021   6.469  11.065  0.00  0.00     0.080 H 
ATOM     57  H26 ROC d          -0.282   7.501  10.382  0.00  0.00     0.080 H 
BRANCH  55  58
ATOM     58  N11 ROC d           1.628   7.801   9.555  0.00  0.00    -0.057 N 
ATOM     59  C21 ROC d           2.796   8.047  10.449  0.00  0.00     0.167 C 
ATOM     60  C31 ROC d           3.744   9.030   9.786  0.00  0.00    -0.027 C 
ATOM     61  H27 ROC d           3.323   7.085  10.534  0.00  0.00     0.098 H 
ATOM     62  C3A ROC d           3.138  10.310   9.264  0.00  0.00    -0.047 C 
ATOM     63  H28 ROC d           4.218   8.516   8.937  0.00  0.00     0.037 H 
ATOM     64  H29 ROC d           4.512   9.302  10.526  0.00  0.00     0.037 H 
ATOM     65  C41 ROC d           2.828  11.293  10.412  0.00  0.00    -0.061 C 
ATOM     66  C7A ROC d           1.943  10.014   8.411  0.00  0.00    -0.027 C 
ATOM     67  H30 ROC d           3.887  10.793   8.619  0.00  0.00     0.040 H 
ATOM     68  C51 ROC d           2.188  12.545   9.956  0.00  0.00    -0.065 C 
ATOM     69  H31 ROC d           3.771  11.547  10.918  0.00  0.00     0.033 H 
ATOM     70  H32 ROC d           2.153  10.796  11.124  0.00  0.00     0.033 H 
ATOM     71  C61 ROC d           0.947  12.260   9.126  0.00  0.00    -0.065 C 
ATOM     72  H33 ROC d           2.905  13.111   9.344  0.00  0.00     0.033 H 
ATOM     73  H34 ROC d           1.902  13.142  10.833  0.00  0.00     0.033 H 
ATOM     74  C71 ROC d           1.217  11.270   7.989  0.00  0.00    -0.060 C 
ATOM     75  H35 ROC d           0.588  13.205   8.693  0.00  0.00     0.033 H 
ATOM     76  H36 ROC d           0.172  11.840   9.783  0.00  0.00     0.033 H 
ATOM     77  H37 ROC d           1.826  11.779   7.227  0.00  0.00     0.033 H 
ATOM     78  H38 ROC d           0.251  10.978   7.552  0.00  0.00     0.033 H 
ATOM     79  C81 ROC d           0.975   9.039   9.109  0.00  0.00     0.088 C 
ATOM     80  H39 ROC d           2.308   9.521   7.497  0.00  0.00     0.043 H 
ATOM     81  H40 ROC d           0.542   9.543   9.986  0.00  0.00     0.076 H 
ATOM     82  H41 ROC d           0.172   8.778   8.404  0.00  0.00     0.076 H 
ATOM     83  H24 ROC d           1.991   7.342   8.733  0.00  0.00     0.281 HD
BRANCH  59  84
ATOM     84  CC  ROC d           2.495   8.489  11.873  0.00  0.00     0.183 C 
ATOM     85  O3  ROC d           1.281   8.946  12.105  0.00  0.00    -0.175 OA
ATOM     86  N3  ROC d           3.598   8.320  12.708  0.00  0.00    -0.362 N 
ATOM     87  H42 ROC d           4.427   7.895  12.346  0.00  0.00     0.162 HD
BRANCH  86  88
ATOM     88  CD  ROC d           3.563   8.766  14.142  0.00  0.00     0.021 C 
BRANCH  88  89
ATOM     89  C11 ROC d           4.911   8.456  14.701  0.00  0.00    -0.054 C 
ATOM     90  H43 ROC d           5.203   9.242  15.411  0.00  0.00     0.030 H 
ATOM     91  H44 ROC d           5.644   8.409  13.882  0.00  0.00     0.030 H 
ATOM     92  H45 ROC d           4.878   7.487  15.220  0.00  0.00     0.030 H 
ENDBRANCH  88  89
BRANCH  88  93
ATOM     93  C22 ROC d           2.507   8.024  14.912  0.00  0.00    -0.054 C 
ATOM     94  H46 ROC d           1.913   7.408  14.220  0.00  0.00     0.030 H 
ATOM     95  H47 ROC d           1.849   8.744  15.420  0.00  0.00     0.030 H 
ATOM     96  H48 ROC d           2.987   7.375  15.660  0.00  0.00     0.030 H 
ENDBRANCH  88  93
BRANCH  88  97
ATOM     97  C32 ROC d           3.306  10.257  14.245  0.00  0.00    -0.054 C 
ATOM     98  H49 ROC d           2.787  10.475  15.191  0.00  0.00     0.030 H 
ATOM     99  H50 ROC d           2.680  10.581  13.401  0.00  0.00     0.030 H 
ATOM    100  H51 ROC d           4.264  10.798  14.219  0.00  0.00     0.030 H 
ENDBRANCH  88  97
ENDBRANCH  86  88
ENDBRANCH  59  84
ENDBRANCH  55  58
ENDBRANCH   1  55
TORSDOF 17
ENDMDL
MODEL 2
REMARK VINA RESULT:      -9.7      1.605      2.240
REMARK  17 active torsions:
REMARK  status: ('A' for Active; 'I' for Inactive)
REMARK    1  A    between atoms: C_1  and  C2_4 
REMARK    2  A    between atoms: CA_14  and  N_13 
REMARK    3  A    between atoms: C1_15  and  CA_14 
REMARK    4  A    between atoms: CA_14  and  CB_17 
REMARK       I    between atoms: N2_24  and  C1_15 
REMARK    5  A    between atoms: CB_17  and  CG_18 
REMARK    6  A    between atoms: C9_21  and  O2_22 
REMARK    7  A    between atoms: CA1_23  and  C9_21 
REMARK    8  A    between atoms: C9_21  and  CM_33 
REMARK    9  A    between atoms: CA1_23  and  N2_24 
REMARK   10  A    between atoms: CA1_23  and  CB1_25 
REMARK   11  A    between atoms: CB1_25  and  CG1_26 
REMARK   12  A    between atoms: CM_33  and  N11_32 
REMARK   13  A    between atoms: C21_34  and  CC_35 
REMARK       I    between atoms: CC_35  and  N3_45 
REMARK   14  A    between atoms: N3_45  and  CD_46 
REMARK   15  A    between atoms: CD_46  and  C11_47 
REMARK   16  A    between atoms: CD_46  and  C22_48 
REMARK   17  A    between atoms: CD_46  and  C32_49 
ROOT
ATOM      1  C9  ROC d           1.051   5.498   9.423  0.00  0.00     0.078 C 
ATOM      2  H13 ROC d           0.995   5.702   8.344  0.00  0.00     0.088 H 
ENDROOT
BRANCH   1   3
ATOM      3  O2  ROC d           2.216   4.786   9.720  0.00  0.00    -0.392 OA
ATOM      4  H14 ROC d           2.022   4.123  10.372  0.00  0.00     0.210 HD
ENDBRANCH   1   3
BRANCH   1   5
ATOM      5  CA1 ROC d          -0.151   4.647   9.859  0.00  0.00     0.041 C 
ATOM      6  H15 ROC d          -0.691   5.236  10.615  0.00  0.00     0.076 H 
BRANCH   5   7
ATOM      7  N2  ROC d          -1.076   4.460   8.718  0.00  0.00    -0.363 N 
ATOM      8  C1  ROC d          -1.968   5.488   8.450  0.00  0.00     0.175 C 
ATOM      9  O1  ROC d          -2.135   6.726   8.925  0.00  0.00    -0.175 OA
ATOM     10  H16 ROC d          -1.058   3.628   8.164  0.00  0.00     0.162 HD
BRANCH   8  11
ATOM     11  CA  ROC d          -2.969   5.106   7.358  0.00  0.00     0.083 C 
ATOM     12  H8  ROC d          -2.387   4.880   6.452  0.00  0.00     0.086 H 
BRANCH  11  13
ATOM     13  N   ROC d          -3.681   3.909   7.731  0.00  0.00    -0.354 N 
ATOM     14  C   ROC d          -3.998   3.068   6.713  0.00  0.00     0.204 C 
ATOM     15  O   ROC d          -3.721   2.997   5.415  0.00  0.00    -0.170 OA
ATOM     16  H7  ROC d          -3.925   3.711   8.681  0.00  0.00     0.162 HD
BRANCH  14  17
ATOM     17  C2  ROC d          -4.934   1.958   7.200  0.00  0.00     0.111 A 
ATOM     18  N1  ROC d          -5.324   0.987   6.314  0.00  0.00    -0.244 NA
ATOM     19  C8A ROC d          -6.183  -0.027   6.709  0.00  0.00     0.068 A 
ATOM     20  C8  ROC d          -6.561  -0.986   5.793  0.00  0.00    -0.054 A 
ATOM     21  C4A ROC d          -6.654  -0.064   8.021  0.00  0.00    -0.007 A 
ATOM     22  C7  ROC d          -7.441  -2.020   6.191  0.00  0.00    -0.081 A 
ATOM     23  H6  ROC d          -6.187  -0.948   4.776  0.00  0.00     0.087 H 
ATOM     24  C6  ROC d          -7.906  -2.062   7.490  0.00  0.00    -0.082 A 
ATOM     25  H5  ROC d          -7.749  -2.777   5.478  0.00  0.00     0.083 H 
ATOM     26  C5  ROC d          -7.523  -1.094   8.410  0.00  0.00    -0.071 A 
ATOM     27  H4  ROC d          -8.577  -2.858   7.795  0.00  0.00     0.083 H 
ATOM     28  H3  ROC d          -7.895  -1.136   9.427  0.00  0.00     0.084 H 
ATOM     29  C4  ROC d          -6.261   0.911   8.923  0.00  0.00    -0.068 A 
ATOM     30  C3  ROC d          -5.405   1.927   8.519  0.00  0.00    -0.050 A 
ATOM     31  H2  ROC d          -6.623   0.881   9.945  0.00  0.00     0.085 H 
ATOM     32  H1  ROC d          -5.101   2.693   9.223  0.00  0.00     0.087 H 
ENDBRANCH  14  17
ENDBRANCH  11  13
BRANCH  11  33
ATOM     33  CB  ROC d          -3.950   6.228   6.990  0.00  0.00     0.023 C 
ATOM     34  H9  ROC d          -3.836   7.050   7.713  0.00  0.00     0.049 H 
ATOM     35  H10 ROC d          -4.976   5.834   7.042  0.00  0.00     0.049 H 
BRANCH  33  36
ATOM     36  CG  ROC d          -3.698   6.777   5.566  0.00  0.00     0.151 C 
ATOM     37  OD1 ROC d          -2.972   7.922   5.563  0.00  0.00    -0.178 OA
ATOM     38  ND2 ROC d          -4.282   5.963   4.640  0.00  0.00    -0.381 N 
ATOM     39  H11 ROC d          -4.210   6.181   3.667  0.00  0.00     0.158 HD
ATOM     40  H12 ROC d          -4.783   5.149   4.935  0.00  0.00     0.158 HD
ENDBRANCH  33  36
ENDBRANCH  11  33
ENDBRANCH   8  11
ENDBRANCH   5   7
BRANCH   5  41
ATOM     41  CB1 ROC d           0.212   3.329  10.537  0.00  0.00    -0.020 C 
ATOM     42  H17 ROC d           0.703   3.542  11.498  0.00  0.00     0.043 H 
ATOM     43  H18 ROC d           0.903   2.770   9.888  0.00  0.00     0.043 H 
BRANCH  41  44
ATOM     44  CG1 ROC d          -1.045   2.468  10.794  0.00  0.00    -0.056 A 
ATOM     45  CD1 ROC d          -2.178   3.008  11.373  0.00  0.00    -0.077 A 
ATOM     46  CE1 ROC d          -3.313   2.197  11.604  0.00  0.00    -0.082 A 
ATOM     47  H19 ROC d          -2.197   4.056  11.651  0.00  0.00     0.084 H 
ATOM     48  CZ  ROC d          -3.298   0.853  11.250  0.00  0.00    -0.083 A 
ATOM     49  H21 ROC d          -4.199   2.625  12.060  0.00  0.00     0.083 H 
ATOM     50  CE2 ROC d          -2.166   0.310  10.672  0.00  0.00    -0.082 A 
ATOM     51  H23 ROC d          -4.171   0.234  11.425  0.00  0.00     0.083 H 
ATOM     52  CD2 ROC d          -1.035   1.117  10.445  0.00  0.00    -0.077 A 
ATOM     53  H22 ROC d          -2.149  -0.737  10.394  0.00  0.00     0.083 H 
ATOM     54  H20 ROC d          -0.149   0.685   9.995  0.00  0.00     0.084 H 
ENDBRANCH  41  44
ENDBRANCH   5  41
ENDBRANCH   1   5
BRANCH   1  55
ATOM     55  CM  ROC d           1.067   6.791  10.186  0.00  0.00     0.110 C 
ATOM     56  H25 ROC d           1.632   6.636  11.117  0.00  0.00     0.080 H 
ATOM     57  H26 ROC d           0.028   7.061  10.428  0.00  0.00     0.080 H 
BRANCH  55  58
ATOM     58  N11 ROC d           1.681   7.921   9.453  0.00  0.00    -0.057 N 
ATOM     59  C21 ROC d           2.904   8.467  10.108  0.00  0.00     0.167 C 
ATOM     60  C31 ROC d           3.414   9.659   9.319  0.00  0.00    -0.027 C 
ATOM     61  H27 ROC d           3.665   7.675  10.041  0.00  0.00     0.098 H 
ATOM     62  C3A ROC d           2.408  10.735   8.990  0.00  0.00    -0.047 C 
ATOM     63  H28 ROC d           3.820   9.281   8.369  0.00  0.00     0.037 H 
ATOM     64  H29 ROC d           4.220  10.125   9.904  0.00  0.00     0.037 H 
ATOM     65  C41 ROC d           2.098  11.609  10.223  0.00  0.00    -0.061 C 
ATOM     66  C7A ROC d           1.179  10.134   8.377  0.00  0.00    -0.027 C 
ATOM     67  H30 ROC d           2.861  11.393   8.233  0.00  0.00     0.040 H 
ATOM     68  C51 ROC d           1.080  12.650   9.963  0.00  0.00    -0.065 C 
ATOM     69  H31 ROC d           3.026  12.103  10.543  0.00  0.00     0.033 H 
ATOM     70  H32 ROC d           1.732  10.957  11.030  0.00  0.00     0.033 H 
ATOM     71  C61 ROC d          -0.189  12.048   9.383  0.00  0.00    -0.065 C 
ATOM     72  H33 ROC d           1.488  13.380   9.249  0.00  0.00     0.033 H 
ATOM     73  H34 ROC d           0.836  13.157  10.908  0.00  0.00     0.033 H 
ATOM     74  C71 ROC d           0.086  11.156   8.169  0.00  0.00    -0.060 C 
ATOM     75  H35 ROC d          -0.859  12.865   9.076  0.00  0.00     0.033 H 
ATOM     76  H36 ROC d          -0.681  11.444  10.160  0.00  0.00     0.033 H 
ATOM     77  H37 ROC d           0.376  11.802   7.327  0.00  0.00     0.033 H 
ATOM     78  H38 ROC d          -0.841  10.621   7.919  0.00  0.00     0.033 H 
ATOM     79  C81 ROC d           0.656   8.945   9.206  0.00  0.00     0.088 C 
ATOM     80  H39 ROC d           1.464   9.748   7.387  0.00  0.00     0.043 H 
ATOM     81  H40 ROC d           0.297   9.324  10.175  0.00  0.00     0.076 H 
ATOM     82  H41 ROC d          -0.180   8.480   8.662  0.00  0.00     0.076 H 
ATOM     83  H24 ROC d           1.973   7.568   8.555  0.00  0.00     0.281 HD
BRANCH  59  84
ATOM     84  CC  ROC d           2.797   8.822  11.584  0.00  0.00     0.183 C 
ATOM     85  O3  ROC d           3.848   8.554  12.332  0.00  0.00    -0.175 OA
ATOM     86  N3  ROC d           1.564   9.392  11.889  0.00  0.00    -0.362 N 
ATOM     87  H42 ROC d           0.909   9.568  11.153  0.00  0.00     0.162 HD
BRANCH  86  88
ATOM     88  CD  ROC d           1.199   9.748  13.301  0.00  0.00     0.021 C 
BRANCH  88  89
ATOM     89  C11 ROC d           1.154   8.459  14.051  0.00  0.00    -0.054 C 
ATOM     90  H43 ROC d           0.747   7.671  13.400  0.00  0.00     0.030 H 
ATOM     91  H44 ROC d           0.512   8.572  14.937  0.00  0.00     0.030 H 
ATOM     92  H45 ROC d           2.171   8.183  14.367  0.00  0.00     0.030 H 
ENDBRANCH  88  89
BRANCH  88  93
ATOM     93  C22 ROC d          -0.146  10.418  13.359  0.00  0.00    -0.054 C 
ATOM     94  H46 ROC d          -0.225  11.153  12.544  0.00  0.00     0.030 H 
ATOM     95  H47 ROC d          -0.260  10.929  14.326  0.00  0.00     0.030 H 
ATOM     96  H48 ROC d          -0.937   9.662  13.248  0.00  0.00     0.030 H 
ENDBRANCH  88  93
BRANCH  88  97
ATOM     97  C32 ROC d           2.241  10.657  13.924  0.00  0.00    -0.054 C 
ATOM     98  H49 ROC d           2.908  10.064  14.567  0.00  0.00     0.030 H 
ATOM     99  H50 ROC d           1.741  11.429  14.527  0.00  0.00     0.030 H 
ATOM    100  H51 ROC d           2.830  11.138  13.129  0.00  0.00     0.030 H 
ENDBRANCH  88  97
ENDBRANCH  86  88
ENDBRANCH  59  84
ENDBRANCH  55  58
ENDBRANCH   1  55
TORSDOF 17
ENDMDL
MODEL 3
REMARK VINA RESULT:      -9.6      2.173     11.149
REMARK  17 active torsions:
REMARK  status: ('A' for Active; 'I' for Inactive)
REMARK    1  A    between atoms: C_1  and  C2_4 
REMARK    2  A    between atoms: CA_14  and  N_13 
REMARK    3  A    between atoms: C1_15  and  CA_14 
REMARK    4  A    between atoms: CA_14  and  CB_17 
REMARK       I    between atoms: N2_24  and  C1_15 
REMARK    5  A    between atoms: CB_17  and  CG_18 
REMARK    6  A    between atoms: C9_21  and  O2_22 
REMARK    7  A    between atoms: CA1_23  and  C9_21 
REMARK    8  A    between atoms: C9_21  and  CM_33 
REMARK    9  A    between atoms: CA1_23  and  N2_24 
REMARK   10  A    between atoms: CA1_23  and  CB1_25 
REMARK   11  A    between atoms: CB1_25  and  CG1_26 
REMARK   12  A    between atoms: CM_33  and  N11_32 
REMARK   13  A    between atoms: C21_34  and  CC_35 
REMARK       I    between atoms: CC_35  and  N3_45 
REMARK   14  A    between atoms: N3_45  and  CD_46 
REMARK   15  A    between atoms: CD_46  and  C11_47 
REMARK   16  A    between atoms: CD_46  and  C22_48 
REMARK   17  A    between atoms: CD_46  and  C32_49 
ROOT
ATOM      1  C9  ROC d          -4.132   3.348   6.717  0.00  0.00     0.078 C 
ATOM      2  H13 ROC d          -3.362   2.564   6.731  0.00  0.00     0.088 H 
ENDROOT
BRANCH   1   3
ATOM      3  O2  ROC d          -4.871   3.278   5.533  0.00  0.00    -0.392 OA
ATOM      4  H14 ROC d          -4.280   3.301   4.791  0.00  0.00     0.210 HD
ENDBRANCH   1   3
BRANCH   1   5
ATOM      5  CA1 ROC d          -3.472   4.734   6.783  0.00  0.00     0.041 C 
ATOM      6  H15 ROC d          -4.123   5.359   7.412  0.00  0.00     0.076 H 
BRANCH   5   7
ATOM      7  N2  ROC d          -2.168   4.637   7.477  0.00  0.00    -0.363 N 
ATOM      8  C1  ROC d          -2.042   5.303   8.687  0.00  0.00     0.175 C 
ATOM      9  O1  ROC d          -2.892   5.957   9.484  0.00  0.00    -0.175 OA
ATOM     10  H16 ROC d          -1.409   4.113   7.090  0.00  0.00     0.162 HD
BRANCH   8  11
ATOM     11  CA  ROC d          -0.608   5.258   9.219  0.00  0.00     0.083 C 
ATOM     12  H8  ROC d          -0.044   4.575   8.567  0.00  0.00     0.086 H 
BRANCH  11  13
ATOM     13  N   ROC d          -0.000   6.561   9.119  0.00  0.00    -0.354 N 
ATOM     14  C   ROC d           1.244   6.676   9.653  0.00  0.00     0.204 C 
ATOM     15  O   ROC d           2.137   5.840  10.173  0.00  0.00    -0.170 OA
ATOM     16  H7  ROC d          -0.465   7.333   8.684  0.00  0.00     0.162 HD
BRANCH  14  17
ATOM     17  C2  ROC d           1.686   8.142   9.683  0.00  0.00     0.111 A 
ATOM     18  N1  ROC d           0.729   9.121   9.619  0.00  0.00    -0.244 NA
ATOM     19  C8A ROC d           1.086  10.460   9.628  0.00  0.00     0.068 A 
ATOM     20  C8  ROC d           0.101  11.423   9.557  0.00  0.00    -0.054 A 
ATOM     21  C4A ROC d           2.432  10.818   9.707  0.00  0.00    -0.007 A 
ATOM     22  C7  ROC d           0.462  12.791   9.562  0.00  0.00    -0.081 A 
ATOM     23  H6  ROC d          -0.942  11.133   9.498  0.00  0.00     0.087 H 
ATOM     24  C6  ROC d           1.792  13.149   9.644  0.00  0.00    -0.082 A 
ATOM     25  H5  ROC d          -0.304  13.556   9.502  0.00  0.00     0.083 H 
ATOM     26  C5  ROC d           2.783  12.177   9.716  0.00  0.00    -0.071 A 
ATOM     27  H4  ROC d           2.067  14.198   9.652  0.00  0.00     0.083 H 
ATOM     28  H3  ROC d           3.824  12.468   9.778  0.00  0.00     0.084 H 
ATOM     29  C4  ROC d           3.405   9.834   9.777  0.00  0.00    -0.068 A 
ATOM     30  C3  ROC d           3.040   8.495   9.762  0.00  0.00    -0.050 A 
ATOM     31  H2  ROC d           4.451  10.110   9.843  0.00  0.00     0.085 H 
ATOM     32  H1  ROC d           3.800   7.724   9.811  0.00  0.00     0.087 H 
ENDBRANCH  14  17
ENDBRANCH  11  13
BRANCH  11  33
ATOM     33  CB  ROC d          -0.490   4.713  10.649  0.00  0.00     0.023 C 
ATOM     34  H9  ROC d          -1.147   5.300  11.309  0.00  0.00     0.049 H 
ATOM     35  H10 ROC d           0.553   4.817  10.984  0.00  0.00     0.049 H 
BRANCH  33  36
ATOM     36  CG  ROC d          -0.895   3.223  10.738  0.00  0.00     0.151 C 
ATOM     37  OD1 ROC d          -2.146   3.046  11.232  0.00  0.00    -0.178 OA
ATOM     38  ND2 ROC d           0.124   2.432  10.295  0.00  0.00    -0.381 N 
ATOM     39  H11 ROC d           0.018   1.438  10.289  0.00  0.00     0.158 HD
ATOM     40  H12 ROC d           0.976   2.847   9.977  0.00  0.00     0.158 HD
ENDBRANCH  33  36
ENDBRANCH  11  33
ENDBRANCH   8  11
ENDBRANCH   5   7
BRANCH   5  41
ATOM     41  CB1 ROC d          -3.367   5.456   5.443  0.00  0.00    -0.020 C 
ATOM     42  H17 ROC d          -4.014   4.951   4.710  0.00  0.00     0.043 H 
ATOM     43  H18 ROC d          -2.323   5.419   5.096  0.00  0.00     0.043 H 
BRANCH  41  44
ATOM     44  CG1 ROC d          -3.805   6.932   5.568  0.00  0.00    -0.056 A 
ATOM     45  CD1 ROC d          -5.134   7.276   5.729  0.00  0.00    -0.077 A 
ATOM     46  CE1 ROC d          -5.510   8.635   5.833  0.00  0.00    -0.082 A 
ATOM     47  H19 ROC d          -5.891   6.501   5.775  0.00  0.00     0.084 H 
ATOM     48  CZ  ROC d          -4.545   9.634   5.777  0.00  0.00    -0.083 A 
ATOM     49  H21 ROC d          -6.553   8.898   5.958  0.00  0.00     0.083 H 
ATOM     50  CE2 ROC d          -3.216   9.294   5.615  0.00  0.00    -0.082 A 
ATOM     51  H23 ROC d          -4.835  10.675   5.861  0.00  0.00     0.083 H 
ATOM     52  CD2 ROC d          -2.843   7.941   5.507  0.00  0.00    -0.077 A 
ATOM     53  H22 ROC d          -2.460  10.070   5.570  0.00  0.00     0.083 H 
ATOM     54  H20 ROC d          -1.799   7.680   5.376  0.00  0.00     0.084 H 
ENDBRANCH  41  44
ENDBRANCH   5  41
ENDBRANCH   1   5
BRANCH   1  55
ATOM     55  CM  ROC d          -5.063   3.169   7.880  0.00  0.00     0.110 C 
ATOM     56  H25 ROC d          -5.974   2.668   7.520  0.00  0.00     0.080 H 
ATOM     57  H26 ROC d          -5.322   4.164   8.271  0.00  0.00     0.080 H 
BRANCH  55  58
ATOM     58  N11 ROC d          -4.501   2.367   8.990  0.00  0.00    -0.057 N 
ATOM     59  C21 ROC d          -3.739   1.167   8.537  0.00  0.00     0.167 C 
ATOM     60  C31 ROC d          -3.266   0.380   9.746  0.00  0.00    -0.027 C 
ATOM     61  H27 ROC d          -2.846   1.550   8.021  0.00  0.00     0.098 H 
ATOM     62  C3A ROC d          -4.306   0.043  10.786  0.00  0.00    -0.047 C 
ATOM     63  H28 ROC d          -2.479   0.970  10.240  0.00  0.00     0.037 H 
ATOM     64  H29 ROC d          -2.840  -0.566   9.381  0.00  0.00     0.037 H 
ATOM     65  C41 ROC d          -5.215  -1.111  10.317  0.00  0.00    -0.061 C 
ATOM     66  C7A ROC d          -5.075   1.270  11.174  0.00  0.00    -0.027 C 
ATOM     67  H30 ROC d          -3.776  -0.307  11.684  0.00  0.00     0.040 H 
ATOM     68  C51 ROC d          -6.282  -1.448  11.283  0.00  0.00    -0.065 C 
ATOM     69  H31 ROC d          -4.592  -2.004  10.161  0.00  0.00     0.033 H 
ATOM     70  H32 ROC d          -5.684  -0.822   9.365  0.00  0.00     0.033 H 
ATOM     71  C61 ROC d          -7.099  -0.221  11.652  0.00  0.00    -0.065 C 
ATOM     72  H33 ROC d          -5.824  -1.859  12.194  0.00  0.00     0.033 H 
ATOM     73  H34 ROC d          -6.948  -2.200  10.835  0.00  0.00     0.033 H 
ATOM     74  C71 ROC d          -6.225   0.953  12.102  0.00  0.00    -0.060 C 
ATOM     75  H35 ROC d          -7.784  -0.486  12.471  0.00  0.00     0.033 H 
ATOM     76  H36 ROC d          -7.683   0.091  10.774  0.00  0.00     0.033 H 
ATOM     77  H37 ROC d          -5.810   0.712  13.093  0.00  0.00     0.033 H 
ATOM     78  H38 ROC d          -6.861   1.846  12.178  0.00  0.00     0.033 H 
ATOM     79  C81 ROC d          -5.575   2.041   9.938  0.00  0.00     0.088 C 
ATOM     80  H39 ROC d          -4.383   1.930  11.720  0.00  0.00     0.043 H 
ATOM     81  H40 ROC d          -6.325   1.424   9.420  0.00  0.00     0.076 H 
ATOM     82  H41 ROC d          -6.041   2.979  10.275  0.00  0.00     0.076 H 
ATOM     83  H24 ROC d          -3.842   2.955   9.476  0.00  0.00     0.281 HD
BRANCH  59  84
ATOM     84  CC  ROC d          -4.432   0.242   7.548  0.00  0.00     0.183 C 
ATOM     85  O3  ROC d          -3.653  -0.423   6.719  0.00  0.00    -0.175 OA
ATOM     86  N3  ROC d          -5.815   0.262   7.706  0.00  0.00    -0.362 N 
ATOM     87  H42 ROC d          -6.218   0.801   8.446  0.00  0.00     0.162 HD
BRANCH  86  88
ATOM     88  CD  ROC d          -6.715  -0.511   6.784  0.00  0.00     0.021 C 
BRANCH  88  89
ATOM     89  C11 ROC d          -8.103  -0.283   7.279  0.00  0.00    -0.054 C 
ATOM     90  H43 ROC d          -8.770  -1.055   6.870  0.00  0.00     0.030 H 
ATOM     91  H44 ROC d          -8.449   0.710   6.956  0.00  0.00     0.030 H 
ATOM     92  H45 ROC d          -8.114  -0.334   8.378  0.00  0.00     0.030 H 
ENDBRANCH  88  89
BRANCH  88  93
ATOM     93  C22 ROC d          -6.394  -1.978   6.822  0.00  0.00    -0.054 C 
ATOM     94  H46 ROC d          -7.134  -2.532   6.227  0.00  0.00     0.030 H 
ATOM     95  H47 ROC d          -6.421  -2.333   7.863  0.00  0.00     0.030 H 
ATOM     96  H48 ROC d          -5.390  -2.145   6.405  0.00  0.00     0.030 H 
ENDBRANCH  88  93
BRANCH  88  97
ATOM     97  C32 ROC d          -6.599  -0.008   5.358  0.00  0.00    -0.054 C 
ATOM     98  H49 ROC d          -6.765  -0.842   4.660  0.00  0.00     0.030 H 
ATOM     99  H50 ROC d          -5.595   0.411   5.197  0.00  0.00     0.030 H 
ATOM    100  H51 ROC d          -7.355   0.773   5.182  0.00  0.00     0.030 H 
ENDBRANCH  88  97
ENDBRANCH  86  88
ENDBRANCH  59  84
ENDBRANCH  55  58
ENDBRANCH   1  55
TORSDOF 17
ENDMDL
MODEL 4
REMARK VINA RESULT:      -9.1      2.245     10.735
REMARK  17 active torsions:
REMARK  status: ('A' for Active; 'I' for Inactive)
REMARK    1  A    between atoms: C_1  and  C2_4 
REMARK    2  A    between atoms: CA_14  and  N_13 
REMARK    3  A    between atoms: C1_15  and  CA_14 
REMARK    4  A    between atoms: CA_14  and  CB_17 
REMARK       I    between atoms: N2_24  and  C1_15 
REMARK    5  A    between atoms: CB_17  and  CG_18 
REMARK    6  A    between atoms: C9_21  and  O2_22 
REMARK    7  A    between atoms: CA1_23  and  C9_21 
REMARK    8  A    between atoms: C9_21  and  CM_33 
REMARK    9  A    between atoms: CA1_23  and  N2_24 
REMARK   10  A    between atoms: CA1_23  and  CB1_25 
REMARK   11  A    between atoms: CB1_25  and  CG1_26 
REMARK   12  A    between atoms: CM_33  and  N11_32 
REMARK   13  A    between atoms: C21_34  and  CC_35 
REMARK       I    between atoms: CC_35  and  N3_45 
REMARK   14  A    between atoms: N3_45  and  CD_46 
REMARK   15  A    between atoms: CD_46  and  C11_47 
REMARK   16  A    between atoms: CD_46  and  C22_48 
REMARK   17  A    between atoms: CD_46  and  C32_49 
ROOT
ATOM      1  C9  ROC d          -4.381   4.332   5.682  0.00  0.00     0.078 C 
ATOM      2  H13 ROC d          -3.886   4.134   4.720  0.00  0.00     0.088 H 
ENDROOT
BRANCH   1   3
ATOM      3  O2  ROC d          -5.762   4.438   5.502  0.00  0.00    -0.392 OA
ATOM      4  H14 ROC d          -5.942   4.762   4.628  0.00  0.00     0.210 HD
ENDBRANCH   1   3
BRANCH   1   5
ATOM      5  CA1 ROC d          -3.874   5.657   6.270  0.00  0.00     0.041 C 
ATOM      6  H15 ROC d          -4.625   5.977   7.008  0.00  0.00     0.076 H 
BRANCH   5   7
ATOM      7  N2  ROC d          -2.613   5.429   7.012  0.00  0.00    -0.363 N 
ATOM      8  C1  ROC d          -2.560   5.875   8.324  0.00  0.00     0.175 C 
ATOM      9  O1  ROC d          -3.456   6.389   9.172  0.00  0.00    -0.175 OA
ATOM     10  H16 ROC d          -1.833   4.973   6.585  0.00  0.00     0.162 HD
BRANCH   8  11
ATOM     11  CA  ROC d          -1.160   5.725   8.923  0.00  0.00     0.083 C 
ATOM     12  H8  ROC d          -0.499   5.378   8.115  0.00  0.00     0.086 H 
BRANCH  11  13
ATOM     13  N   ROC d          -0.670   7.005   9.369  0.00  0.00    -0.354 N 
ATOM     14  C   ROC d          -0.484   7.938   8.398  0.00  0.00     0.204 C 
ATOM     15  O   ROC d          -0.747   8.024   7.098  0.00  0.00    -0.170 OA
ATOM     16  H7  ROC d          -0.479   7.196  10.332  0.00  0.00     0.162 HD
BRANCH  14  17
ATOM     17  C2  ROC d           0.240   9.166   8.960  0.00  0.00     0.111 A 
ATOM     18  N1  ROC d           0.839   9.073  10.190  0.00  0.00    -0.244 NA
ATOM     19  C8A ROC d           1.491  10.164  10.742  0.00  0.00     0.068 A 
ATOM     20  C8  ROC d           2.080  10.041  11.983  0.00  0.00    -0.054 A 
ATOM     21  C4A ROC d           1.543  11.368  10.041  0.00  0.00    -0.007 A 
ATOM     22  C7  ROC d           2.743  11.154  12.552  0.00  0.00    -0.081 A 
ATOM     23  H6  ROC d           2.034   9.100  12.518  0.00  0.00     0.087 H 
ATOM     24  C6  ROC d           2.800  12.346  11.859  0.00  0.00    -0.082 A 
ATOM     25  H5  ROC d           3.205  11.070  13.529  0.00  0.00     0.083 H 
ATOM     26  C5  ROC d           2.206  12.466  10.609  0.00  0.00    -0.071 A 
ATOM     27  H4  ROC d           3.313  13.197  12.295  0.00  0.00     0.083 H 
ATOM     28  H3  ROC d           2.256  13.407  10.073  0.00  0.00     0.084 H 
ATOM     29  C4  ROC d           0.944  11.468   8.795  0.00  0.00    -0.068 A 
ATOM     30  C3  ROC d           0.288  10.373   8.250  0.00  0.00    -0.050 A 
ATOM     31  H2  ROC d           0.988  12.402   8.246  0.00  0.00     0.085 H 
ATOM     32  H1  ROC d          -0.186  10.451   7.278  0.00  0.00     0.087 H 
ENDBRANCH  14  17
ENDBRANCH  11  13
BRANCH  11  33
ATOM     33  CB  ROC d          -1.071   4.688  10.051  0.00  0.00     0.023 C 
ATOM     34  H9  ROC d          -1.801   3.888   9.856  0.00  0.00     0.049 H 
ATOM     35  H10 ROC d          -1.312   5.180  11.005  0.00  0.00     0.049 H 
BRANCH  33  36
ATOM     36  CG  ROC d           0.340   4.061  10.155  0.00  0.00     0.151 C 
ATOM     37  OD1 ROC d           1.217   4.587   9.264  0.00  0.00    -0.178 OA
ATOM     38  ND2 ROC d           0.359   3.110  11.132  0.00  0.00    -0.381 N 
ATOM     39  H11 ROC d           1.203   2.610  11.325  0.00  0.00     0.158 HD
ATOM     40  H12 ROC d          -0.470   2.914  11.655  0.00  0.00     0.158 HD
ENDBRANCH  33  36
ENDBRANCH  11  33
ENDBRANCH   8  11
ENDBRANCH   5   7
BRANCH   5  41
ATOM     41  CB1 ROC d          -3.761   6.800   5.265  0.00  0.00    -0.020 C 
ATOM     42  H17 ROC d          -4.320   6.535   4.355  0.00  0.00     0.043 H 
ATOM     43  H18 ROC d          -2.701   6.952   5.013  0.00  0.00     0.043 H 
BRANCH  41  44
ATOM     44  CG1 ROC d          -4.335   8.112   5.844  0.00  0.00    -0.056 A 
ATOM     45  CD1 ROC d          -3.719   9.328   5.617  0.00  0.00    -0.077 A 
ATOM     46  CE1 ROC d          -4.261  10.513   6.165  0.00  0.00    -0.082 A 
ATOM     47  H19 ROC d          -2.817   9.373   5.017  0.00  0.00     0.084 H 
ATOM     48  CZ  ROC d          -5.418  10.464   6.933  0.00  0.00    -0.083 A 
ATOM     49  H21 ROC d          -3.773  11.464   5.985  0.00  0.00     0.083 H 
ATOM     50  CE2 ROC d          -6.036   9.250   7.164  0.00  0.00    -0.082 A 
ATOM     51  H23 ROC d          -5.834  11.375   7.349  0.00  0.00     0.083 H 
ATOM     52  CD2 ROC d          -5.494   8.070   6.621  0.00  0.00    -0.077 A 
ATOM     53  H22 ROC d          -6.938   9.207   7.763  0.00  0.00     0.083 H 
ATOM     54  H20 ROC d          -5.981   7.119   6.808  0.00  0.00     0.084 H 
ENDBRANCH  41  44
ENDBRANCH   5  41
ENDBRANCH   1   5
BRANCH   1  55
ATOM     55  CM  ROC d          -4.102   3.208   6.638  0.00  0.00     0.110 C 
ATOM     56  H25 ROC d          -3.533   3.612   7.489  0.00  0.00     0.080 H 
ATOM     57  H26 ROC d          -3.494   2.454   6.116  0.00  0.00     0.080 H 
BRANCH  55  58
ATOM     58  N11 ROC d          -5.315   2.543   7.164  0.00  0.00    -0.057 N 
ATOM     59  C21 ROC d          -5.216   2.166   8.604  0.00  0.00     0.167 C 
ATOM     60  C31 ROC d          -6.476   1.433   9.025  0.00  0.00    -0.027 C 
ATOM     61  H27 ROC d          -5.180   3.112   9.164  0.00  0.00     0.098 H 
ATOM     62  C3A ROC d          -6.912   0.279   8.157  0.00  0.00    -0.047 C 
ATOM     63  H28 ROC d          -7.297   2.166   9.043  0.00  0.00     0.037 H 
ATOM     64  H29 ROC d          -6.311   1.043  10.040  0.00  0.00     0.037 H 
ATOM     65  C41 ROC d          -6.036  -0.967   8.400  0.00  0.00    -0.061 C 
ATOM     66  C7A ROC d          -6.952   0.693   6.717  0.00  0.00    -0.027 C 
ATOM     67  H30 ROC d          -7.939   0.014   8.448  0.00  0.00     0.040 H 
ATOM     68  C51 ROC d          -6.394  -2.113   7.536  0.00  0.00    -0.065 C 
ATOM     69  H31 ROC d          -6.149  -1.274   9.449  0.00  0.00     0.033 H 
ATOM     70  H32 ROC d          -4.987  -0.700   8.206  0.00  0.00     0.033 H 
ATOM     71  C61 ROC d          -6.394  -1.719   6.068  0.00  0.00    -0.065 C 
ATOM     72  H33 ROC d          -7.398  -2.469   7.811  0.00  0.00     0.033 H 
ATOM     73  H34 ROC d          -5.663  -2.920   7.690  0.00  0.00     0.033 H 
ATOM     74  C71 ROC d          -7.238  -0.471   5.797  0.00  0.00    -0.060 C 
ATOM     75  H35 ROC d          -6.800  -2.555   5.479  0.00  0.00     0.033 H 
ATOM     76  H36 ROC d          -5.359  -1.520   5.756  0.00  0.00     0.033 H 
ATOM     77  H37 ROC d          -8.299  -0.743   5.906  0.00  0.00     0.033 H 
ATOM     78  H38 ROC d          -7.048  -0.147   4.763  0.00  0.00     0.033 H 
ATOM     79  C81 ROC d          -5.654   1.407   6.295  0.00  0.00     0.088 C 
ATOM     80  H39 ROC d          -7.778   1.412   6.607  0.00  0.00     0.043 H 
ATOM     81  H40 ROC d          -4.827   0.681   6.329  0.00  0.00     0.076 H 
ATOM     82  H41 ROC d          -5.776   1.777   5.267  0.00  0.00     0.076 H 
ATOM     83  H24 ROC d          -6.070   3.207   7.096  0.00  0.00     0.281 HD
BRANCH  59  84
ATOM     84  CC  ROC d          -3.985   1.379   9.029  0.00  0.00     0.183 C 
ATOM     85  O3  ROC d          -3.339   0.736   8.077  0.00  0.00    -0.175 OA
ATOM     86  N3  ROC d          -3.753   1.486  10.398  0.00  0.00    -0.362 N 
ATOM     87  H42 ROC d          -4.338   2.081  10.950  0.00  0.00     0.162 HD
BRANCH  86  88
ATOM     88  CD  ROC d          -2.641   0.725  11.061  0.00  0.00     0.021 C 
BRANCH  88  89
ATOM     89  C11 ROC d          -3.156  -0.661  11.262  0.00  0.00    -0.054 C 
ATOM     90  H43 ROC d          -4.235  -0.685  11.051  0.00  0.00     0.030 H 
ATOM     91  H44 ROC d          -2.978  -0.970  12.303  0.00  0.00     0.030 H 
ATOM     92  H45 ROC d          -2.633  -1.349  10.581  0.00  0.00     0.030 H 
ENDBRANCH  88  89
BRANCH  88  93
ATOM     93  C22 ROC d          -2.286   1.335  12.388  0.00  0.00    -0.054 C 
ATOM     94  H46 ROC d          -3.157   1.288  13.058  0.00  0.00     0.030 H 
ATOM     95  H47 ROC d          -1.992   2.385  12.242  0.00  0.00     0.030 H 
ATOM     96  H48 ROC d          -1.449   0.779  12.835  0.00  0.00     0.030 H 
ENDBRANCH  88  93
BRANCH  88  97
ATOM     97  C32 ROC d          -1.407   0.681  10.180  0.00  0.00    -0.054 C 
ATOM     98  H49 ROC d          -1.711   0.645   9.124  0.00  0.00     0.030 H 
ATOM     99  H50 ROC d          -0.815  -0.213  10.422  0.00  0.00     0.030 H 
ATOM    100  H51 ROC d          -0.799   1.582  10.357  0.00  0.00     0.030 H 
ENDBRANCH  88  97
ENDBRANCH  86  88
ENDBRANCH  59  84
ENDBRANCH  55  58
ENDBRANCH   1  55
TORSDOF 17
ENDMDL
MODEL 5
REMARK VINA RESULT:      -9.1      3.149      5.851
REMARK  17 active torsions:
REMARK  status: ('A' for Active; 'I' for Inactive)
REMARK    1  A    between atoms: C_1  and  C2_4 
REMARK    2  A    between atoms: CA_14  and  N_13 
REMARK    3  A    between atoms: C1_15  and  CA_14 
REMARK    4  A    between atoms: CA_14  and  CB_17 
REMARK       I    between atoms: N2_24  and  C1_15 
REMARK    5  A    between atoms: CB_17  and  CG_18 
REMARK    6  A    between atoms: C9_21  and  O2_22 
REMARK    7  A    between atoms: CA1_23  and  C9_21 
REMARK    8  A    between atoms: C9_21  and  CM_33 
REMARK    9  A    between atoms: CA1_23  and  N2_24 
REMARK   10  A    between atoms: CA1_23  and  CB1_25 
REMARK   11  A    between atoms: CB1_25  and  CG1_26 
REMARK   12  A    between atoms: CM_33  and  N11_32 
REMARK   13  A    between atoms: C21_34  and  CC_35 
REMARK       I    between atoms: CC_35  and  N3_45 
REMARK   14  A    between atoms: N3_45  and  CD_46 
REMARK   15  A    between atoms: CD_46  and  C11_47 
REMARK   16  A    between atoms: CD_46  and  C22_48 
REMARK   17  A    between atoms: CD_46  and  C32_49 
ROOT
ATOM      1  C9  ROC d          -2.119   8.711   6.806  0.00  0.00     0.078 C 
ATOM      2  H13 ROC d          -1.484   8.896   5.926  0.00  0.00     0.088 H 
ENDROOT
BRANCH   1   3
ATOM      3  O2  ROC d          -2.013   7.376   7.204  0.00  0.00    -0.392 OA
ATOM      4  H14 ROC d          -2.146   6.811   6.452  0.00  0.00     0.210 HD
ENDBRANCH   1   3
BRANCH   1   5
ATOM      5  CA1 ROC d          -3.589   8.989   6.460  0.00  0.00     0.041 C 
ATOM      6  H15 ROC d          -3.623   9.180   5.377  0.00  0.00     0.076 H 
BRANCH   5   7
ATOM      7  N2  ROC d          -4.403   7.777   6.707  0.00  0.00    -0.363 N 
ATOM      8  C1  ROC d          -4.409   6.804   5.719  0.00  0.00     0.175 C 
ATOM      9  O1  ROC d          -3.734   6.628   4.579  0.00  0.00    -0.175 OA
ATOM     10  H16 ROC d          -4.926   7.664   7.552  0.00  0.00     0.162 HD
BRANCH   8  11
ATOM     11  CA  ROC d          -5.407   5.685   6.024  0.00  0.00     0.083 C 
ATOM     12  H8  ROC d          -5.570   5.134   5.086  0.00  0.00     0.086 H 
BRANCH  11  13
ATOM     13  N   ROC d          -4.844   4.764   6.980  0.00  0.00    -0.354 N 
ATOM     14  C   ROC d          -4.170   3.707   6.457  0.00  0.00     0.204 C 
ATOM     15  O   ROC d          -3.779   3.334   5.242  0.00  0.00    -0.170 OA
ATOM     16  H7  ROC d          -4.944   4.895   7.967  0.00  0.00     0.162 HD
BRANCH  14  17
ATOM     17  C2  ROC d          -3.817   2.696   7.551  0.00  0.00     0.111 A 
ATOM     18  N1  ROC d          -3.432   3.163   8.782  0.00  0.00    -0.244 NA
ATOM     19  C8A ROC d          -3.089   2.283   9.797  0.00  0.00     0.068 A 
ATOM     20  C8  ROC d          -2.702   2.784  11.022  0.00  0.00    -0.054 A 
ATOM     21  C4A ROC d          -3.137   0.909   9.567  0.00  0.00    -0.007 A 
ATOM     22  C7  ROC d          -2.347   1.889  12.059  0.00  0.00    -0.081 A 
ATOM     23  H6  ROC d          -2.670   3.854  11.189  0.00  0.00     0.087 H 
ATOM     24  C6  ROC d          -2.396   0.527  11.837  0.00  0.00    -0.082 A 
ATOM     25  H5  ROC d          -2.036   2.271  13.025  0.00  0.00     0.083 H 
ATOM     26  C5  ROC d          -2.788   0.027  10.601  0.00  0.00    -0.071 A 
ATOM     27  H4  ROC d          -2.128  -0.157  12.634  0.00  0.00     0.083 H 
ATOM     28  H3  ROC d          -2.823  -1.044  10.436  0.00  0.00     0.084 H 
ATOM     29  C4  ROC d          -3.528   0.429   8.328  0.00  0.00    -0.068 A 
ATOM     30  C3  ROC d          -3.866   1.316   7.315  0.00  0.00    -0.050 A 
ATOM     31  H2  ROC d          -3.571  -0.640   8.149  0.00  0.00     0.085 H 
ATOM     32  H1  ROC d          -4.168   0.942   6.343  0.00  0.00     0.087 H 
ENDBRANCH  14  17
ENDBRANCH  11  13
BRANCH  11  33
ATOM     33  CB  ROC d          -6.780   6.184   6.495  0.00  0.00     0.023 C 
ATOM     34  H9  ROC d          -6.647   6.774   7.414  0.00  0.00     0.049 H 
ATOM     35  H10 ROC d          -7.420   5.315   6.707  0.00  0.00     0.049 H 
BRANCH  33  36
ATOM     36  CG  ROC d          -7.473   7.067   5.432  0.00  0.00     0.151 C 
ATOM     37  OD1 ROC d          -7.977   8.216   5.947  0.00  0.00    -0.178 OA
ATOM     38  ND2 ROC d          -7.414   6.464   4.210  0.00  0.00    -0.381 N 
ATOM     39  H11 ROC d          -7.819   6.910   3.412  0.00  0.00     0.158 HD
ATOM     40  H12 ROC d          -6.965   5.576   4.112  0.00  0.00     0.158 HD
ENDBRANCH  33  36
ENDBRANCH  11  33
ENDBRANCH   8  11
ENDBRANCH   5   7
BRANCH   5  41
ATOM     41  CB1 ROC d          -4.177  10.231   7.124  0.00  0.00    -0.020 C 
ATOM     42  H17 ROC d          -3.356  10.862   7.496  0.00  0.00     0.043 H 
ATOM     43  H18 ROC d          -4.813   9.921   7.966  0.00  0.00     0.043 H 
BRANCH  41  44
ATOM     44  CG1 ROC d          -5.027  11.048   6.125  0.00  0.00    -0.056 A 
ATOM     45  CD1 ROC d          -5.389  10.528   4.896  0.00  0.00    -0.077 A 
ATOM     46  CE1 ROC d          -6.160  11.300   3.997  0.00  0.00    -0.082 A 
ATOM     47  H19 ROC d          -5.080   9.526   4.621  0.00  0.00     0.084 H 
ATOM     48  CZ  ROC d          -6.562  12.584   4.343  0.00  0.00    -0.083 A 
ATOM     49  H21 ROC d          -6.440  10.888   3.035  0.00  0.00     0.083 H 
ATOM     50  CE2 ROC d          -6.201  13.108   5.570  0.00  0.00    -0.082 A 
ATOM     51  H23 ROC d          -7.157  13.173   3.654  0.00  0.00     0.083 H 
ATOM     52  CD2 ROC d          -5.430  12.341   6.463  0.00  0.00    -0.077 A 
ATOM     53  H22 ROC d          -6.512  14.109   5.844  0.00  0.00     0.083 H 
ATOM     54  H20 ROC d          -5.146  12.758   7.423  0.00  0.00     0.084 H 
ENDBRANCH  41  44
ENDBRANCH   5  41
ENDBRANCH   1   5
BRANCH   1  55
ATOM     55  CM  ROC d          -1.685   9.591   7.941  0.00  0.00     0.110 C 
ATOM     56  H25 ROC d          -1.782   9.021   8.877  0.00  0.00     0.080 H 
ATOM     57  H26 ROC d          -2.351  10.466   7.974  0.00  0.00     0.080 H 
BRANCH  55  58
ATOM     58  N11 ROC d          -0.289  10.074   7.836  0.00  0.00    -0.057 N 
ATOM     59  C21 ROC d           0.732   9.003   8.019  0.00  0.00     0.167 C 
ATOM     60  C31 ROC d           2.122   9.612   7.962  0.00  0.00    -0.027 C 
ATOM     61  H27 ROC d           0.629   8.333   7.153  0.00  0.00     0.098 H 
ATOM     62  C3A ROC d           2.376  10.807   8.848  0.00  0.00    -0.047 C 
ATOM     63  H28 ROC d           2.307   9.922   6.923  0.00  0.00     0.037 H 
ATOM     64  H29 ROC d           2.840   8.828   8.245  0.00  0.00     0.037 H 
ATOM     65  C41 ROC d           2.557  10.385  10.320  0.00  0.00    -0.061 C 
ATOM     66  C7A ROC d           1.300  11.834   8.663  0.00  0.00    -0.027 C 
ATOM     67  H30 ROC d           3.322  11.265   8.524  0.00  0.00     0.040 H 
ATOM     68  C51 ROC d           2.762  11.527  11.237  0.00  0.00    -0.065 C 
ATOM     69  H31 ROC d           3.432   9.723  10.388  0.00  0.00     0.033 H 
ATOM     70  H32 ROC d           1.658   9.838  10.640  0.00  0.00     0.033 H 
ATOM     71  C61 ROC d           1.653  12.556  11.093  0.00  0.00    -0.065 C 
ATOM     72  H33 ROC d           3.725  12.004  11.005  0.00  0.00     0.033 H 
ATOM     73  H34 ROC d           2.775  11.158  12.273  0.00  0.00     0.033 H 
ATOM     74  C71 ROC d           1.432  12.980   9.638  0.00  0.00    -0.060 C 
ATOM     75  H35 ROC d           1.917  13.445  11.684  0.00  0.00     0.033 H 
ATOM     76  H36 ROC d           0.718  12.124  11.480  0.00  0.00     0.033 H 
ATOM     77  H37 ROC d           2.288  13.599   9.327  0.00  0.00     0.033 H 
ATOM     78  H38 ROC d           0.511  13.579   9.591  0.00  0.00     0.033 H 
ATOM     79  C81 ROC d          -0.105  11.207   8.755  0.00  0.00     0.088 C 
ATOM     80  H39 ROC d           1.414  12.247   7.650  0.00  0.00     0.043 H 
ATOM     81  H40 ROC d          -0.264  10.853   9.785  0.00  0.00     0.076 H 
ATOM     82  H41 ROC d          -0.849  11.980   8.513  0.00  0.00     0.076 H 
ATOM     83  H24 ROC d          -0.168  10.427   6.899  0.00  0.00     0.281 HD
BRANCH  59  84
ATOM     84  CC  ROC d           0.597   8.122   9.251  0.00  0.00     0.183 C 
ATOM     85  O3  ROC d           0.331   8.734  10.388  0.00  0.00    -0.175 OA
ATOM     86  N3  ROC d           0.782   6.776   8.945  0.00  0.00    -0.362 N 
ATOM     87  H42 ROC d           0.920   6.504   7.992  0.00  0.00     0.162 HD
BRANCH  86  88
ATOM     88  CD  ROC d           0.777   5.725  10.018  0.00  0.00     0.021 C 
BRANCH  88  89
ATOM     89  C11 ROC d          -0.613   5.698  10.559  0.00  0.00    -0.054 C 
ATOM     90  H43 ROC d          -0.926   6.720  10.817  0.00  0.00     0.030 H 
ATOM     91  H44 ROC d          -0.643   5.067  11.460  0.00  0.00     0.030 H 
ATOM     92  H45 ROC d          -1.294   5.287   9.801  0.00  0.00     0.030 H 
ENDBRANCH  88  89
BRANCH  88  93
ATOM     93  C22 ROC d           1.745   6.071  11.115  0.00  0.00    -0.054 C 
ATOM     94  H46 ROC d           1.222   6.634  11.902  0.00  0.00     0.030 H 
ATOM     95  H47 ROC d           2.560   6.685  10.704  0.00  0.00     0.030 H 
ATOM     96  H48 ROC d           2.162   5.147  11.541  0.00  0.00     0.030 H 
ENDBRANCH  88  93
BRANCH  88  97
ATOM     97  C32 ROC d           1.125   4.362   9.452  0.00  0.00    -0.054 C 
ATOM     98  H49 ROC d           0.212   3.878   9.074  0.00  0.00     0.030 H 
ATOM     99  H50 ROC d           1.569   3.739  10.242  0.00  0.00     0.030 H 
ATOM    100  H51 ROC d           1.845   4.479   8.628  0.00  0.00     0.030 H 
ENDBRANCH  88  97
ENDBRANCH  86  88
ENDBRANCH  59  84
ENDBRANCH  55  58
ENDBRANCH   1  55
TORSDOF 17
ENDMDL
MODEL 6
REMARK VINA RESULT:      -9.0      2.215     10.737
REMARK  17 active torsions:
REMARK  status: ('A' for Active; 'I' for Inactive)
REMARK    1  A    between atoms: C_1  and  C2_4 
REMARK    2  A    between atoms: CA_14  and  N_13 
REMARK    3  A    between atoms: C1_15  and  CA_14 
REMARK    4  A    between atoms: CA_14  and  CB_17 
REMARK       I    between atoms: N2_24  and  C1_15 
REMARK    5  A    between atoms: CB_17  and  CG_18 
REMARK    6  A    between atoms: C9_21  and  O2_22 
REMARK    7  A    between atoms: CA1_23  and  C9_21 
REMARK    8  A    between atoms: C9_21  and  CM_33 
REMARK    9  A    between atoms: CA1_23  and  N2_24 
REMARK   10  A    between atoms: CA1_23  and  CB1_25 
REMARK   11  A    between atoms: CB1_25  and  CG1_26 
REMARK   12  A    between atoms: CM_33  and  N11_32 
REMARK   13  A    between atoms: C21_34  and  CC_35 
REMARK       I    between atoms: CC_35  and  N3_45 
REMARK   14  A    between atoms: N3_45  and  CD_46 
REMARK   15  A    between atoms: CD_46  and  C11_47 
REMARK   16  A    between atoms: CD_46  and  C22_48 
REMARK   17  A    between atoms: CD_46  and  C32_49 
ROOT
ATOM      1  C9  ROC d          -4.260   4.038   6.317  0.00  0.00     0.078 C 
ATOM      2  H13 ROC d          -3.441   3.500   5.818  0.00  0.00     0.088 H 
ENDROOT
BRANCH   1   3
ATOM      3  O2  ROC d          -5.396   4.050   5.505  0.00  0.00    -0.392 OA
ATOM      4  H14 ROC d          -6.091   3.559   5.928  0.00  0.00     0.210 HD
ENDBRANCH   1   3
BRANCH   1   5
ATOM      5  CA1 ROC d          -3.848   5.494   6.580  0.00  0.00     0.041 C 
ATOM      6  H15 ROC d          -4.527   5.874   7.357  0.00  0.00     0.076 H 
BRANCH   5   7
ATOM      7  N2  ROC d          -2.480   5.535   7.147  0.00  0.00    -0.363 N 
ATOM      8  C1  ROC d          -2.339   6.058   8.424  0.00  0.00     0.175 C 
ATOM      9  O1  ROC d          -3.195   6.455   9.370  0.00  0.00    -0.175 OA
ATOM     10  H16 ROC d          -1.692   5.200   6.631  0.00  0.00     0.162 HD
BRANCH   8  11
ATOM     11  CA  ROC d          -0.869   6.192   8.827  0.00  0.00     0.083 C 
ATOM     12  H8  ROC d          -0.268   6.011   7.923  0.00  0.00     0.086 H 
BRANCH  11  13
ATOM     13  N   ROC d          -0.596   7.536   9.272  0.00  0.00    -0.354 N 
ATOM     14  C   ROC d          -0.045   8.365   8.346  0.00  0.00     0.204 C 
ATOM     15  O   ROC d           0.224   8.295   7.047  0.00  0.00    -0.170 OA
ATOM     16  H7  ROC d          -0.800   7.840  10.203  0.00  0.00     0.162 HD
BRANCH  14  17
ATOM     17  C2  ROC d           0.397   9.680   8.994  0.00  0.00     0.111 A 
ATOM     18  N1  ROC d           1.220   9.632  10.091  0.00  0.00    -0.244 NA
ATOM     19  C8A ROC d           1.632  10.797  10.717  0.00  0.00     0.068 A 
ATOM     20  C8  ROC d           2.455  10.716  11.821  0.00  0.00    -0.054 A 
ATOM     21  C4A ROC d           1.211  12.033  10.228  0.00  0.00    -0.007 A 
ATOM     22  C7  ROC d           2.874  11.903  12.466  0.00  0.00    -0.081 A 
ATOM     23  H6  ROC d           2.777   9.750  12.191  0.00  0.00     0.087 H 
ATOM     24  C6  ROC d           2.462  13.128  11.982  0.00  0.00    -0.082 A 
ATOM     25  H5  ROC d           3.517  11.851  13.337  0.00  0.00     0.083 H 
ATOM     26  C5  ROC d           1.634  13.207  10.869  0.00  0.00    -0.071 A 
ATOM     27  H4  ROC d           2.788  14.038  12.475  0.00  0.00     0.083 H 
ATOM     28  H3  ROC d           1.315  14.174  10.498  0.00  0.00     0.084 H 
ATOM     29  C4  ROC d           0.383  12.091   9.118  0.00  0.00    -0.068 A 
ATOM     30  C3  ROC d          -0.030  10.919   8.498  0.00  0.00    -0.050 A 
ATOM     31  H2  ROC d           0.059  13.051   8.733  0.00  0.00     0.085 H 
ATOM     32  H1  ROC d          -0.681  10.962   7.633  0.00  0.00     0.087 H 
ENDBRANCH  14  17
ENDBRANCH  11  13
BRANCH  11  33
ATOM     33  CB  ROC d          -0.414   5.170   9.879  0.00  0.00     0.023 C 
ATOM     34  H9  ROC d          -0.532   4.158   9.464  0.00  0.00     0.049 H 
ATOM     35  H10 ROC d          -1.046   5.276  10.773  0.00  0.00     0.049 H 
BRANCH  33  36
ATOM     36  CG  ROC d           1.064   5.374  10.286  0.00  0.00     0.151 C 
ATOM     37  OD1 ROC d           1.216   6.279  11.285  0.00  0.00    -0.178 OA
ATOM     38  ND2 ROC d           1.873   4.583   9.524  0.00  0.00    -0.381 N 
ATOM     39  H11 ROC d           2.863   4.598   9.665  0.00  0.00     0.158 HD
ATOM     40  H12 ROC d           1.476   3.988   8.825  0.00  0.00     0.158 HD
ENDBRANCH  33  36
ENDBRANCH  11  33
ENDBRANCH   8  11
ENDBRANCH   5   7
BRANCH   5  41
ATOM     41  CB1 ROC d          -4.011   6.429   5.385  0.00  0.00    -0.020 C 
ATOM     42  H17 ROC d          -4.968   6.212   4.887  0.00  0.00     0.043 H 
ATOM     43  H18 ROC d          -3.184   6.260   4.680  0.00  0.00     0.043 H 
BRANCH  41  44
ATOM     44  CG1 ROC d          -4.001   7.909   5.830  0.00  0.00    -0.056 A 
ATOM     45  CD1 ROC d          -2.921   8.730   5.566  0.00  0.00    -0.077 A 
ATOM     46  CE1 ROC d          -2.933  10.079   5.990  0.00  0.00    -0.082 A 
ATOM     47  H19 ROC d          -2.061   8.340   5.032  0.00  0.00     0.084 H 
ATOM     48  CZ  ROC d          -4.031  10.589   6.673  0.00  0.00    -0.083 A 
ATOM     49  H21 ROC d          -2.083  10.718   5.782  0.00  0.00     0.083 H 
ATOM     50  CE2 ROC d          -5.112   9.770   6.940  0.00  0.00    -0.082 A 
ATOM     51  H23 ROC d          -4.039  11.624   6.994  0.00  0.00     0.083 H 
ATOM     52  CD2 ROC d          -5.098   8.426   6.520  0.00  0.00    -0.077 A 
ATOM     53  H22 ROC d          -5.970  10.163   7.472  0.00  0.00     0.083 H 
ATOM     54  H20 ROC d          -5.947   7.787   6.736  0.00  0.00     0.084 H 
ENDBRANCH  41  44
ENDBRANCH   5  41
ENDBRANCH   1   5
BRANCH   1  55
ATOM     55  CM  ROC d          -4.598   3.360   7.613  0.00  0.00     0.110 C 
ATOM     56  H25 ROC d          -5.611   2.940   7.529  0.00  0.00     0.080 H 
ATOM     57  H26 ROC d          -4.580   4.116   8.413  0.00  0.00     0.080 H 
BRANCH  55  58
ATOM     58  N11 ROC d          -3.672   2.268   7.987  0.00  0.00    -0.057 N 
ATOM     59  C21 ROC d          -4.329   0.933   8.089  0.00  0.00     0.167 C 
ATOM     60  C31 ROC d          -3.313  -0.100   8.542  0.00  0.00    -0.027 C 
ATOM     61  H27 ROC d          -4.638   0.667   7.067  0.00  0.00     0.098 H 
ATOM     62  C3A ROC d          -2.504   0.238   9.770  0.00  0.00    -0.047 C 
ATOM     63  H28 ROC d          -2.609  -0.261   7.713  0.00  0.00     0.037 H 
ATOM     64  H29 ROC d          -3.857  -1.034   8.748  0.00  0.00     0.037 H 
ATOM     65  C41 ROC d          -3.339   0.067  11.056  0.00  0.00    -0.061 C 
ATOM     66  C7A ROC d          -1.903   1.605   9.641  0.00  0.00    -0.027 C 
ATOM     67  H30 ROC d          -1.672  -0.480   9.827  0.00  0.00     0.040 H 
ATOM     68  C51 ROC d          -2.603   0.433  12.286  0.00  0.00    -0.065 C 
ATOM     69  H31 ROC d          -3.647  -0.985  11.135  0.00  0.00     0.033 H 
ATOM     70  H32 ROC d          -4.231   0.707  10.981  0.00  0.00     0.033 H 
ATOM     71  C61 ROC d          -2.026   1.835  12.187  0.00  0.00    -0.065 C 
ATOM     72  H33 ROC d          -1.782  -0.282  12.438  0.00  0.00     0.033 H 
ATOM     73  H34 ROC d          -3.292   0.389  13.142  0.00  0.00     0.033 H 
ATOM     74  C71 ROC d          -1.209   2.044  10.909  0.00  0.00    -0.060 C 
ATOM     75  H35 ROC d          -1.374   2.010  13.056  0.00  0.00     0.033 H 
ATOM     76  H36 ROC d          -2.854   2.559  12.199  0.00  0.00     0.033 H 
ATOM     77  H37 ROC d          -0.272   1.474  11.003  0.00  0.00     0.033 H 
ATOM     78  H38 ROC d          -0.978   3.116  10.821  0.00  0.00     0.033 H 
ATOM     79  C81 ROC d          -2.952   2.648   9.211  0.00  0.00     0.088 C 
ATOM     80  H39 ROC d          -1.142   1.553   8.849  0.00  0.00     0.043 H 
ATOM     81  H40 ROC d          -3.683   2.767  10.025  0.00  0.00     0.076 H 
ATOM     82  H41 ROC d          -2.441   3.605   9.034  0.00  0.00     0.076 H 
ATOM     83  H24 ROC d          -2.989   2.193   7.250  0.00  0.00     0.281 HD
BRANCH  59  84
ATOM     84  CC  ROC d          -5.584   0.843   8.943  0.00  0.00     0.183 C 
ATOM     85  O3  ROC d          -6.373   1.899   8.945  0.00  0.00    -0.175 OA
ATOM     86  N3  ROC d          -5.679  -0.386   9.591  0.00  0.00    -0.362 N 
ATOM     87  H42 ROC d          -4.993  -1.091   9.411  0.00  0.00     0.162 HD
BRANCH  86  88
ATOM     88  CD  ROC d          -6.793  -0.673  10.557  0.00  0.00     0.021 C 
BRANCH  88  89
ATOM     89  C11 ROC d          -8.000  -0.942   9.722  0.00  0.00    -0.054 C 
ATOM     90  H43 ROC d          -8.657  -1.652  10.246  0.00  0.00     0.030 H 
ATOM     91  H44 ROC d          -7.690  -1.370   8.758  0.00  0.00     0.030 H 
ATOM     92  H45 ROC d          -8.543  -0.001   9.548  0.00  0.00     0.030 H 
ENDBRANCH  88  89
BRANCH  88  93
ATOM     93  C22 ROC d          -7.046   0.506  11.454  0.00  0.00    -0.054 C 
ATOM     94  H46 ROC d          -8.047   0.915  11.251  0.00  0.00     0.030 H 
ATOM     95  H47 ROC d          -6.288   1.280  11.264  0.00  0.00     0.030 H 
ATOM     96  H48 ROC d          -6.987   0.187  12.505  0.00  0.00     0.030 H 
ENDBRANCH  88  93
BRANCH  88  97
ATOM     97  C32 ROC d          -6.484  -1.892  11.404  0.00  0.00    -0.054 C 
ATOM     98  H49 ROC d          -6.225  -1.574  12.425  0.00  0.00     0.030 H 
ATOM     99  H50 ROC d          -5.637  -2.439  10.964  0.00  0.00     0.030 H 
ATOM    100  H51 ROC d          -7.366  -2.550  11.437  0.00  0.00     0.030 H 
ENDBRANCH  88  97
ENDBRANCH  86  88
ENDBRANCH  59  84
ENDBRANCH  55  58
ENDBRANCH   1  55
TORSDOF 17
ENDMDL
MODEL 7
REMARK VINA RESULT:      -8.4      2.707      8.115
REMARK  17 active torsions:
REMARK  status: ('A' for Active; 'I' for Inactive)
REMARK    1  A    between atoms: C_1  and  C2_4 
REMARK    2  A    between atoms: CA_14  and  N_13 
REMARK    3  A    between atoms: C1_15  and  CA_14 
REMARK    4  A    between atoms: CA_14  and  CB_17 
REMARK       I    between atoms: N2_24  and  C1_15 
REMARK    5  A    between atoms: CB_17  and  CG_18 
REMARK    6  A    between atoms: C9_21  and  O2_22 
REMARK    7  A    between atoms: CA1_23  and  C9_21 
REMARK    8  A    between atoms: C9_21  and  CM_33 
REMARK    9  A    between atoms: CA1_23  and  N2_24 
REMARK   10  A    between atoms: CA1_23  and  CB1_25 
REMARK   11  A    between atoms: CB1_25  and  CG1_26 
REMARK   12  A    between atoms: CM_33  and  N11_32 
REMARK   13  A    between atoms: C21_34  and  CC_35 
REMARK       I    between atoms: CC_35  and  N3_45 
REMARK   14  A    between atoms: N3_45  and  CD_46 
REMARK   15  A    between atoms: CD_46  and  C11_47 
REMARK   16  A    between atoms: CD_46  and  C22_48 
REMARK   17  A    between atoms: CD_46  and  C32_49 
ROOT
ATOM      1  C9  ROC d          -2.070   5.658   7.892  0.00  0.00     0.078 C 
ATOM      2  H13 ROC d          -1.381   4.968   7.382  0.00  0.00     0.088 H 
ENDROOT
BRANCH   1   3
ATOM      3  O2  ROC d          -2.020   6.919   7.295  0.00  0.00    -0.392 OA
ATOM      4  H14 ROC d          -2.296   7.577   7.923  0.00  0.00     0.210 HD
ENDBRANCH   1   3
BRANCH   1   5
ATOM      5  CA1 ROC d          -1.663   5.812   9.365  0.00  0.00     0.041 C 
ATOM      6  H15 ROC d          -2.008   6.808   9.680  0.00  0.00     0.076 H 
BRANCH   5   7
ATOM      7  N2  ROC d          -2.390   4.824  10.194  0.00  0.00    -0.363 N 
ATOM      8  C1  ROC d          -1.754   3.617  10.446  0.00  0.00     0.175 C 
ATOM      9  O1  ROC d          -0.530   3.140  10.206  0.00  0.00    -0.175 OA
ATOM     10  H16 ROC d          -3.302   5.018  10.557  0.00  0.00     0.162 HD
BRANCH   8  11
ATOM     11  CA  ROC d          -2.670   2.629  11.172  0.00  0.00     0.083 C 
ATOM     12  H8  ROC d          -3.187   3.191  11.963  0.00  0.00     0.086 H 
BRANCH  11  13
ATOM     13  N   ROC d          -3.671   2.123  10.267  0.00  0.00    -0.354 N 
ATOM     14  C   ROC d          -4.900   1.909  10.806  0.00  0.00     0.204 C 
ATOM     15  O   ROC d          -5.483   2.154  11.975  0.00  0.00    -0.170 OA
ATOM     16  H7  ROC d          -3.474   1.940   9.304  0.00  0.00     0.162 HD
BRANCH  14  17
ATOM     17  C2  ROC d          -5.804   1.170   9.814  0.00  0.00     0.111 A 
ATOM     18  N1  ROC d          -5.236   0.273   8.946  0.00  0.00    -0.244 NA
ATOM     19  C8A ROC d          -6.015  -0.406   8.022  0.00  0.00     0.068 A 
ATOM     20  C8  ROC d          -5.414  -1.298   7.159  0.00  0.00    -0.054 A 
ATOM     21  C4A ROC d          -7.390  -0.178   7.974  0.00  0.00    -0.007 A 
ATOM     22  C7  ROC d          -6.205  -1.990   6.211  0.00  0.00    -0.081 A 
ATOM     23  H6  ROC d          -4.345  -1.468   7.207  0.00  0.00     0.087 H 
ATOM     24  C6  ROC d          -7.567  -1.770   6.163  0.00  0.00    -0.082 A 
ATOM     25  H5  ROC d          -5.743  -2.690   5.525  0.00  0.00     0.083 H 
ATOM     26  C5  ROC d          -8.169  -0.870   7.034  0.00  0.00    -0.071 A 
ATOM     27  H4  ROC d          -8.172  -2.304   5.439  0.00  0.00     0.083 H 
ATOM     28  H3  ROC d          -9.238  -0.704   6.987  0.00  0.00     0.084 H 
ATOM     29  C4  ROC d          -7.971   0.724   8.850  0.00  0.00    -0.068 A 
ATOM     30  C3  ROC d          -7.185   1.404   9.770  0.00  0.00    -0.050 A 
ATOM     31  H2  ROC d          -9.041   0.899   8.817  0.00  0.00     0.085 H 
ATOM     32  H1  ROC d          -7.638   2.114  10.452  0.00  0.00     0.087 H 
ENDBRANCH  14  17
ENDBRANCH  11  13
BRANCH  11  33
ATOM     33  CB  ROC d          -1.924   1.475  11.857  0.00  0.00     0.023 C 
ATOM     34  H9  ROC d          -2.451   1.214  12.787  0.00  0.00     0.049 H 
ATOM     35  H10 ROC d          -0.902   1.804  12.095  0.00  0.00     0.049 H 
BRANCH  33  36
ATOM     36  CG  ROC d          -1.847   0.219  10.958  0.00  0.00     0.151 C 
ATOM     37  OD1 ROC d          -2.824  -0.683  11.227  0.00  0.00    -0.178 OA
ATOM     38  ND2 ROC d          -0.793   0.321  10.098  0.00  0.00    -0.381 N 
ATOM     39  H11 ROC d          -0.606  -0.414   9.447  0.00  0.00     0.158 HD
ATOM     40  H12 ROC d          -0.207   1.131  10.120  0.00  0.00     0.158 HD
ENDBRANCH  33  36
ENDBRANCH  11  33
ENDBRANCH   8  11
ENDBRANCH   5   7
BRANCH   5  41
ATOM     41  CB1 ROC d          -0.158   5.790   9.617  0.00  0.00    -0.020 C 
ATOM     42  H17 ROC d           0.362   5.596   8.668  0.00  0.00     0.043 H 
ATOM     43  H18 ROC d           0.074   4.989  10.335  0.00  0.00     0.043 H 
BRANCH  41  44
ATOM     44  CG1 ROC d           0.331   7.139  10.192  0.00  0.00    -0.056 A 
ATOM     45  CD1 ROC d           0.377   8.278   9.411  0.00  0.00    -0.077 A 
ATOM     46  CE1 ROC d           0.835   9.498   9.959  0.00  0.00    -0.082 A 
ATOM     47  H19 ROC d           0.061   8.237   8.374  0.00  0.00     0.084 H 
ATOM     48  CZ  ROC d           1.241   9.561  11.287  0.00  0.00    -0.083 A 
ATOM     49  H21 ROC d           0.871  10.388   9.341  0.00  0.00     0.083 H 
ATOM     50  CE2 ROC d           1.198   8.423  12.070  0.00  0.00    -0.082 A 
ATOM     51  H23 ROC d           1.589  10.498  11.706  0.00  0.00     0.083 H 
ATOM     52  CD2 ROC d           0.744   7.208  11.523  0.00  0.00    -0.077 A 
ATOM     53  H22 ROC d           1.513   8.467  13.106  0.00  0.00     0.083 H 
ATOM     54  H20 ROC d           0.716   6.318  12.141  0.00  0.00     0.084 H 
ENDBRANCH  41  44
ENDBRANCH   5  41
ENDBRANCH   1   5
BRANCH   1  55
ATOM     55  CM  ROC d          -3.474   5.134   7.801  0.00  0.00     0.110 C 
ATOM     56  H25 ROC d          -4.163   5.944   8.084  0.00  0.00     0.080 H 
ATOM     57  H26 ROC d          -3.578   4.300   8.510  0.00  0.00     0.080 H 
BRANCH  55  58
ATOM     58  N11 ROC d          -3.856   4.650   6.456  0.00  0.00    -0.057 N 
ATOM     59  C21 ROC d          -4.141   5.743   5.483  0.00  0.00     0.167 C 
ATOM     60  C31 ROC d          -4.588   5.144   4.161  0.00  0.00    -0.027 C 
ATOM     61  H27 ROC d          -3.182   6.253   5.307  0.00  0.00     0.098 H 
ATOM     62  C3A ROC d          -5.697   4.122   4.220  0.00  0.00    -0.047 C 
ATOM     63  H28 ROC d          -3.713   4.660   3.702  0.00  0.00     0.037 H 
ATOM     64  H29 ROC d          -4.929   5.970   3.520  0.00  0.00     0.037 H 
ATOM     65  C41 ROC d          -7.067   4.794   4.446  0.00  0.00    -0.061 C 
ATOM     66  C7A ROC d          -5.387   3.071   5.243  0.00  0.00    -0.027 C 
ATOM     67  H30 ROC d          -5.739   3.622   3.242  0.00  0.00     0.040 H 
ATOM     68  C51 ROC d          -8.182   3.829   4.559  0.00  0.00    -0.065 C 
ATOM     69  H31 ROC d          -7.271   5.464   3.598  0.00  0.00     0.033 H 
ATOM     70  H32 ROC d          -7.019   5.382   5.375  0.00  0.00     0.033 H 
ATOM     71  C61 ROC d          -7.901   2.783   5.625  0.00  0.00    -0.065 C 
ATOM     72  H33 ROC d          -8.319   3.326   3.591  0.00  0.00     0.033 H 
ATOM     73  H34 ROC d          -9.100   4.372   4.824  0.00  0.00     0.033 H 
ATOM     74  C71 ROC d          -6.537   2.112   5.442  0.00  0.00    -0.060 C 
ATOM     75  H35 ROC d          -8.683   2.012   5.577  0.00  0.00     0.033 H 
ATOM     76  H36 ROC d          -7.925   3.269   6.611  0.00  0.00     0.033 H 
ATOM     77  H37 ROC d          -6.592   1.455   4.561  0.00  0.00     0.033 H 
ATOM     78  H38 ROC d          -6.329   1.508   6.337  0.00  0.00     0.033 H 
ATOM     79  C81 ROC d          -4.965   3.695   6.588  0.00  0.00     0.088 C 
ATOM     80  H39 ROC d          -4.533   2.490   4.865  0.00  0.00     0.043 H 
ATOM     81  H40 ROC d          -5.831   4.220   7.017  0.00  0.00     0.076 H 
ATOM     82  H41 ROC d          -4.653   2.887   7.266  0.00  0.00     0.076 H 
ATOM     83  H24 ROC d          -3.066   4.142   6.088  0.00  0.00     0.281 HD
BRANCH  59  84
ATOM     84  CC  ROC d          -5.117   6.824   5.924  0.00  0.00     0.183 C 
ATOM     85  O3  ROC d          -6.102   6.443   6.711  0.00  0.00    -0.175 OA
ATOM     86  N3  ROC d          -4.778   8.069   5.398  0.00  0.00    -0.362 N 
ATOM     87  H42 ROC d          -3.943   8.163   4.857  0.00  0.00     0.162 HD
BRANCH  86  88
ATOM     88  CD  ROC d          -5.646   9.273   5.630  0.00  0.00     0.021 C 
BRANCH  88  89
ATOM     89  C11 ROC d          -6.984   8.928   5.068  0.00  0.00    -0.054 C 
ATOM     90  H43 ROC d          -6.965   7.899   4.681  0.00  0.00     0.030 H 
ATOM     91  H44 ROC d          -7.229   9.623   4.251  0.00  0.00     0.030 H 
ATOM     92  H45 ROC d          -7.745   9.008   5.858  0.00  0.00     0.030 H 
ENDBRANCH  88  89
BRANCH  88  93
ATOM     93  C22 ROC d          -5.092  10.480   4.925  0.00  0.00    -0.054 C 
ATOM     94  H46 ROC d          -5.074  10.296   3.841  0.00  0.00     0.030 H 
ATOM     95  H47 ROC d          -4.070  10.675   5.281  0.00  0.00     0.030 H 
ATOM     96  H48 ROC d          -5.727  11.352   5.138  0.00  0.00     0.030 H 
ENDBRANCH  88  93
BRANCH  88  97
ATOM     97  C32 ROC d          -5.783   9.573   7.110  0.00  0.00    -0.054 C 
ATOM     98  H49 ROC d          -6.803   9.926   7.320  0.00  0.00     0.030 H 
ATOM     99  H50 ROC d          -5.060  10.352   7.395  0.00  0.00     0.030 H 
ATOM    100  H51 ROC d          -5.583   8.659   7.690  0.00  0.00     0.030 H 
ENDBRANCH  88  97
ENDBRANCH  86  88
ENDBRANCH  59  84
ENDBRANCH  55  58
ENDBRANCH   1  55
TORSDOF 17
ENDMDL
MODEL 8
REMARK VINA RESULT:      -8.1      1.345      3.237
REMARK  17 active torsions:
REMARK  status: ('A' for Active; 'I' for Inactive)
REMARK    1  A    between atoms: C_1  and  C2_4 
REMARK    2  A    between atoms: CA_14  and  N_13 
REMARK    3  A    between atoms: C1_15  and  CA_14 
REMARK    4  A    between atoms: CA_14  and  CB_17 
REMARK       I    between atoms: N2_24  and  C1_15 
REMARK    5  A    between atoms: CB_17  and  CG_18 
REMARK    6  A    between atoms: C9_21  and  O2_22 
REMARK    7  A    between atoms: CA1_23  and  C9_21 
REMARK    8  A    between atoms: C9_21  and  CM_33 
REMARK    9  A    between atoms: CA1_23  and  N2_24 
REMARK   10  A    between atoms: CA1_23  and  CB1_25 
REMARK   11  A    between atoms: CB1_25  and  CG1_26 
REMARK   12  A    between atoms: CM_33  and  N11_32 
REMARK   13  A    between atoms: C21_34  and  CC_35 
REMARK       I    between atoms: CC_35  and  N3_45 
REMARK   14  A    between atoms: N3_45  and  CD_46 
REMARK   15  A    between atoms: CD_46  and  C11_47 
REMARK   16  A    between atoms: CD_46  and  C22_48 
REMARK   17  A    between atoms: CD_46  and  C32_49 
ROOT
ATOM      1  C9  ROC d           1.119   6.298   9.291  0.00  0.00     0.078 C 
ATOM      2  H13 ROC d           0.998   6.303   8.198  0.00  0.00     0.088 H 
ENDROOT
BRANCH   1   3
ATOM      3  O2  ROC d           2.299   5.639   9.644  0.00  0.00    -0.392 OA
ATOM      4  H14 ROC d           2.693   5.261   8.867  0.00  0.00     0.210 HD
ENDBRANCH   1   3
BRANCH   1   5
ATOM      5  CA1 ROC d          -0.055   5.555   9.946  0.00  0.00     0.041 C 
ATOM      6  H15 ROC d          -0.601   6.300  10.543  0.00  0.00     0.076 H 
BRANCH   5   7
ATOM      7  N2  ROC d          -0.989   5.072   8.904  0.00  0.00    -0.363 N 
ATOM      8  C1  ROC d          -1.832   6.008   8.325  0.00  0.00     0.175 C 
ATOM      9  O1  ROC d          -1.940   7.338   8.398  0.00  0.00    -0.175 OA
ATOM     10  H16 ROC d          -1.011   4.111   8.629  0.00  0.00     0.162 HD
BRANCH   8  11
ATOM     11  CA  ROC d          -2.851   5.358   7.386  0.00  0.00     0.083 C 
ATOM     12  H8  ROC d          -2.349   5.210   6.419  0.00  0.00     0.086 H 
BRANCH  11  13
ATOM     13  N   ROC d          -3.229   4.059   7.886  0.00  0.00    -0.354 N 
ATOM     14  C   ROC d          -3.644   3.164   6.952  0.00  0.00     0.204 C 
ATOM     15  O   ROC d          -3.697   3.129   5.625  0.00  0.00    -0.170 OA
ATOM     16  H7  ROC d          -3.188   3.832   8.859  0.00  0.00     0.162 HD
BRANCH  14  17
ATOM     17  C2  ROC d          -4.223   1.914   7.622  0.00  0.00     0.111 A 
ATOM     18  N1  ROC d          -5.183   2.067   8.589  0.00  0.00    -0.244 NA
ATOM     19  C8A ROC d          -5.722   0.964   9.231  0.00  0.00     0.068 A 
ATOM     20  C8  ROC d          -6.683   1.151  10.202  0.00  0.00    -0.054 A 
ATOM     21  C4A ROC d          -5.288  -0.317   8.890  0.00  0.00    -0.007 A 
ATOM     22  C7  ROC d          -7.232   0.027  10.863  0.00  0.00    -0.081 A 
ATOM     23  H6  ROC d          -7.014   2.151  10.458  0.00  0.00     0.087 H 
ATOM     24  C6  ROC d          -6.808  -1.242  10.526  0.00  0.00    -0.082 A 
ATOM     25  H5  ROC d          -7.985   0.162  11.632  0.00  0.00     0.083 H 
ATOM     26  C5  ROC d          -5.840  -1.427   9.546  0.00  0.00    -0.071 A 
ATOM     27  H4  ROC d          -7.233  -2.103  11.030  0.00  0.00     0.083 H 
ATOM     28  H3  ROC d          -5.513  -2.428   9.289  0.00  0.00     0.084 H 
ATOM     29  C4  ROC d          -4.321  -0.480   7.911  0.00  0.00    -0.068 A 
ATOM     30  C3  ROC d          -3.782   0.630   7.275  0.00  0.00    -0.050 A 
ATOM     31  H2  ROC d          -3.986  -1.475   7.641  0.00  0.00     0.085 H 
ATOM     32  H1  ROC d          -3.022   0.504   6.513  0.00  0.00     0.087 H 
ENDBRANCH  14  17
ENDBRANCH  11  13
BRANCH  11  33
ATOM     33  CB  ROC d          -4.093   6.219   7.120  0.00  0.00     0.023 C 
ATOM     34  H9  ROC d          -4.076   7.086   7.797  0.00  0.00     0.049 H 
ATOM     35  H10 ROC d          -4.992   5.617   7.319  0.00  0.00     0.049 H 
BRANCH  33  36
ATOM     36  CG  ROC d          -4.146   6.727   5.660  0.00  0.00     0.151 C 
ATOM     37  OD1 ROC d          -4.806   7.905   5.535  0.00  0.00    -0.178 OA
ATOM     38  ND2 ROC d          -3.508   5.849   4.835  0.00  0.00    -0.381 N 
ATOM     39  H11 ROC d          -3.454   6.034   3.854  0.00  0.00     0.158 HD
ATOM     40  H12 ROC d          -3.095   5.019   5.211  0.00  0.00     0.158 HD
ENDBRANCH  33  36
ENDBRANCH  11  33
ENDBRANCH   8  11
ENDBRANCH   5   7
BRANCH   5  41
ATOM     41  CB1 ROC d           0.351   4.453  10.921  0.00  0.00    -0.020 C 
ATOM     42  H17 ROC d           0.312   4.848  11.947  0.00  0.00     0.043 H 
ATOM     43  H18 ROC d           1.378   4.130  10.691  0.00  0.00     0.043 H 
BRANCH  41  44
ATOM     44  CG1 ROC d          -0.596   3.237  10.814  0.00  0.00    -0.056 A 
ATOM     45  CD1 ROC d          -1.936   3.340  11.134  0.00  0.00    -0.077 A 
ATOM     46  CE1 ROC d          -2.780   2.210  11.035  0.00  0.00    -0.082 A 
ATOM     47  H19 ROC d          -2.342   4.290  11.463  0.00  0.00     0.084 H 
ATOM     48  CZ  ROC d          -2.268   0.989  10.613  0.00  0.00    -0.083 A 
ATOM     49  H21 ROC d          -3.830   2.296  11.289  0.00  0.00     0.083 H 
ATOM     50  CE2 ROC d          -0.928   0.881  10.293  0.00  0.00    -0.082 A 
ATOM     51  H23 ROC d          -2.918   0.124  10.534  0.00  0.00     0.083 H 
ATOM     52  CD2 ROC d          -0.088   2.006  10.395  0.00  0.00    -0.077 A 
ATOM     53  H22 ROC d          -0.524  -0.069   9.964  0.00  0.00     0.083 H 
ATOM     54  H20 ROC d           0.964   1.916  10.147  0.00  0.00     0.084 H 
ENDBRANCH  41  44
ENDBRANCH   5  41
ENDBRANCH   1   5
BRANCH   1  55
ATOM     55  CM  ROC d           1.181   7.708   9.803  0.00  0.00     0.110 C 
ATOM     56  H25 ROC d           0.349   8.274   9.357  0.00  0.00     0.080 H 
ATOM     57  H26 ROC d           2.137   8.149   9.484  0.00  0.00     0.080 H 
BRANCH  55  58
ATOM     58  N11 ROC d           1.085   7.825  11.275  0.00  0.00    -0.057 N 
ATOM     59  C21 ROC d           0.429   9.083  11.736  0.00  0.00     0.167 C 
ATOM     60  C31 ROC d           0.443   9.137  13.253  0.00  0.00    -0.027 C 
ATOM     61  H27 ROC d          -0.621   9.013  11.416  0.00  0.00     0.098 H 
ATOM     62  C3A ROC d           1.771   8.899  13.928  0.00  0.00    -0.047 C 
ATOM     63  H28 ROC d          -0.259   8.373  13.619  0.00  0.00     0.037 H 
ATOM     64  H29 ROC d           0.089  10.134  13.553  0.00  0.00     0.037 H 
ATOM     65  C41 ROC d           2.685  10.137  13.818  0.00  0.00    -0.061 C 
ATOM     66  C7A ROC d           2.411   7.651  13.400  0.00  0.00    -0.027 C 
ATOM     67  H30 ROC d           1.575   8.737  14.998  0.00  0.00     0.040 H 
ATOM     68  C51 ROC d           4.019   9.936  14.425  0.00  0.00    -0.065 C 
ATOM     69  H31 ROC d           2.195  10.979  14.326  0.00  0.00     0.033 H 
ATOM     70  H32 ROC d           2.820  10.378  12.753  0.00  0.00     0.033 H 
ATOM     71  C61 ROC d           4.700   8.699  13.865  0.00  0.00    -0.065 C 
ATOM     72  H33 ROC d           3.904   9.821  15.512  0.00  0.00     0.033 H 
ATOM     73  H34 ROC d           4.645  10.816  14.213  0.00  0.00     0.033 H 
ATOM     74  C71 ROC d           3.809   7.455  13.939  0.00  0.00    -0.060 C 
ATOM     75  H35 ROC d           5.618   8.510  14.440  0.00  0.00     0.033 H 
ATOM     76  H36 ROC d           4.959   8.884  12.812  0.00  0.00     0.033 H 
ATOM     77  H37 ROC d           3.731   7.152  14.994  0.00  0.00     0.033 H 
ATOM     78  H38 ROC d           4.291   6.653  13.362  0.00  0.00     0.033 H 
ATOM     79  C81 ROC d           2.419   7.625  11.860  0.00  0.00     0.088 C 
ATOM     80  H39 ROC d           1.803   6.802  13.744  0.00  0.00     0.043 H 
ATOM     81  H40 ROC d           3.083   8.425  11.499  0.00  0.00     0.076 H 
ATOM     82  H41 ROC d           2.804   6.650  11.528  0.00  0.00     0.076 H 
ATOM     83  H24 ROC d           0.502   7.067  11.595  0.00  0.00     0.281 HD
BRANCH  59  84
ATOM     84  CC  ROC d           0.958  10.388  11.161  0.00  0.00     0.183 C 
ATOM     85  O3  ROC d           0.455  11.499  11.661  0.00  0.00    -0.175 OA
ATOM     86  N3  ROC d           1.916  10.166  10.175  0.00  0.00    -0.362 N 
ATOM     87  H42 ROC d           2.208   9.231   9.975  0.00  0.00     0.162 HD
BRANCH  86  88
ATOM     88  CD  ROC d           2.520  11.307   9.405  0.00  0.00     0.021 C 
BRANCH  88  89
ATOM     89  C11 ROC d           1.435  11.824   8.521  0.00  0.00    -0.054 C 
ATOM     90  H43 ROC d           1.386  11.215   7.607  0.00  0.00     0.030 H 
ATOM     91  H44 ROC d           1.647  12.870   8.255  0.00  0.00     0.030 H 
ATOM     92  H45 ROC d           0.473  11.768   9.050  0.00  0.00     0.030 H 
ENDBRANCH  88  89
BRANCH  88  93
ATOM     93  C22 ROC d           3.679  10.841   8.571  0.00  0.00    -0.054 C 
ATOM     94  H46 ROC d           3.304  10.366   7.653  0.00  0.00     0.030 H 
ATOM     95  H47 ROC d           4.274  10.113   9.144  0.00  0.00     0.030 H 
ATOM     96  H48 ROC d           4.311  11.701   8.307  0.00  0.00     0.030 H 
ENDBRANCH  88  93
BRANCH  88  97
ATOM     97  C32 ROC d           2.981  12.412  10.336  0.00  0.00    -0.054 C 
ATOM     98  H49 ROC d           2.465  13.349  10.078  0.00  0.00     0.030 H 
ATOM     99  H50 ROC d           4.067  12.551  10.231  0.00  0.00     0.030 H 
ATOM    100  H51 ROC d           2.746  12.138  11.376  0.00  0.00     0.030 H 
ENDBRANCH  88  97
ENDBRANCH  86  88
ENDBRANCH  59  84
ENDBRANCH  55  58
ENDBRANCH   1  55
TORSDOF 17
ENDMDL
MODEL 9
REMARK VINA RESULT:      -7.9      1.920      2.617
REMARK  17 active torsions:
REMARK  status: ('A' for Active; 'I' for Inactive)
REMARK    1  A    between atoms: C_1  and  C2_4 
REMARK    2  A    between atoms: CA_14  and  N_13 
REMARK    3  A    between atoms: C1_15  and  CA_14 
REMARK    4  A    between atoms: CA_14  and  CB_17 
REMARK       I    between atoms: N2_24  and  C1_15 
REMARK    5  A    between atoms: CB_17  and  CG_18 
REMARK    6  A    between atoms: C9_21  and  O2_22 
REMARK    7  A    between atoms: CA1_23  and  C9_21 
REMARK    8  A    between atoms: C9_21  and  CM_33 
REMARK    9  A    between atoms: CA1_23  and  N2_24 
REMARK   10  A    between atoms: CA1_23  and  CB1_25 
REMARK   11  A    between atoms: CB1_25  and  CG1_26 
REMARK   12  A    between atoms: CM_33  and  N11_32 
REMARK   13  A    between atoms: C21_34  and  CC_35 
REMARK       I    between atoms: CC_35  and  N3_45 
REMARK   14  A    between atoms: N3_45  and  CD_46 
REMARK   15  A    between atoms: CD_46  and  C11_47 
REMARK   16  A    between atoms: CD_46  and  C22_48 
REMARK   17  A    between atoms: CD_46  and  C32_49 
ROOT
ATOM      1  C9  ROC d          -1.165   6.829   8.929  0.00  0.00     0.078 C 
ATOM      2  H13 ROC d          -1.635   7.613   9.541  0.00  0.00     0.088 H 
ENDROOT
BRANCH   1   3
ATOM      3  O2  ROC d          -1.165   7.203   7.583  0.00  0.00    -0.392 OA
ATOM      4  H14 ROC d          -0.752   6.521   7.067  0.00  0.00     0.210 HD
ENDBRANCH   1   3
BRANCH   1   5
ATOM      5  CA1 ROC d          -1.955   5.518   9.059  0.00  0.00     0.041 C 
ATOM      6  H15 ROC d          -2.622   5.641   9.926  0.00  0.00     0.076 H 
BRANCH   5   7
ATOM      7  N2  ROC d          -2.822   5.333   7.873  0.00  0.00    -0.363 N 
ATOM      8  C1  ROC d          -3.920   6.172   7.753  0.00  0.00     0.175 C 
ATOM      9  O1  ROC d          -4.353   7.243   8.424  0.00  0.00    -0.175 OA
ATOM     10  H16 ROC d          -2.624   4.633   7.187  0.00  0.00     0.162 HD
BRANCH   8  11
ATOM     11  CA  ROC d          -4.817   5.775   6.579  0.00  0.00     0.083 C 
ATOM     12  H8  ROC d          -4.207   5.850   5.667  0.00  0.00     0.086 H 
BRANCH  11  13
ATOM     13  N   ROC d          -5.235   4.402   6.715  0.00  0.00    -0.354 N 
ATOM     14  C   ROC d          -5.660   3.798   5.575  0.00  0.00     0.204 C 
ATOM     15  O   ROC d          -5.695   4.116   4.285  0.00  0.00    -0.170 OA
ATOM     16  H7  ROC d          -5.213   3.924   7.593  0.00  0.00     0.162 HD
BRANCH  14  17
ATOM     17  C2  ROC d          -6.279   2.431   5.885  0.00  0.00     0.111 A 
ATOM     18  N1  ROC d          -5.510   1.486   6.512  0.00  0.00    -0.244 NA
ATOM     19  C8A ROC d          -6.025   0.231   6.798  0.00  0.00     0.068 A 
ATOM     20  C8  ROC d          -5.225  -0.700   7.426  0.00  0.00    -0.054 A 
ATOM     21  C4A ROC d          -7.340  -0.074   6.448  0.00  0.00    -0.007 A 
ATOM     22  C7  ROC d          -5.746  -1.984   7.715  0.00  0.00    -0.081 A 
ATOM     23  H6  ROC d          -4.205  -0.452   7.694  0.00  0.00     0.087 H 
ATOM     24  C6  ROC d          -7.048  -2.288   7.374  0.00  0.00    -0.082 A 
ATOM     25  H5  ROC d          -5.124  -2.726   8.204  0.00  0.00     0.083 H 
ATOM     26  C5  ROC d          -7.852  -1.347   6.742  0.00  0.00    -0.071 A 
ATOM     27  H4  ROC d          -7.448  -3.270   7.601  0.00  0.00     0.083 H 
ATOM     28  H3  ROC d          -8.873  -1.596   6.477  0.00  0.00     0.084 H 
ATOM     29  C4  ROC d          -8.125   0.878   5.818  0.00  0.00    -0.068 A 
ATOM     30  C3  ROC d          -7.601   2.131   5.530  0.00  0.00    -0.050 A 
ATOM     31  H2  ROC d          -9.149   0.644   5.549  0.00  0.00     0.085 H 
ATOM     32  H1  ROC d          -8.212   2.875   5.032  0.00  0.00     0.087 H 
ENDBRANCH  14  17
ENDBRANCH  11  13
BRANCH  11  33
ATOM     33  CB  ROC d          -6.031   6.694   6.382  0.00  0.00     0.023 C 
ATOM     34  H9  ROC d          -6.268   7.179   7.341  0.00  0.00     0.049 H 
ATOM     35  H10 ROC d          -6.888   6.085   6.057  0.00  0.00     0.049 H 
BRANCH  33  36
ATOM     36  CG  ROC d          -5.766   7.788   5.322  0.00  0.00     0.151 C 
ATOM     37  OD1 ROC d          -6.773   7.906   4.422  0.00  0.00    -0.178 OA
ATOM     38  ND2 ROC d          -4.558   8.379   5.551  0.00  0.00    -0.381 N 
ATOM     39  H11 ROC d          -4.237   9.110   4.949  0.00  0.00     0.158 HD
ATOM     40  H12 ROC d          -3.992   8.079   6.319  0.00  0.00     0.158 HD
ENDBRANCH  33  36
ENDBRANCH  11  33
ENDBRANCH   8  11
ENDBRANCH   5   7
BRANCH   5  41
ATOM     41  CB1 ROC d          -1.104   4.287   9.357  0.00  0.00    -0.020 C 
ATOM     42  H17 ROC d          -0.203   4.597   9.907  0.00  0.00     0.043 H 
ATOM     43  H18 ROC d          -0.810   3.815   8.407  0.00  0.00     0.043 H 
BRANCH  41  44
ATOM     44  CG1 ROC d          -1.885   3.261  10.208  0.00  0.00    -0.056 A 
ATOM     45  CD1 ROC d          -3.112   3.574  10.763  0.00  0.00    -0.077 A 
ATOM     46  CE1 ROC d          -3.803   2.620  11.544  0.00  0.00    -0.082 A 
ATOM     47  H19 ROC d          -3.546   4.554  10.598  0.00  0.00     0.084 H 
ATOM     48  CZ  ROC d          -3.255   1.361  11.759  0.00  0.00    -0.083 A 
ATOM     49  H21 ROC d          -4.764   2.870  11.978  0.00  0.00     0.083 H 
ATOM     50  CE2 ROC d          -2.028   1.045  11.207  0.00  0.00    -0.082 A 
ATOM     51  H23 ROC d          -3.788   0.629  12.355  0.00  0.00     0.083 H 
ATOM     52  CD2 ROC d          -1.338   1.997  10.432  0.00  0.00    -0.077 A 
ATOM     53  H22 ROC d          -1.596   0.065  11.372  0.00  0.00     0.083 H 
ATOM     54  H20 ROC d          -0.374   1.745  10.005  0.00  0.00     0.084 H 
ENDBRANCH  41  44
ENDBRANCH   5  41
ENDBRANCH   1   5
BRANCH   1  55
ATOM     55  CM  ROC d           0.253   6.618   9.373  0.00  0.00     0.110 C 
ATOM     56  H25 ROC d           0.639   5.714   8.880  0.00  0.00     0.080 H 
ATOM     57  H26 ROC d           0.255   6.470  10.464  0.00  0.00     0.080 H 
BRANCH  55  58
ATOM     58  N11 ROC d           1.162   7.743   9.057  0.00  0.00    -0.057 N 
ATOM     59  C21 ROC d           2.297   7.884  10.014  0.00  0.00     0.167 C 
ATOM     60  C31 ROC d           3.126   9.100   9.643  0.00  0.00    -0.027 C 
ATOM     61  H27 ROC d           2.930   6.996   9.870  0.00  0.00     0.098 H 
ATOM     62  C3A ROC d           2.378  10.395   9.441  0.00  0.00    -0.047 C 
ATOM     63  H28 ROC d           3.653   8.871   8.705  0.00  0.00     0.037 H 
ATOM     64  H29 ROC d           3.860   9.261  10.446  0.00  0.00     0.037 H 
ATOM     65  C41 ROC d           1.961  11.018  10.790  0.00  0.00    -0.061 C 
ATOM     66  C7A ROC d           1.221  10.192   8.510  0.00  0.00    -0.027 C 
ATOM     67  H30 ROC d           3.066  11.104   8.957  0.00  0.00     0.040 H 
ATOM     68  C51 ROC d           1.183  12.267  10.643  0.00  0.00    -0.065 C 
ATOM     69  H31 ROC d           2.870  11.240  11.367  0.00  0.00     0.033 H 
ATOM     70  H32 ROC d           1.348  10.287  11.337  0.00  0.00     0.033 H 
ATOM     71  C61 ROC d          -0.020  12.064   9.737  0.00  0.00    -0.065 C 
ATOM     72  H33 ROC d           1.830  13.044  10.211  0.00  0.00     0.033 H 
ATOM     73  H34 ROC d           0.833  12.589  11.635  0.00  0.00     0.033 H 
ATOM     74  C71 ROC d           0.357  11.427   8.397  0.00  0.00    -0.060 C 
ATOM     75  H35 ROC d          -0.485  13.042   9.544  0.00  0.00     0.033 H 
ATOM     76  H36 ROC d          -0.741  11.410  10.248  0.00  0.00     0.033 H 
ATOM     77  H37 ROC d           0.902  12.174   7.802  0.00  0.00     0.033 H 
ATOM     78  H38 ROC d          -0.571  11.149   7.876  0.00  0.00     0.033 H 
ATOM     79  C81 ROC d           0.372   8.974   8.917  0.00  0.00     0.088 C 
ATOM     80  H39 ROC d           1.638   9.988   7.512  0.00  0.00     0.043 H 
ATOM     81  H40 ROC d          -0.113   9.190   9.881  0.00  0.00     0.076 H 
ATOM     82  H41 ROC d          -0.398   8.811   8.149  0.00  0.00     0.076 H 
ATOM     83  H24 ROC d           1.573   7.547   8.157  0.00  0.00     0.281 HD
BRANCH  59  84
ATOM     84  CC  ROC d           1.952   7.918  11.495  0.00  0.00     0.183 C 
ATOM     85  O3  ROC d           0.674   7.826  11.805  0.00  0.00    -0.175 OA
ATOM     86  N3  ROC d           3.092   8.041  12.287  0.00  0.00    -0.362 N 
ATOM     87  H42 ROC d           3.993   8.037  11.854  0.00  0.00     0.162 HD
BRANCH  86  88
ATOM     88  CD  ROC d           2.991   8.180  13.779  0.00  0.00     0.021 C 
BRANCH  88  89
ATOM     89  C11 ROC d           2.276   6.961  14.257  0.00  0.00    -0.054 C 
ATOM     90  H43 ROC d           2.791   6.064  13.883  0.00  0.00     0.030 H 
ATOM     91  H44 ROC d           1.242   6.973  13.883  0.00  0.00     0.030 H 
ATOM     92  H45 ROC d           2.268   6.948  15.356  0.00  0.00     0.030 H 
ENDBRANCH  88  89
BRANCH  88  93
ATOM     93  C22 ROC d           2.212   9.409  14.155  0.00  0.00    -0.054 C 
ATOM     94  H46 ROC d           2.084  10.048  13.269  0.00  0.00     0.030 H 
ATOM     95  H47 ROC d           2.756   9.964  14.932  0.00  0.00     0.030 H 
ATOM     96  H48 ROC d           1.225   9.114  14.540  0.00  0.00     0.030 H 
ENDBRANCH  88  93
BRANCH  88  97
ATOM     97  C32 ROC d           4.366   8.241  14.417  0.00  0.00    -0.054 C 
ATOM     98  H49 ROC d           4.413   7.529  15.254  0.00  0.00     0.030 H 
ATOM     99  H50 ROC d           4.552   9.258  14.790  0.00  0.00     0.030 H 
ATOM    100  H51 ROC d           5.129   7.979  13.669  0.00  0.00     0.030 H 
ENDBRANCH  88  97
ENDBRANCH  86  88
ENDBRANCH  59  84
ENDBRANCH  55  58
ENDBRANCH   1  55
TORSDOF 17
ENDMDL
MODEL 10
REMARK VINA RESULT:      -7.9      3.084      5.811
REMARK  17 active torsions:
REMARK  status: ('A' for Active; 'I' for Inactive)
REMARK    1  A    between atoms: C_1  and  C2_4 
REMARK    2  A    between atoms: CA_14  and  N_13 
REMARK    3  A    between atoms: C1_15  and  CA_14 
REMARK    4  A    between atoms: CA_14  and  CB_17 
REMARK       I    between atoms: N2_24  and  C1_15 
REMARK    5  A    between atoms: CB_17  and  CG_18 
REMARK    6  A    between atoms: C9_21  and  O2_22 
REMARK    7  A    between atoms: CA1_23  and  C9_21 
REMARK    8  A    between atoms: C9_21  and  CM_33 
REMARK    9  A    between atoms: CA1_23  and  N2_24 
REMARK   10  A    between atoms: CA1_23  and  CB1_25 
REMARK   11  A    between atoms: CB1_25  and  CG1_26 
REMARK   12  A    between atoms: CM_33  and  N11_32 
REMARK   13  A    between atoms: C21_34  and  CC_35 
REMARK       I    between atoms: CC_35  and  N3_45 
REMARK   14  A    between atoms: N3_45  and  CD_46 
REMARK   15  A    between atoms: CD_46  and  C11_47 
REMARK   16  A    between atoms: CD_46  and  C22_48 
REMARK   17  A    between atoms: CD_46  and  C32_49 
ROOT
ATOM      1  C9  ROC d          -0.916   6.383   9.601  0.00  0.00     0.078 C 
ATOM      2  H13 ROC d          -1.388   7.079  10.310  0.00  0.00     0.088 H 
ENDROOT
BRANCH   1   3
ATOM      3  O2  ROC d          -0.915   6.929   8.315  0.00  0.00    -0.392 OA
ATOM      4  H14 ROC d          -0.797   7.870   8.373  0.00  0.00     0.210 HD
ENDBRANCH   1   3
BRANCH   1   5
ATOM      5  CA1 ROC d          -1.703   5.064   9.557  0.00  0.00     0.041 C 
ATOM      6  H15 ROC d          -2.427   5.106  10.385  0.00  0.00     0.076 H 
BRANCH   5   7
ATOM      7  N2  ROC d          -2.488   4.988   8.304  0.00  0.00    -0.363 N 
ATOM      8  C1  ROC d          -3.544   5.875   8.162  0.00  0.00     0.175 C 
ATOM      9  O1  ROC d          -3.987   6.920   8.869  0.00  0.00    -0.175 OA
ATOM     10  H16 ROC d          -2.266   4.325   7.590  0.00  0.00     0.162 HD
BRANCH   8  11
ATOM     11  CA  ROC d          -4.368   5.588   6.905  0.00  0.00     0.083 C 
ATOM     12  H8  ROC d          -5.145   4.862   7.187  0.00  0.00     0.086 H 
BRANCH  11  13
ATOM     13  N   ROC d          -5.031   6.789   6.460  0.00  0.00    -0.354 N 
ATOM     14  C   ROC d          -6.270   6.618   5.929  0.00  0.00     0.204 C 
ATOM     15  O   ROC d          -7.119   5.603   5.802  0.00  0.00    -0.170 OA
ATOM     16  H7  ROC d          -4.606   7.691   6.537  0.00  0.00     0.162 HD
BRANCH  14  17
ATOM     17  C2  ROC d          -6.772   7.920   5.298  0.00  0.00     0.111 A 
ATOM     18  N1  ROC d          -6.268   9.111   5.754  0.00  0.00    -0.244 NA
ATOM     19  C8A ROC d          -6.706  10.313   5.221  0.00  0.00     0.068 A 
ATOM     20  C8  ROC d          -6.185  11.495   5.704  0.00  0.00    -0.054 A 
ATOM     21  C4A ROC d          -7.665  10.314   4.209  0.00  0.00    -0.007 A 
ATOM     22  C7  ROC d          -6.632  12.725   5.166  0.00  0.00    -0.081 A 
ATOM     23  H6  ROC d          -5.438  11.482   6.490  0.00  0.00     0.087 H 
ATOM     24  C6  ROC d          -7.579  12.730   4.162  0.00  0.00    -0.082 A 
ATOM     25  H5  ROC d          -6.233  13.660   5.541  0.00  0.00     0.083 H 
ATOM     26  C5  ROC d          -8.102  11.537   3.677  0.00  0.00    -0.071 A 
ATOM     27  H4  ROC d          -7.918  13.673   3.747  0.00  0.00     0.083 H 
ATOM     28  H3  ROC d          -8.845  11.552   2.889  0.00  0.00     0.084 H 
ATOM     29  C4  ROC d          -8.175   9.115   3.740  0.00  0.00    -0.068 A 
ATOM     30  C3  ROC d          -7.736   7.914   4.282  0.00  0.00    -0.050 A 
ATOM     31  H2  ROC d          -8.918   9.113   2.950  0.00  0.00     0.085 H 
ATOM     32  H1  ROC d          -8.138   6.975   3.919  0.00  0.00     0.087 H 
ENDBRANCH  14  17
ENDBRANCH  11  13
BRANCH  11  33
ATOM     33  CB  ROC d          -3.561   4.958   5.761  0.00  0.00     0.023 C 
ATOM     34  H9  ROC d          -2.511   4.866   6.076  0.00  0.00     0.049 H 
ATOM     35  H10 ROC d          -3.623   5.615   4.879  0.00  0.00     0.049 H 
BRANCH  33  36
ATOM     36  CG  ROC d          -4.092   3.557   5.378  0.00  0.00     0.151 C 
ATOM     37  OD1 ROC d          -3.333   2.551   5.877  0.00  0.00    -0.178 OA
ATOM     38  ND2 ROC d          -5.215   3.675   4.612  0.00  0.00    -0.381 N 
ATOM     39  H11 ROC d          -5.682   2.855   4.281  0.00  0.00     0.158 HD
ATOM     40  H12 ROC d          -5.570   4.581   4.382  0.00  0.00     0.158 HD
ENDBRANCH  33  36
ENDBRANCH  11  33
ENDBRANCH   8  11
ENDBRANCH   5   7
BRANCH   5  41
ATOM     41  CB1 ROC d          -0.865   3.812   9.797  0.00  0.00    -0.020 C 
ATOM     42  H17 ROC d          -0.093   4.035  10.549  0.00  0.00     0.043 H 
ATOM     43  H18 ROC d          -0.383   3.517   8.853  0.00  0.00     0.043 H 
BRANCH  41  44
ATOM     44  CG1 ROC d          -1.739   2.644  10.304  0.00  0.00    -0.056 A 
ATOM     45  CD1 ROC d          -1.419   1.955  11.458  0.00  0.00    -0.077 A 
ATOM     46  CE1 ROC d          -2.232   0.884  11.897  0.00  0.00    -0.082 A 
ATOM     47  H19 ROC d          -0.541   2.236  12.030  0.00  0.00     0.084 H 
ATOM     48  CZ  ROC d          -3.359   0.519  11.171  0.00  0.00    -0.083 A 
ATOM     49  H21 ROC d          -1.975   0.346  12.802  0.00  0.00     0.083 H 
ATOM     50  CE2 ROC d          -3.682   1.204  10.015  0.00  0.00    -0.082 A 
ATOM     51  H23 ROC d          -3.983  -0.300  11.510  0.00  0.00     0.083 H 
ATOM     52  CD2 ROC d          -2.870   2.268   9.577  0.00  0.00    -0.077 A 
ATOM     53  H22 ROC d          -4.560   0.922   9.446  0.00  0.00     0.083 H 
ATOM     54  H20 ROC d          -3.126   2.800   8.668  0.00  0.00     0.084 H 
ENDBRANCH  41  44
ENDBRANCH   5  41
ENDBRANCH   1   5
BRANCH   1  55
ATOM     55  CM  ROC d           0.502   6.119  10.016  0.00  0.00     0.110 C 
ATOM     56  H25 ROC d           0.792   5.126   9.641  0.00  0.00     0.080 H 
ATOM     57  H26 ROC d           0.546   6.123  11.115  0.00  0.00     0.080 H 
BRANCH  55  58
ATOM     58  N11 ROC d           1.478   7.109   9.509  0.00  0.00    -0.057 N 
ATOM     59  C21 ROC d           2.623   7.351  10.433  0.00  0.00     0.167 C 
ATOM     60  C31 ROC d           3.524   8.427   9.855  0.00  0.00    -0.027 C 
ATOM     61  H27 ROC d           3.199   6.414  10.456  0.00  0.00     0.098 H 
ATOM     62  C3A ROC d           2.857   9.708   9.418  0.00  0.00    -0.047 C 
ATOM     63  H28 ROC d           4.032   8.000   8.978  0.00  0.00     0.037 H 
ATOM     64  H29 ROC d           4.269   8.685  10.622  0.00  0.00     0.037 H 
ATOM     65  C41 ROC d           2.484  10.588  10.629  0.00  0.00    -0.061 C 
ATOM     66  C7A ROC d           1.686   9.412   8.530  0.00  0.00    -0.027 C 
ATOM     67  H30 ROC d           3.585  10.274   8.819  0.00  0.00     0.040 H 
ATOM     68  C51 ROC d           1.783  11.835  10.254  0.00  0.00    -0.065 C 
ATOM     69  H31 ROC d           3.407  10.855  11.164  0.00  0.00     0.033 H 
ATOM     70  H32 ROC d           1.829  10.007  11.295  0.00  0.00     0.033 H 
ATOM     71  C61 ROC d           0.567  11.547   9.390  0.00  0.00    -0.065 C 
ATOM     72  H33 ROC d           2.476  12.481   9.694  0.00  0.00     0.033 H 
ATOM     73  H34 ROC d           1.458  12.352  11.169  0.00  0.00     0.033 H 
ATOM     74  C71 ROC d           0.899  10.656   8.190  0.00  0.00    -0.060 C 
ATOM     75  H35 ROC d           0.162  12.501   9.021  0.00  0.00     0.033 H 
ATOM     76  H36 ROC d          -0.191  11.041  10.005  0.00  0.00     0.033 H 
ATOM     77  H37 ROC d           1.488  11.250   7.474  0.00  0.00     0.033 H 
ATOM     78  H38 ROC d          -0.046  10.347   7.720  0.00  0.00     0.033 H 
ATOM     79  C81 ROC d           0.764   8.341   9.144  0.00  0.00     0.088 C 
ATOM     80  H39 ROC d           2.086   9.006   7.588  0.00  0.00     0.043 H 
ATOM     81  H40 ROC d           0.298   8.758  10.049  0.00  0.00     0.076 H 
ATOM     82  H41 ROC d          -0.017   8.090   8.411  0.00  0.00     0.076 H 
ATOM     83  H24 ROC d           1.872   6.730   8.662  0.00  0.00     0.281 HD
BRANCH  59  84
ATOM     84  CC  ROC d           2.286   7.673  11.882  0.00  0.00     0.183 C 
ATOM     85  O3  ROC d           1.006   7.744  12.187  0.00  0.00    -0.175 OA
ATOM     86  N3  ROC d           3.434   7.837  12.653  0.00  0.00    -0.362 N 
ATOM     87  H42 ROC d           4.330   7.682  12.239  0.00  0.00     0.162 HD
BRANCH  86  88
ATOM     88  CD  ROC d           3.349   8.242  14.097  0.00  0.00     0.021 C 
BRANCH  88  89
ATOM     89  C11 ROC d           4.752   8.248  14.604  0.00  0.00    -0.054 C 
ATOM     90  H43 ROC d           5.051   9.279  14.843  0.00  0.00     0.030 H 
ATOM     91  H44 ROC d           5.422   7.841  13.832  0.00  0.00     0.030 H 
ATOM     92  H45 ROC d           4.817   7.628  15.510  0.00  0.00     0.030 H 
ENDBRANCH  88  89
BRANCH  88  93
ATOM     93  C22 ROC d           2.526   7.263  14.885  0.00  0.00    -0.054 C 
ATOM     94  H46 ROC d           1.503   7.235  14.482  0.00  0.00     0.030 H 
ATOM     95  H47 ROC d           2.496   7.573  15.940  0.00  0.00     0.030 H 
ATOM     96  H48 ROC d           2.976   6.262  14.811  0.00  0.00     0.030 H 
ENDBRANCH  88  93
BRANCH  88  97
ATOM     97  C32 ROC d           2.755   9.630  14.242  0.00  0.00    -0.054 C 
ATOM     98  H49 ROC d           2.925   9.997  15.265  0.00  0.00     0.030 H 
ATOM     99  H50 ROC d           1.674   9.589  14.042  0.00  0.00     0.030 H 
ATOM    100  H51 ROC d           3.235  10.312  13.523  0.00  0.00     0.030 H 
ENDBRANCH  88  97
ENDBRANCH  86  88
ENDBRANCH  59  84
ENDBRANCH  55  58
ENDBRANCH   1  55
TORSDOF 17
ENDMDL
