MODEL 1
REMARK VINA RESULT:     -11.6      0.000      0.000
REMARK  7 active torsions:
REMARK  status: ('A' for Active; 'I' for Inactive)
REMARK    1  A    between atoms: N12_26  and  C2_2 
REMARK       I    between atoms: C13_5  and  N12_26 
REMARK       I    between atoms: N14_27  and  C13_5 
REMARK    2  A    between atoms: C16_6  and  N14_27 
REMARK    3  A    between atoms: O22_12  and  C19_9 
REMARK    4  A    between atoms: C23_29  and  O22_12 
REMARK    5  A    between atoms: C29_31  and  C27_15 
REMARK    6  A    between atoms: N30_17  and  C31_18 
REMARK       I    between atoms: N30_17  and  C29_31 
REMARK    7  A    between atoms: C6_20  and  C7_21 
ROOT
ATOM      1  C16 BAX d         -20.527  -4.064  18.820  0.00  0.00     0.036 A 
ATOM      2  C17 BAX d         -19.812  -2.993  19.350  0.00  0.00    -0.054 A 
ATOM      3  C18 BAX d         -20.424  -2.059  20.192  0.00  0.00    -0.048 A 
ATOM      4  C19 BAX d         -21.797  -2.181  20.450  0.00  0.00     0.076 A 
ATOM      5  C20 BAX d         -22.519  -3.240  19.926  0.00  0.00    -0.048 A 
ATOM      6  C21 BAX d         -21.895  -4.178  19.115  0.00  0.00    -0.054 A 
ATOM      7  H4  BAX d         -18.761  -2.882  19.105  0.00  0.00     0.087 H 
ATOM      8  H5  BAX d         -19.848  -1.254  20.636  0.00  0.00     0.087 H 
ATOM      9  H6  BAX d         -23.576  -3.337  20.150  0.00  0.00     0.087 H 
ATOM     10  H7  BAX d         -22.467  -5.004  18.706  0.00  0.00     0.087 H 
ENDROOT
BRANCH   1  11
ATOM     11  N14 BAX d         -19.947  -4.980  18.026  0.00  0.00    -0.309 N 
ATOM     12  C13 BAX d         -18.694  -5.468  18.132  0.00  0.00     0.325 C 
ATOM     13  N12 BAX d         -18.359  -6.393  17.207  0.00  0.00    -0.309 N 
ATOM     14  O15 BAX d         -17.919  -5.103  19.033  0.00  0.00    -0.247 OA
ATOM     15  H15 BAX d         -19.054  -6.642  16.533  0.00  0.00     0.170 HD
ATOM     16  H16 BAX d         -20.504  -5.338  17.276  0.00  0.00     0.170 HD
BRANCH  13  17
ATOM     17  C2  BAX d         -17.145  -7.015  17.118  0.00  0.00     0.037 A 
ATOM     18  C1  BAX d         -16.362  -7.285  18.254  0.00  0.00    -0.041 A 
ATOM     19  C6  BAX d         -15.113  -7.918  18.140  0.00  0.00     0.071 A 
ATOM     20  H1  BAX d         -16.729  -7.001  19.234  0.00  0.00     0.088 H 
ATOM     21  C5  BAX d         -14.681  -8.299  16.876  0.00  0.00     0.049 A 
ATOM     22  C4  BAX d         -15.466  -8.066  15.723  0.00  0.00    -0.059 A 
ATOM     23 CL11 BAX d         -13.168  -9.084  16.729  0.00  0.00    -0.083 Cl
ATOM     24  C3  BAX d         -16.688  -7.421  15.864  0.00  0.00    -0.055 A 
ATOM     25  H3  BAX d         -15.120  -8.386  14.747  0.00  0.00     0.086 H 
ATOM     26  H2  BAX d         -17.294  -7.230  14.987  0.00  0.00     0.087 H 
BRANCH  19  27
ATOM     27  C7  BAX d         -14.261  -8.204  19.409  0.00  0.00     0.419 C 
ATOM     28  F8  BAX d         -14.906  -7.716  20.423  0.00  0.00    -0.166 F 
ATOM     29  F9  BAX d         -14.080  -9.509  19.611  0.00  0.00    -0.166 F 
ATOM     30  F10 BAX d         -13.087  -7.605  19.442  0.00  0.00    -0.166 F 
ENDBRANCH  19  27
ENDBRANCH  13  17
ENDBRANCH   1  11
BRANCH   4  31
ATOM     31  O22 BAX d         -22.466  -1.321  21.293  0.00  0.00    -0.311 OA
BRANCH  31  32
ATOM     32  C23 BAX d         -22.409   0.002  21.156  0.00  0.00     0.079 A 
ATOM     33  C24 BAX d         -22.402   0.606  19.907  0.00  0.00    -0.033 A 
ATOM     34  C25 BAX d         -22.369   2.003  19.855  0.00  0.00     0.006 A 
ATOM     35  H8  BAX d         -22.421   0.013  18.999  0.00  0.00     0.090 H 
ATOM     36  N26 BAX d         -22.349   2.709  20.981  0.00  0.00    -0.255 NA
ATOM     37  H9  BAX d         -22.360   2.510  18.896  0.00  0.00     0.114 H 
ATOM     38  C27 BAX d         -22.375   2.149  22.207  0.00  0.00     0.126 A 
ATOM     39  C28 BAX d         -22.417   0.760  22.317  0.00  0.00    -0.017 A 
ATOM     40  H10 BAX d         -22.454   0.283  23.290  0.00  0.00     0.091 H 
BRANCH  38  41
ATOM     41  C29 BAX d         -22.358   3.035  23.466  0.00  0.00     0.269 C 
ATOM     42  N30 BAX d         -22.463   4.347  23.243  0.00  0.00    -0.360 N 
ATOM     43  H11 BAX d         -22.549   4.706  22.313  0.00  0.00     0.162 HD
ATOM     44  O32 BAX d         -22.258   2.532  24.581  0.00  0.00    -0.266 OA
BRANCH  42  45
ATOM     45  C31 BAX d         -22.450   5.252  24.403  0.00  0.00    -0.018 C 
ATOM     46  H12 BAX d         -22.544   6.293  24.058  0.00  0.00     0.056 H 
ATOM     47  H13 BAX d         -21.503   5.133  24.951  0.00  0.00     0.056 H 
ATOM     48  H14 BAX d         -23.291   5.008  25.069  0.00  0.00     0.056 H 
ENDBRANCH  42  45
ENDBRANCH  38  41
ENDBRANCH  31  32
ENDBRANCH   4  31
TORSDOF 7
ENDMDL
