MODEL 1
REMARK VINA RESULT:      -9.9      0.000      0.000
REMARK  7 active torsions:
REMARK  status: ('A' for Active; 'I' for Inactive)
REMARK    1  A    between atoms: N12_26  and  C2_2 
REMARK       I    between atoms: C13_5  and  N12_26 
REMARK       I    between atoms: N14_27  and  C13_5 
REMARK    2  A    between atoms: C16_6  and  N14_27 
REMARK    3  A    between atoms: O22_12  and  C19_9 
REMARK    4  A    between atoms: C23_29  and  O22_12 
REMARK    5  A    between atoms: C29_31  and  C27_15 
REMARK    6  A    between atoms: N30_17  and  C31_18 
REMARK       I    between atoms: N30_17  and  C29_31 
REMARK    7  A    between atoms: C6_20  and  C7_21 
ROOT
ATOM      1  C16 BAX d         -21.273  -3.585  19.557  0.00  0.00     0.036 A 
ATOM      2  C17 BAX d         -20.400  -2.684  20.163  0.00  0.00    -0.054 A 
ATOM      3  C18 BAX d         -20.878  -1.605  20.913  0.00  0.00    -0.048 A 
ATOM      4  C19 BAX d         -22.264  -1.405  20.999  0.00  0.00     0.076 A 
ATOM      5  C20 BAX d         -23.141  -2.292  20.398  0.00  0.00    -0.048 A 
ATOM      6  C21 BAX d         -22.655  -3.377  19.680  0.00  0.00    -0.054 A 
ATOM      7  H4  BAX d         -19.330  -2.822  20.050  0.00  0.00     0.087 H 
ATOM      8  H5  BAX d         -20.191  -0.936  21.419  0.00  0.00     0.087 H 
ATOM      9  H6  BAX d         -24.211  -2.140  20.490  0.00  0.00     0.087 H 
ATOM     10  H7  BAX d         -23.348  -4.066  19.211  0.00  0.00     0.087 H 
ENDROOT
BRANCH   1  11
ATOM     11  N14 BAX d         -20.826  -4.637  18.850  0.00  0.00    -0.309 N 
ATOM     12  C13 BAX d         -19.541  -4.967  18.610  0.00  0.00     0.325 C 
ATOM     13  N12 BAX d         -19.363  -6.085  17.875  0.00  0.00    -0.309 N 
ATOM     14  O15 BAX d         -18.594  -4.295  19.057  0.00  0.00    -0.247 OA
ATOM     15  H15 BAX d         -20.182  -6.575  17.577  0.00  0.00     0.170 HD
ATOM     16  H16 BAX d         -21.523  -5.240  18.460  0.00  0.00     0.170 HD
BRANCH  13  17
ATOM     17  C2  BAX d         -18.153  -6.602  17.506  0.00  0.00     0.037 A 
ATOM     18  C1  BAX d         -17.256  -7.141  18.445  0.00  0.00    -0.041 A 
ATOM     19  C6  BAX d         -16.012  -7.658  18.046  0.00  0.00     0.071 A 
ATOM     20  H1  BAX d         -17.528  -7.157  19.495  0.00  0.00     0.088 H 
ATOM     21  C5  BAX d         -15.701  -7.653  16.692  0.00  0.00     0.049 A 
ATOM     22  C4  BAX d         -16.601  -7.146  15.727  0.00  0.00    -0.059 A 
ATOM     23 CL11 BAX d         -14.195  -8.296  16.195  0.00  0.00    -0.083 Cl
ATOM     24  C3  BAX d         -17.815  -6.623  16.152  0.00  0.00    -0.055 A 
ATOM     25  H3  BAX d         -16.348  -7.167  14.673  0.00  0.00     0.086 H 
ATOM     26  H2  BAX d         -18.509  -6.224  15.422  0.00  0.00     0.087 H 
BRANCH  19  27
ATOM     27  C7  BAX d         -15.033  -8.246  19.102  0.00  0.00     0.419 C 
ATOM     28  F8  BAX d         -15.748  -8.661  20.100  0.00  0.00    -0.166 F 
ATOM     29  F9  BAX d         -14.334  -9.275  18.623  0.00  0.00    -0.166 F 
ATOM     30  F10 BAX d         -14.194  -7.377  19.632  0.00  0.00    -0.166 F 
ENDBRANCH  19  27
ENDBRANCH  13  17
ENDBRANCH   1  11
BRANCH   4  31
ATOM     31  O22 BAX d         -22.814  -0.386  21.745  0.00  0.00    -0.311 OA
BRANCH  31  32
ATOM     32  C23 BAX d         -22.560   0.898  21.497  0.00  0.00     0.079 A 
ATOM     33  C24 BAX d         -22.371   1.815  22.521  0.00  0.00    -0.033 A 
ATOM     34  C25 BAX d         -22.080   3.137  22.171  0.00  0.00     0.006 A 
ATOM     35  H8  BAX d         -22.446   1.516  23.560  0.00  0.00     0.090 H 
ATOM     36  N26 BAX d         -21.991   3.480  20.889  0.00  0.00    -0.255 NA
ATOM     37  H9  BAX d         -21.929   3.882  22.943  0.00  0.00     0.114 H 
ATOM     38  C27 BAX d         -22.150   2.607  19.875  0.00  0.00     0.126 A 
ATOM     39  C28 BAX d         -22.433   1.273  20.168  0.00  0.00    -0.017 A 
ATOM     40  H10 BAX d         -22.550   0.545  19.374  0.00  0.00     0.091 H 
BRANCH  38  41
ATOM     41  C29 BAX d         -22.023   3.078  18.415  0.00  0.00     0.269 C 
ATOM     42  N30 BAX d         -21.949   2.104  17.505  0.00  0.00    -0.360 N 
ATOM     43  H11 BAX d         -21.980   1.142  17.777  0.00  0.00     0.162 HD
ATOM     44  O32 BAX d         -21.998   4.276  18.146  0.00  0.00    -0.266 OA
BRANCH  42  45
ATOM     45  C31 BAX d         -21.821   2.485  16.089  0.00  0.00    -0.018 C 
ATOM     46  H12 BAX d         -21.042   3.255  15.986  0.00  0.00     0.056 H 
ATOM     47  H13 BAX d         -22.780   2.885  15.729  0.00  0.00     0.056 H 
ATOM     48  H14 BAX d         -21.545   1.602  15.495  0.00  0.00     0.056 H 
ENDBRANCH  42  45
ENDBRANCH  38  41
ENDBRANCH  31  32
ENDBRANCH   4  31
TORSDOF 7
ENDMDL
MODEL 2
REMARK VINA RESULT:      -9.7      1.217      2.711
REMARK  7 active torsions:
REMARK  status: ('A' for Active; 'I' for Inactive)
REMARK    1  A    between atoms: N12_26  and  C2_2 
REMARK       I    between atoms: C13_5  and  N12_26 
REMARK       I    between atoms: N14_27  and  C13_5 
REMARK    2  A    between atoms: C16_6  and  N14_27 
REMARK    3  A    between atoms: O22_12  and  C19_9 
REMARK    4  A    between atoms: C23_29  and  O22_12 
REMARK    5  A    between atoms: C29_31  and  C27_15 
REMARK    6  A    between atoms: N30_17  and  C31_18 
REMARK       I    between atoms: N30_17  and  C29_31 
REMARK    7  A    between atoms: C6_20  and  C7_21 
ROOT
ATOM      1  C16 BAX d         -21.549  -3.713  19.457  0.00  0.00     0.036 A 
ATOM      2  C17 BAX d         -22.922  -3.539  19.612  0.00  0.00    -0.054 A 
ATOM      3  C18 BAX d         -23.440  -2.430  20.290  0.00  0.00    -0.048 A 
ATOM      4  C19 BAX d         -22.547  -1.517  20.870  0.00  0.00     0.076 A 
ATOM      5  C20 BAX d         -21.180  -1.682  20.726  0.00  0.00    -0.048 A 
ATOM      6  C21 BAX d         -20.677  -2.771  20.026  0.00  0.00    -0.054 A 
ATOM      7  H4  BAX d         -23.602  -4.276  19.200  0.00  0.00     0.087 H 
ATOM      8  H5  BAX d         -24.511  -2.280  20.366  0.00  0.00     0.087 H 
ATOM      9  H6  BAX d         -20.500  -0.958  21.160  0.00  0.00     0.087 H 
ATOM     10  H7  BAX d         -19.606  -2.895  19.919  0.00  0.00     0.087 H 
ENDROOT
BRANCH   1  11
ATOM     11  N14 BAX d         -21.039  -4.763  18.792  0.00  0.00    -0.309 N 
ATOM     12  C13 BAX d         -19.737  -5.017  18.552  0.00  0.00     0.325 C 
ATOM     13  N12 BAX d         -19.490  -6.153  17.865  0.00  0.00    -0.309 N 
ATOM     14  O15 BAX d         -18.834  -4.265  18.960  0.00  0.00    -0.247 OA
ATOM     15  H15 BAX d         -20.277  -6.708  17.597  0.00  0.00     0.170 HD
ATOM     16  H16 BAX d         -21.697  -5.428  18.436  0.00  0.00     0.170 HD
BRANCH  13  17
ATOM     17  C2  BAX d         -18.251  -6.604  17.506  0.00  0.00     0.037 A 
ATOM     18  C1  BAX d         -17.378  -7.200  18.433  0.00  0.00    -0.041 A 
ATOM     19  C6  BAX d         -16.105  -7.648  18.045  0.00  0.00     0.071 A 
ATOM     20  H1  BAX d         -17.693  -7.316  19.464  0.00  0.00     0.088 H 
ATOM     21  C5  BAX d         -15.738  -7.516  16.711  0.00  0.00     0.049 A 
ATOM     22  C4  BAX d         -16.612  -6.949  15.755  0.00  0.00    -0.059 A 
ATOM     23 CL11 BAX d         -14.195  -8.074  16.226  0.00  0.00    -0.083 Cl
ATOM     24  C3  BAX d         -17.857  -6.496  16.171  0.00  0.00    -0.055 A 
ATOM     25  H3  BAX d         -16.315  -6.870  14.716  0.00  0.00     0.086 H 
ATOM     26  H2  BAX d         -18.532  -6.053  15.449  0.00  0.00     0.087 H 
BRANCH  19  27
ATOM     27  C7  BAX d         -15.153  -8.301  19.087  0.00  0.00     0.419 C 
ATOM     28  F8  BAX d         -14.389  -7.362  19.551  0.00  0.00    -0.166 F 
ATOM     29  F9  BAX d         -15.819  -8.848  20.104  0.00  0.00    -0.166 F 
ATOM     30  F10 BAX d         -14.319  -9.198  18.598  0.00  0.00    -0.166 F 
ENDBRANCH  19  27
ENDBRANCH  13  17
ENDBRANCH   1  11
BRANCH   4  31
ATOM     31  O22 BAX d         -22.977  -0.384  21.525  0.00  0.00    -0.311 OA
BRANCH  31  32
ATOM     32  C23 BAX d         -22.626   0.841  21.139  0.00  0.00     0.079 A 
ATOM     33  C24 BAX d         -22.494   1.174  19.799  0.00  0.00    -0.033 A 
ATOM     34  C25 BAX d         -22.149   2.491  19.481  0.00  0.00     0.006 A 
ATOM     35  H8  BAX d         -22.653   0.435  19.021  0.00  0.00     0.090 H 
ATOM     36  N26 BAX d         -21.962   3.380  20.452  0.00  0.00    -0.255 NA
ATOM     37  H9  BAX d         -22.033   2.786  18.445  0.00  0.00     0.114 H 
ATOM     38  C27 BAX d         -22.102   3.090  21.760  0.00  0.00     0.126 A 
ATOM     39  C28 BAX d         -22.454   1.793  22.132  0.00  0.00    -0.017 A 
ATOM     40  H10 BAX d         -22.590   1.535  23.177  0.00  0.00     0.091 H 
BRANCH  38  41
ATOM     41  C29 BAX d         -21.877   4.177  22.826  0.00  0.00     0.269 C 
ATOM     42  N30 BAX d         -22.626   4.063  23.926  0.00  0.00    -0.360 N 
ATOM     43  H11 BAX d         -23.280   3.313  24.027  0.00  0.00     0.162 HD
ATOM     44  O32 BAX d         -21.053   5.069  22.644  0.00  0.00    -0.266 OA
BRANCH  42  45
ATOM     45  C31 BAX d         -22.465   5.073  24.984  0.00  0.00    -0.018 C 
ATOM     46  H12 BAX d         -22.228   6.046  24.529  0.00  0.00     0.056 H 
ATOM     47  H13 BAX d         -21.646   4.774  25.654  0.00  0.00     0.056 H 
ATOM     48  H14 BAX d         -23.398   5.154  25.559  0.00  0.00     0.056 H 
ENDBRANCH  42  45
ENDBRANCH  38  41
ENDBRANCH  31  32
ENDBRANCH   4  31
TORSDOF 7
ENDMDL
MODEL 3
REMARK VINA RESULT:      -7.3      2.043      2.539
REMARK  7 active torsions:
REMARK  status: ('A' for Active; 'I' for Inactive)
REMARK    1  A    between atoms: N12_26  and  C2_2 
REMARK       I    between atoms: C13_5  and  N12_26 
REMARK       I    between atoms: N14_27  and  C13_5 
REMARK    2  A    between atoms: C16_6  and  N14_27 
REMARK    3  A    between atoms: O22_12  and  C19_9 
REMARK    4  A    between atoms: C23_29  and  O22_12 
REMARK    5  A    between atoms: C29_31  and  C27_15 
REMARK    6  A    between atoms: N30_17  and  C31_18 
REMARK       I    between atoms: N30_17  and  C29_31 
REMARK    7  A    between atoms: C6_20  and  C7_21 
ROOT
ATOM      1  C16 BAX d         -21.729  -3.172  19.539  0.00  0.00     0.036 A 
ATOM      2  C17 BAX d         -22.704  -3.035  20.524  0.00  0.00    -0.054 A 
ATOM      3  C18 BAX d         -23.298  -1.796  20.788  0.00  0.00    -0.048 A 
ATOM      4  C19 BAX d         -22.851  -0.670  20.082  0.00  0.00     0.076 A 
ATOM      5  C20 BAX d         -21.879  -0.794  19.102  0.00  0.00    -0.048 A 
ATOM      6  C21 BAX d         -21.317  -2.033  18.829  0.00  0.00    -0.054 A 
ATOM      7  H4  BAX d         -23.008  -3.904  21.096  0.00  0.00     0.087 H 
ATOM      8  H5  BAX d         -24.088  -1.709  21.525  0.00  0.00     0.087 H 
ATOM      9  H6  BAX d         -21.557   0.081  18.548  0.00  0.00     0.087 H 
ATOM     10  H7  BAX d         -20.556  -2.122  18.062  0.00  0.00     0.087 H 
ENDROOT
BRANCH   1  11
ATOM     11  N14 BAX d         -21.164  -4.359  19.261  0.00  0.00    -0.309 N 
ATOM     12  C13 BAX d         -19.909  -4.578  18.820  0.00  0.00     0.325 C 
ATOM     13  N12 BAX d         -19.586  -5.874  18.627  0.00  0.00    -0.309 N 
ATOM     14  O15 BAX d         -19.107  -3.647  18.629  0.00  0.00    -0.247 OA
ATOM     15  H15 BAX d         -20.287  -6.558  18.828  0.00  0.00     0.170 HD
ATOM     16  H16 BAX d         -21.737  -5.168  19.397  0.00  0.00     0.170 HD
BRANCH  13  17
ATOM     17  C2  BAX d         -18.376  -6.327  18.179  0.00  0.00     0.037 A 
ATOM     18  C1  BAX d         -18.093  -6.462  16.809  0.00  0.00    -0.041 A 
ATOM     19  C6  BAX d         -16.846  -6.938  16.370  0.00  0.00     0.071 A 
ATOM     20  H1  BAX d         -18.848  -6.193  16.079  0.00  0.00     0.088 H 
ATOM     21  C5  BAX d         -15.886  -7.247  17.325  0.00  0.00     0.049 A 
ATOM     22  C4  BAX d         -16.137  -7.089  18.707  0.00  0.00    -0.059 A 
ATOM     23 CL11 BAX d         -14.359  -7.813  16.799  0.00  0.00    -0.083 Cl
ATOM     24  C3  BAX d         -17.386  -6.634  19.113  0.00  0.00    -0.055 A 
ATOM     25  H3  BAX d         -15.370  -7.318  19.437  0.00  0.00     0.086 H 
ATOM     26  H2  BAX d         -17.593  -6.517  20.170  0.00  0.00     0.087 H 
BRANCH  19  27
ATOM     27  C7  BAX d         -16.554  -7.083  14.849  0.00  0.00     0.419 C 
ATOM     28  F8  BAX d         -16.826  -8.308  14.521  0.00  0.00    -0.166 F 
ATOM     29  F9  BAX d         -17.309  -6.269  14.111  0.00  0.00    -0.166 F 
ATOM     30  F10 BAX d         -15.293  -6.918  14.503  0.00  0.00    -0.166 F 
ENDBRANCH  19  27
ENDBRANCH  13  17
ENDBRANCH   1  11
BRANCH   4  31
ATOM     31  O22 BAX d         -23.407   0.578  20.261  0.00  0.00    -0.311 OA
BRANCH  31  32
ATOM     32  C23 BAX d         -22.681   1.641  20.602  0.00  0.00     0.079 A 
ATOM     33  C24 BAX d         -22.467   1.982  21.930  0.00  0.00    -0.033 A 
ATOM     34  C25 BAX d         -21.669   3.098  22.199  0.00  0.00     0.006 A 
ATOM     35  H8  BAX d         -22.905   1.402  22.734  0.00  0.00     0.090 H 
ATOM     36  N26 BAX d         -21.140   3.793  21.196  0.00  0.00    -0.255 NA
ATOM     37  H9  BAX d         -21.482   3.397  23.224  0.00  0.00     0.114 H 
ATOM     38  C27 BAX d         -21.315   3.473  19.899  0.00  0.00     0.126 A 
ATOM     39  C28 BAX d         -22.095   2.364  19.574  0.00  0.00    -0.017 A 
ATOM     40  H10 BAX d         -22.240   2.073  18.540  0.00  0.00     0.091 H 
BRANCH  38  41
ATOM     41  C29 BAX d         -20.662   4.322  18.794  0.00  0.00     0.269 C 
ATOM     42  N30 BAX d         -21.248   4.250  17.596  0.00  0.00    -0.360 N 
ATOM     43  H11 BAX d         -22.056   3.678  17.453  0.00  0.00     0.162 HD
ATOM     44  O32 BAX d         -19.674   5.010  19.036  0.00  0.00    -0.266 OA
BRANCH  42  45
ATOM     45  C31 BAX d         -20.672   5.034  16.492  0.00  0.00    -0.018 C 
ATOM     46  H12 BAX d         -20.362   6.021  16.867  0.00  0.00     0.056 H 
ATOM     47  H13 BAX d         -21.425   5.162  15.701  0.00  0.00     0.056 H 
ATOM     48  H14 BAX d         -19.798   4.505  16.084  0.00  0.00     0.056 H 
ENDBRANCH  42  45
ENDBRANCH  38  41
ENDBRANCH  31  32
ENDBRANCH   4  31
TORSDOF 7
ENDMDL
