MODEL 1
REMARK VINA RESULT:      -6.1      0.000      0.000
REMARK  10 active torsions:
REMARK  status: ('A' for Active; 'I' for Inactive)
REMARK    1  A    between atoms: C1_1  and  C2_2 
REMARK    2  A    between atoms: C4_4  and  O4_15 
REMARK    3  A    between atoms: C5_5  and  N5_12 
REMARK    4  A    between atoms: C6_6  and  C7_7 
REMARK    5  A    between atoms: C7_7  and  O7_17 
REMARK    6  A    between atoms: C7_7  and  C8_8 
REMARK    7  A    between atoms: C8_8  and  O8_18 
REMARK    8  A    between atoms: C8_8  and  C9_9 
REMARK    9  A    between atoms: C9_9  and  O9_19 
REMARK       I    between atoms: N5_12  and  C10_10 
REMARK   10  A    between atoms: C10_10  and  C11_11 
ROOT
ATOM      1  C2  DAN d          24.410  18.890  64.080  0.00  0.00     0.144 C 
ATOM      2  C3  DAN d          23.648  17.784  63.814  0.00  0.00    -0.035 C 
ATOM      3  C4  DAN d          24.048  16.698  62.766  0.00  0.00     0.076 C 
ATOM      4  C5  DAN d          25.560  16.699  62.521  0.00  0.00     0.068 C 
ATOM      5  C6  DAN d          26.049  18.182  62.331  0.00  0.00     0.094 C 
ATOM      6  O6  DAN d          25.669  18.999  63.498  0.00  0.00    -0.335 OA
ATOM      7  H1  DAN d          22.716  17.655  64.362  0.00  0.00     0.085 H 
ATOM      8  H2  DAN d          23.534  16.918  61.820  0.00  0.00     0.092 H 
ATOM      9  H3  DAN d          26.076  16.252  63.384  0.00  0.00     0.081 H 
ATOM     10  H4  DAN d          25.588  18.595  61.422  0.00  0.00     0.091 H 
ENDROOT
BRANCH   5  11
ATOM     11  C7  DAN d          27.611  18.263  62.208  0.00  0.00     0.089 C 
ATOM     12  H5  DAN d          27.876  18.163  61.144  0.00  0.00     0.091 H 
BRANCH  11  13
ATOM     13  O7  DAN d          28.286  17.248  62.948  0.00  0.00    -0.390 OA
ATOM     14  H14 DAN d          29.221  17.417  62.938  0.00  0.00     0.210 HD
ENDBRANCH  11  13
BRANCH  11  15
ATOM     15  C8  DAN d          28.115  19.566  62.723  0.00  0.00     0.083 C 
ATOM     16  H6  DAN d          27.786  19.691  63.765  0.00  0.00     0.090 H 
BRANCH  15  17
ATOM     17  O8  DAN d          27.568  20.578  61.946  0.00  0.00    -0.391 OA
ATOM     18  H15 DAN d          26.742  20.285  61.581  0.00  0.00     0.210 HD
ENDBRANCH  15  17
BRANCH  15  19
ATOM     19  C9  DAN d          29.651  19.633  62.682  0.00  0.00     0.043 C 
ATOM     20  H7  DAN d          30.054  19.150  63.585  0.00  0.00     0.078 H 
ATOM     21  H8  DAN d          29.963  20.688  62.659  0.00  0.00     0.078 H 
BRANCH  19  22
ATOM     22  O9  DAN d          30.172  18.968  61.528  0.00  0.00    -0.398 OA
ATOM     23  H16 DAN d          30.977  18.519  61.759  0.00  0.00     0.209 HD
ENDBRANCH  19  22
ENDBRANCH  15  19
ENDBRANCH  11  15
ENDBRANCH   5  11
BRANCH   4  24
ATOM     24  N5  DAN d          25.846  15.905  61.311  0.00  0.00    -0.351 N 
ATOM     25  C10 DAN d          26.636  14.835  61.338  0.00  0.00     0.214 C 
ATOM     26  O10 DAN d          27.187  14.443  62.362  0.00  0.00    -0.274 OA
ATOM     27  H12 DAN d          25.434  16.181  60.443  0.00  0.00     0.163 HD
BRANCH  25  28
ATOM     28  C11 DAN d          26.872  14.063  60.058  0.00  0.00    -0.003 C 
ATOM     29  H9  DAN d          25.941  14.032  59.472  0.00  0.00     0.040 H 
ATOM     30  H10 DAN d          27.186  13.038  60.302  0.00  0.00     0.040 H 
ATOM     31  H11 DAN d          27.658  14.559  59.470  0.00  0.00     0.040 H 
ENDBRANCH  25  28
ENDBRANCH   4  24
BRANCH   3  32
ATOM     32  O4  DAN d          23.662  15.423  63.210  0.00  0.00    -0.389 OA
ATOM     33  H13 DAN d          22.936  15.112  62.682  0.00  0.00     0.210 HD
ENDBRANCH   3  32
BRANCH   1  34
ATOM     34  C1  DAN d          23.998  19.930  64.908  0.00  0.00     0.233 C 
ATOM     35  O1B DAN d          22.821  19.985  65.316  0.00  0.00    -0.642 OA
ATOM     36  O1A DAN d          24.831  20.799  65.234  0.00  0.00    -0.642 OA
ENDBRANCH   1  34
TORSDOF 10
ENDMDL
MODEL 2
REMARK VINA RESULT:      -5.6      1.961      4.440
REMARK  10 active torsions:
REMARK  status: ('A' for Active; 'I' for Inactive)
REMARK    1  A    between atoms: C1_1  and  C2_2 
REMARK    2  A    between atoms: C4_4  and  O4_15 
REMARK    3  A    between atoms: C5_5  and  N5_12 
REMARK    4  A    between atoms: C6_6  and  C7_7 
REMARK    5  A    between atoms: C7_7  and  O7_17 
REMARK    6  A    between atoms: C7_7  and  C8_8 
REMARK    7  A    between atoms: C8_8  and  O8_18 
REMARK    8  A    between atoms: C8_8  and  C9_9 
REMARK    9  A    between atoms: C9_9  and  O9_19 
REMARK       I    between atoms: N5_12  and  C10_10 
REMARK   10  A    between atoms: C10_10  and  C11_11 
ROOT
ATOM      1  C2  DAN d          24.627  15.759  62.400  0.00  0.00     0.144 C 
ATOM      2  C3  DAN d          24.146  16.700  63.271  0.00  0.00    -0.035 C 
ATOM      3  C4  DAN d          25.050  17.764  63.970  0.00  0.00     0.076 C 
ATOM      4  C5  DAN d          26.337  18.001  63.175  0.00  0.00     0.068 C 
ATOM      5  C6  DAN d          26.949  16.613  62.758  0.00  0.00     0.094 C 
ATOM      6  O6  DAN d          25.959  15.825  62.002  0.00  0.00    -0.335 OA
ATOM      7  H1  DAN d          23.079  16.706  63.487  0.00  0.00     0.085 H 
ATOM      8  H2  DAN d          25.314  17.396  64.971  0.00  0.00     0.092 H 
ATOM      9  H3  DAN d          26.112  18.587  62.271  0.00  0.00     0.081 H 
ATOM     10  H4  DAN d          27.243  16.067  63.666  0.00  0.00     0.091 H 
ENDROOT
BRANCH   5  11
ATOM     11  C7  DAN d          28.199  16.789  61.827  0.00  0.00     0.089 C 
ATOM     12  H5  DAN d          28.264  17.849  61.539  0.00  0.00     0.091 H 
BRANCH  11  13
ATOM     13  O7  DAN d          28.136  15.991  60.646  0.00  0.00    -0.390 OA
ATOM     14  H14 DAN d          27.227  15.853  60.407  0.00  0.00     0.210 HD
ENDBRANCH  11  13
BRANCH  11  15
ATOM     15  C8  DAN d          29.446  16.392  62.538  0.00  0.00     0.083 C 
ATOM     16  H6  DAN d          29.815  15.446  62.115  0.00  0.00     0.090 H 
BRANCH  15  17
ATOM     17  O8  DAN d          29.139  16.206  63.879  0.00  0.00    -0.391 OA
ATOM     18  H15 DAN d          29.750  16.700  64.413  0.00  0.00     0.210 HD
ENDBRANCH  15  17
BRANCH  15  19
ATOM     19  C9  DAN d          30.545  17.458  62.385  0.00  0.00     0.043 C 
ATOM     20  H7  DAN d          31.457  16.979  61.998  0.00  0.00     0.078 H 
ATOM     21  H8  DAN d          30.753  17.902  63.370  0.00  0.00     0.078 H 
BRANCH  19  22
ATOM     22  O9  DAN d          30.145  18.494  61.484  0.00  0.00    -0.398 OA
ATOM     23  H16 DAN d          30.222  18.182  60.590  0.00  0.00     0.209 HD
ENDBRANCH  19  22
ENDBRANCH  15  19
ENDBRANCH  11  15
ENDBRANCH   5  11
BRANCH   4  24
ATOM     24  N5  DAN d          27.288  18.747  64.020  0.00  0.00    -0.351 N 
ATOM     25  C10 DAN d          27.912  19.840  63.588  0.00  0.00     0.214 C 
ATOM     26  O10 DAN d          27.749  20.294  62.460  0.00  0.00    -0.274 OA
ATOM     27  H12 DAN d          27.471  18.421  64.948  0.00  0.00     0.163 HD
BRANCH  25  28
ATOM     28  C11 DAN d          28.863  20.560  64.519  0.00  0.00    -0.003 C 
ATOM     29  H9  DAN d          28.323  20.873  65.425  0.00  0.00     0.040 H 
ATOM     30  H10 DAN d          29.271  21.447  64.012  0.00  0.00     0.040 H 
ATOM     31  H11 DAN d          29.685  19.885  64.797  0.00  0.00     0.040 H 
ENDBRANCH  25  28
ENDBRANCH   4  24
BRANCH   3  32
ATOM     32  O4  DAN d          24.365  18.982  64.096  0.00  0.00    -0.389 OA
ATOM     33  H13 DAN d          24.694  19.452  64.854  0.00  0.00     0.210 HD
ENDBRANCH   3  32
BRANCH   1  34
ATOM     34  C1  DAN d          23.857  14.724  61.880  0.00  0.00     0.233 C 
ATOM     35  O1B DAN d          23.418  13.826  62.626  0.00  0.00    -0.642 OA
ATOM     36  O1A DAN d          23.612  14.717  60.657  0.00  0.00    -0.642 OA
ENDBRANCH   1  34
TORSDOF 10
ENDMDL
MODEL 3
REMARK VINA RESULT:      -5.6      1.964      4.636
REMARK  10 active torsions:
REMARK  status: ('A' for Active; 'I' for Inactive)
REMARK    1  A    between atoms: C1_1  and  C2_2 
REMARK    2  A    between atoms: C4_4  and  O4_15 
REMARK    3  A    between atoms: C5_5  and  N5_12 
REMARK    4  A    between atoms: C6_6  and  C7_7 
REMARK    5  A    between atoms: C7_7  and  O7_17 
REMARK    6  A    between atoms: C7_7  and  C8_8 
REMARK    7  A    between atoms: C8_8  and  O8_18 
REMARK    8  A    between atoms: C8_8  and  C9_9 
REMARK    9  A    between atoms: C9_9  and  O9_19 
REMARK       I    between atoms: N5_12  and  C10_10 
REMARK   10  A    between atoms: C10_10  and  C11_11 
ROOT
ATOM      1  C2  DAN d          29.007  19.440  64.273  0.00  0.00     0.144 C 
ATOM      2  C3  DAN d          29.746  18.360  63.869  0.00  0.00    -0.035 C 
ATOM      3  C4  DAN d          29.112  17.015  63.394  0.00  0.00     0.076 C 
ATOM      4  C5  DAN d          27.678  17.225  62.900  0.00  0.00     0.068 C 
ATOM      5  C6  DAN d          26.905  18.129  63.929  0.00  0.00     0.094 C 
ATOM      6  O6  DAN d          27.623  19.401  64.130  0.00  0.00    -0.335 OA
ATOM      7  H1  DAN d          30.831  18.445  63.879  0.00  0.00     0.085 H 
ATOM      8  H2  DAN d          29.096  16.316  64.243  0.00  0.00     0.092 H 
ATOM      9  H3  DAN d          27.694  17.721  61.918  0.00  0.00     0.081 H 
ATOM     10  H4  DAN d          26.827  17.592  64.885  0.00  0.00     0.091 H 
ENDROOT
BRANCH   5  11
ATOM     11  C7  DAN d          25.469  18.492  63.414  0.00  0.00     0.089 C 
ATOM     12  H5  DAN d          25.279  17.916  62.496  0.00  0.00     0.091 H 
BRANCH  11  13
ATOM     13  O7  DAN d          25.309  19.881  63.128  0.00  0.00    -0.390 OA
ATOM     14  H14 DAN d          24.905  19.983  62.275  0.00  0.00     0.210 HD
ENDBRANCH  11  13
BRANCH  11  15
ATOM     15  C8  DAN d          24.440  18.150  64.435  0.00  0.00     0.083 C 
ATOM     16  H6  DAN d          24.828  17.347  65.079  0.00  0.00     0.090 H 
BRANCH  15  17
ATOM     17  O8  DAN d          23.306  17.700  63.773  0.00  0.00    -0.391 OA
ATOM     18  H15 DAN d          23.565  17.167  63.031  0.00  0.00     0.210 HD
ENDBRANCH  15  17
BRANCH  15  19
ATOM     19  C9  DAN d          24.097  19.363  65.316  0.00  0.00     0.043 C 
ATOM     20  H7  DAN d          24.889  20.119  65.209  0.00  0.00     0.078 H 
ATOM     21  H8  DAN d          24.039  19.038  66.366  0.00  0.00     0.078 H 
BRANCH  19  22
ATOM     22  O9  DAN d          22.845  19.944  64.940  0.00  0.00    -0.398 OA
ATOM     23  H16 DAN d          22.146  19.322  65.107  0.00  0.00     0.209 HD
ENDBRANCH  19  22
ENDBRANCH  15  19
ENDBRANCH  11  15
ENDBRANCH   5  11
BRANCH   4  24
ATOM     24  N5  DAN d          27.020  15.911  62.776  0.00  0.00    -0.351 N 
ATOM     25  C10 DAN d          26.962  15.255  61.620  0.00  0.00     0.214 C 
ATOM     26  O10 DAN d          27.439  15.699  60.581  0.00  0.00    -0.274 OA
ATOM     27  H12 DAN d          26.602  15.501  63.587  0.00  0.00     0.163 HD
BRANCH  25  28
ATOM     28  C11 DAN d          26.281  13.905  61.575  0.00  0.00    -0.003 C 
ATOM     29  H9  DAN d          26.711  13.251  62.349  0.00  0.00     0.040 H 
ATOM     30  H10 DAN d          26.434  13.450  60.585  0.00  0.00     0.040 H 
ATOM     31  H11 DAN d          25.204  14.030  61.759  0.00  0.00     0.040 H 
ENDBRANCH  25  28
ENDBRANCH   4  24
BRANCH   3  32
ATOM     32  O4  DAN d          29.872  16.454  62.356  0.00  0.00    -0.389 OA
ATOM     33  H13 DAN d          30.715  16.891  62.311  0.00  0.00     0.210 HD
ENDBRANCH   3  32
BRANCH   1  34
ATOM     34  C1  DAN d          29.559  20.590  64.825  0.00  0.00     0.233 C 
ATOM     35  O1B DAN d          28.915  21.658  64.838  0.00  0.00    -0.642 OA
ATOM     36  O1A DAN d          30.707  20.528  65.310  0.00  0.00    -0.642 OA
ENDBRANCH   1  34
TORSDOF 10
ENDMDL
MODEL 4
REMARK VINA RESULT:      -4.6      1.829      2.917
REMARK  10 active torsions:
REMARK  status: ('A' for Active; 'I' for Inactive)
REMARK    1  A    between atoms: C1_1  and  C2_2 
REMARK    2  A    between atoms: C4_4  and  O4_15 
REMARK    3  A    between atoms: C5_5  and  N5_12 
REMARK    4  A    between atoms: C6_6  and  C7_7 
REMARK    5  A    between atoms: C7_7  and  O7_17 
REMARK    6  A    between atoms: C7_7  and  C8_8 
REMARK    7  A    between atoms: C8_8  and  O8_18 
REMARK    8  A    between atoms: C8_8  and  C9_9 
REMARK    9  A    between atoms: C9_9  and  O9_19 
REMARK       I    between atoms: N5_12  and  C10_10 
REMARK   10  A    between atoms: C10_10  and  C11_11 
ROOT
ATOM      1  C2  DAN d          25.822  19.243  63.978  0.00  0.00     0.144 C 
ATOM      2  C3  DAN d          24.619  18.731  64.384  0.00  0.00    -0.035 C 
ATOM      3  C4  DAN d          23.815  17.674  63.563  0.00  0.00     0.076 C 
ATOM      4  C5  DAN d          24.735  16.890  62.623  0.00  0.00     0.068 C 
ATOM      5  C6  DAN d          25.687  17.896  61.877  0.00  0.00     0.094 C 
ATOM      6  O6  DAN d          26.438  18.707  62.852  0.00  0.00    -0.335 OA
ATOM      7  H1  DAN d          24.202  19.079  65.328  0.00  0.00     0.085 H 
ATOM      8  H2  DAN d          23.058  18.199  62.963  0.00  0.00     0.092 H 
ATOM      9  H3  DAN d          25.340  16.178  63.205  0.00  0.00     0.081 H 
ATOM     10  H4  DAN d          25.079  18.553  61.238  0.00  0.00     0.091 H 
ENDROOT
BRANCH   5  11
ATOM     11  C7  DAN d          26.745  17.144  60.996  0.00  0.00     0.089 C 
ATOM     12  H5  DAN d          27.284  17.893  60.396  0.00  0.00     0.091 H 
BRANCH  11  13
ATOM     13  O7  DAN d          26.164  16.181  60.119  0.00  0.00    -0.390 OA
ATOM     14  H14 DAN d          26.070  16.559  59.253  0.00  0.00     0.210 HD
ENDBRANCH  11  13
BRANCH  11  15
ATOM     15  C8  DAN d          27.714  16.405  61.852  0.00  0.00     0.083 C 
ATOM     16  H6  DAN d          27.275  16.263  62.850  0.00  0.00     0.090 H 
BRANCH  15  17
ATOM     17  O8  DAN d          28.866  17.172  61.963  0.00  0.00    -0.391 OA
ATOM     18  H15 DAN d          28.712  18.028  61.583  0.00  0.00     0.210 HD
ENDBRANCH  15  17
BRANCH  15  19
ATOM     19  C9  DAN d          28.047  15.024  61.262  0.00  0.00     0.043 C 
ATOM     20  H7  DAN d          29.130  14.850  61.349  0.00  0.00     0.078 H 
ATOM     21  H8  DAN d          27.757  15.008  60.200  0.00  0.00     0.078 H 
BRANCH  19  22
ATOM     22  O9  DAN d          27.352  13.981  61.949  0.00  0.00    -0.398 OA
ATOM     23  H16 DAN d          27.179  13.266  61.347  0.00  0.00     0.209 HD
ENDBRANCH  19  22
ENDBRANCH  15  19
ENDBRANCH  11  15
ENDBRANCH   5  11
BRANCH   4  24
ATOM     24  N5  DAN d          23.906  16.152  61.652  0.00  0.00    -0.351 N 
ATOM     25  C10 DAN d          23.938  14.825  61.559  0.00  0.00     0.214 C 
ATOM     26  O10 DAN d          24.662  14.129  62.262  0.00  0.00    -0.274 OA
ATOM     27  H12 DAN d          23.302  16.665  61.042  0.00  0.00     0.163 HD
BRANCH  25  28
ATOM     28  C11 DAN d          23.047  14.138  60.547  0.00  0.00    -0.003 C 
ATOM     29  H9  DAN d          22.973  14.759  59.642  0.00  0.00     0.040 H 
ATOM     30  H10 DAN d          22.045  13.996  60.978  0.00  0.00     0.040 H 
ATOM     31  H11 DAN d          23.476  13.159  60.286  0.00  0.00     0.040 H 
ENDBRANCH  25  28
ENDBRANCH   4  24
BRANCH   3  32
ATOM     32  O4  DAN d          23.171  16.771  64.423  0.00  0.00    -0.389 OA
ATOM     33  H13 DAN d          22.255  17.011  64.504  0.00  0.00     0.210 HD
ENDBRANCH   3  32
BRANCH   1  34
ATOM     34  C1  DAN d          26.478  20.281  64.631  0.00  0.00     0.233 C 
ATOM     35  O1B DAN d          25.838  21.103  65.316  0.00  0.00    -0.642 OA
ATOM     36  O1A DAN d          27.718  20.369  64.518  0.00  0.00    -0.642 OA
ENDBRANCH   1  34
TORSDOF 10
ENDMDL
MODEL 5
REMARK VINA RESULT:      -4.6      2.059      4.804
REMARK  10 active torsions:
REMARK  status: ('A' for Active; 'I' for Inactive)
REMARK    1  A    between atoms: C1_1  and  C2_2 
REMARK    2  A    between atoms: C4_4  and  O4_15 
REMARK    3  A    between atoms: C5_5  and  N5_12 
REMARK    4  A    between atoms: C6_6  and  C7_7 
REMARK    5  A    between atoms: C7_7  and  O7_17 
REMARK    6  A    between atoms: C7_7  and  C8_8 
REMARK    7  A    between atoms: C8_8  and  O8_18 
REMARK    8  A    between atoms: C8_8  and  C9_9 
REMARK    9  A    between atoms: C9_9  and  O9_19 
REMARK       I    between atoms: N5_12  and  C10_10 
REMARK   10  A    between atoms: C10_10  and  C11_11 
ROOT
ATOM      1  C2  DAN d          25.122  17.158  62.655  0.00  0.00     0.144 C 
ATOM      2  C3  DAN d          24.961  18.259  63.453  0.00  0.00    -0.035 C 
ATOM      3  C4  DAN d          26.148  18.987  64.160  0.00  0.00     0.076 C 
ATOM      4  C5  DAN d          27.470  18.716  63.437  0.00  0.00     0.068 C 
ATOM      5  C6  DAN d          27.578  17.179  63.120  0.00  0.00     0.094 C 
ATOM      6  O6  DAN d          26.410  16.736  62.338  0.00  0.00    -0.335 OA
ATOM      7  H1  DAN d          23.955  18.646  63.602  0.00  0.00     0.085 H 
ATOM      8  H2  DAN d          26.224  18.613  65.192  0.00  0.00     0.092 H 
ATOM      9  H3  DAN d          27.502  19.286  62.497  0.00  0.00     0.081 H 
ATOM     10  H4  DAN d          27.624  16.622  64.067  0.00  0.00     0.091 H 
ENDROOT
BRANCH   5  11
ATOM     11  C7  DAN d          28.851  16.855  62.261  0.00  0.00     0.089 C 
ATOM     12  H5  DAN d          29.615  16.431  62.930  0.00  0.00     0.091 H 
BRANCH  11  13
ATOM     13  O7  DAN d          29.392  18.000  61.606  0.00  0.00    -0.390 OA
ATOM     14  H14 DAN d          30.037  17.722  60.966  0.00  0.00     0.210 HD
ENDBRANCH  11  13
BRANCH  11  15
ATOM     15  C8  DAN d          28.529  15.870  61.191  0.00  0.00     0.083 C 
ATOM     16  H6  DAN d          29.462  15.551  60.704  0.00  0.00     0.090 H 
BRANCH  15  17
ATOM     17  O8  DAN d          27.715  16.496  60.257  0.00  0.00    -0.391 OA
ATOM     18  H15 DAN d          28.253  16.996  59.656  0.00  0.00     0.210 HD
ENDBRANCH  15  17
BRANCH  15  19
ATOM     19  C9  DAN d          27.825  14.627  61.763  0.00  0.00     0.043 C 
ATOM     20  H7  DAN d          27.519  14.834  62.800  0.00  0.00     0.078 H 
ATOM     21  H8  DAN d          28.528  13.780  61.750  0.00  0.00     0.078 H 
BRANCH  19  22
ATOM     22  O9  DAN d          26.668  14.283  60.997  0.00  0.00    -0.398 OA
ATOM     23  H16 DAN d          26.258  13.512  61.372  0.00  0.00     0.209 HD
ENDBRANCH  19  22
ENDBRANCH  15  19
ENDBRANCH  11  15
ENDBRANCH   5  11
BRANCH   4  24
ATOM     24  N5  DAN d          28.584  19.139  64.307  0.00  0.00    -0.351 N 
ATOM     25  C10 DAN d          29.172  20.325  64.176  0.00  0.00     0.214 C 
ATOM     26  O10 DAN d          28.840  21.139  63.321  0.00  0.00    -0.274 OA
ATOM     27  H12 DAN d          28.908  18.514  65.018  0.00  0.00     0.163 HD
BRANCH  25  28
ATOM     28  C11 DAN d          30.300  20.694  65.115  0.00  0.00    -0.003 C 
ATOM     29  H9  DAN d          31.016  19.860  65.174  0.00  0.00     0.040 H 
ATOM     30  H10 DAN d          29.891  20.897  66.116  0.00  0.00     0.040 H 
ATOM     31  H11 DAN d          30.812  21.591  64.739  0.00  0.00     0.040 H 
ENDBRANCH  25  28
ENDBRANCH   4  24
BRANCH   3  32
ATOM     32  O4  DAN d          25.924  20.372  64.192  0.00  0.00    -0.389 OA
ATOM     33  H13 DAN d          26.696  20.808  64.533  0.00  0.00     0.210 HD
ENDBRANCH   3  32
BRANCH   1  34
ATOM     34  C1  DAN d          24.063  16.422  62.134  0.00  0.00     0.233 C 
ATOM     35  O1B DAN d          23.965  15.201  62.368  0.00  0.00    -0.642 OA
ATOM     36  O1A DAN d          23.215  17.010  61.433  0.00  0.00    -0.642 OA
ENDBRANCH   1  34
TORSDOF 10
ENDMDL
MODEL 6
REMARK VINA RESULT:      -4.5      1.731      4.420
REMARK  10 active torsions:
REMARK  status: ('A' for Active; 'I' for Inactive)
REMARK    1  A    between atoms: C1_1  and  C2_2 
REMARK    2  A    between atoms: C4_4  and  O4_15 
REMARK    3  A    between atoms: C5_5  and  N5_12 
REMARK    4  A    between atoms: C6_6  and  C7_7 
REMARK    5  A    between atoms: C7_7  and  O7_17 
REMARK    6  A    between atoms: C7_7  and  C8_8 
REMARK    7  A    between atoms: C8_8  and  O8_18 
REMARK    8  A    between atoms: C8_8  and  C9_9 
REMARK    9  A    between atoms: C9_9  and  O9_19 
REMARK       I    between atoms: N5_12  and  C10_10 
REMARK   10  A    between atoms: C10_10  and  C11_11 
ROOT
ATOM      1  C2  DAN d          28.515  18.187  63.020  0.00  0.00     0.144 C 
ATOM      2  C3  DAN d          28.856  17.082  62.287  0.00  0.00    -0.035 C 
ATOM      3  C4  DAN d          27.902  15.864  62.078  0.00  0.00     0.076 C 
ATOM      4  C5  DAN d          26.438  16.270  62.269  0.00  0.00     0.068 C 
ATOM      5  C6  DAN d          26.312  17.143  63.572  0.00  0.00     0.094 C 
ATOM      6  O6  DAN d          27.213  18.307  63.495  0.00  0.00    -0.335 OA
ATOM      7  H1  DAN d          29.841  17.052  61.825  0.00  0.00     0.085 H 
ATOM      8  H2  DAN d          28.156  15.090  62.817  0.00  0.00     0.092 H 
ATOM      9  H3  DAN d          26.100  16.856  61.402  0.00  0.00     0.081 H 
ATOM     10  H4  DAN d          26.577  16.525  64.441  0.00  0.00     0.091 H 
ENDROOT
BRANCH   5  11
ATOM     11  C7  DAN d          24.858  17.703  63.753  0.00  0.00     0.089 C 
ATOM     12  H5  DAN d          24.178  16.849  63.896  0.00  0.00     0.091 H 
BRANCH  11  13
ATOM     13  O7  DAN d          24.408  18.468  62.637  0.00  0.00    -0.390 OA
ATOM     14  H14 DAN d          24.659  19.377  62.756  0.00  0.00     0.210 HD
ENDBRANCH  11  13
BRANCH  11  15
ATOM     15  C8  DAN d          24.781  18.600  64.938  0.00  0.00     0.083 C 
ATOM     16  H6  DAN d          25.359  18.155  65.762  0.00  0.00     0.090 H 
BRANCH  15  17
ATOM     17  O8  DAN d          23.450  18.706  65.316  0.00  0.00    -0.391 OA
ATOM     18  H15 DAN d          23.334  18.316  66.175  0.00  0.00     0.210 HD
ENDBRANCH  15  17
BRANCH  15  19
ATOM     19  C9  DAN d          25.360  19.991  64.630  0.00  0.00     0.043 C 
ATOM     20  H7  DAN d          26.107  19.898  63.828  0.00  0.00     0.078 H 
ATOM     21  H8  DAN d          25.842  20.388  65.536  0.00  0.00     0.078 H 
BRANCH  19  22
ATOM     22  O9  DAN d          24.339  20.900  64.211  0.00  0.00    -0.398 OA
ATOM     23  H16 DAN d          24.529  21.207  63.332  0.00  0.00     0.209 HD
ENDBRANCH  19  22
ENDBRANCH  15  19
ENDBRANCH  11  15
ENDBRANCH   5  11
BRANCH   4  24
ATOM     24  N5  DAN d          25.617  15.050  62.388  0.00  0.00    -0.351 N 
ATOM     25  C10 DAN d          24.446  14.923  61.770  0.00  0.00     0.214 C 
ATOM     26  O10 DAN d          23.965  15.809  61.072  0.00  0.00    -0.274 OA
ATOM     27  H12 DAN d          25.952  14.295  62.952  0.00  0.00     0.163 HD
BRANCH  25  28
ATOM     28  C11 DAN d          23.668  13.635  61.928  0.00  0.00    -0.003 C 
ATOM     29  H9  DAN d          24.364  12.782  61.922  0.00  0.00     0.040 H 
ATOM     30  H10 DAN d          22.955  13.533  61.097  0.00  0.00     0.040 H 
ATOM     31  H11 DAN d          23.119  13.653  62.882  0.00  0.00     0.040 H 
ENDBRANCH  25  28
ENDBRANCH   4  24
BRANCH   3  32
ATOM     32  O4  DAN d          28.060  15.333  60.789  0.00  0.00    -0.389 OA
ATOM     33  H13 DAN d          27.273  14.861  60.543  0.00  0.00     0.210 HD
ENDBRANCH   3  32
BRANCH   1  34
ATOM     34  C1  DAN d          29.403  19.214  63.326  0.00  0.00     0.233 C 
ATOM     35  O1B DAN d          30.311  19.037  64.161  0.00  0.00    -0.642 OA
ATOM     36  O1A DAN d          29.272  20.310  62.744  0.00  0.00    -0.642 OA
ENDBRANCH   1  34
TORSDOF 10
ENDMDL
MODEL 7
REMARK VINA RESULT:      -3.8      2.026      5.693
REMARK  10 active torsions:
REMARK  status: ('A' for Active; 'I' for Inactive)
REMARK    1  A    between atoms: C1_1  and  C2_2 
REMARK    2  A    between atoms: C4_4  and  O4_15 
REMARK    3  A    between atoms: C5_5  and  N5_12 
REMARK    4  A    between atoms: C6_6  and  C7_7 
REMARK    5  A    between atoms: C7_7  and  O7_17 
REMARK    6  A    between atoms: C7_7  and  C8_8 
REMARK    7  A    between atoms: C8_8  and  O8_18 
REMARK    8  A    between atoms: C8_8  and  C9_9 
REMARK    9  A    between atoms: C9_9  and  O9_19 
REMARK       I    between atoms: N5_12  and  C10_10 
REMARK   10  A    between atoms: C10_10  and  C11_11 
ROOT
ATOM      1  C2  DAN d          28.927  18.312  62.750  0.00  0.00     0.144 C 
ATOM      2  C3  DAN d          28.795  19.417  63.548  0.00  0.00    -0.035 C 
ATOM      3  C4  DAN d          27.415  19.985  64.006  0.00  0.00     0.076 C 
ATOM      4  C5  DAN d          26.332  18.904  63.961  0.00  0.00     0.068 C 
ATOM      5  C6  DAN d          26.439  18.123  62.599  0.00  0.00     0.094 C 
ATOM      6  O6  DAN d          27.795  17.568  62.435  0.00  0.00    -0.335 OA
ATOM      7  H1  DAN d          29.699  19.925  63.880  0.00  0.00     0.085 H 
ATOM      8  H2  DAN d          27.130  20.802  63.328  0.00  0.00     0.092 H 
ATOM      9  H3  DAN d          26.473  18.202  64.796  0.00  0.00     0.081 H 
ATOM     10  H4  DAN d          26.219  18.816  61.774  0.00  0.00     0.091 H 
ENDROOT
BRANCH   5  11
ATOM     11  C7  DAN d          25.441  16.914  62.547  0.00  0.00     0.089 C 
ATOM     12  H5  DAN d          24.446  17.280  62.840  0.00  0.00     0.091 H 
BRANCH  11  13
ATOM     13  O7  DAN d          25.812  15.842  63.411  0.00  0.00    -0.390 OA
ATOM     14  H14 DAN d          25.195  15.788  64.130  0.00  0.00     0.210 HD
ENDBRANCH  11  13
BRANCH  11  15
ATOM     15  C8  DAN d          25.374  16.345  61.172  0.00  0.00     0.083 C 
ATOM     16  H6  DAN d          26.298  16.600  60.633  0.00  0.00     0.090 H 
BRANCH  15  17
ATOM     17  O8  DAN d          24.290  16.917  60.520  0.00  0.00    -0.391 OA
ATOM     18  H15 DAN d          24.393  16.807  59.582  0.00  0.00     0.210 HD
ENDBRANCH  15  17
BRANCH  15  19
ATOM     19  C9  DAN d          25.230  14.814  61.203  0.00  0.00     0.043 C 
ATOM     20  H7  DAN d          25.458  14.454  62.217  0.00  0.00     0.078 H 
ATOM     21  H8  DAN d          25.941  14.373  60.488  0.00  0.00     0.078 H 
BRANCH  19  22
ATOM     22  O9  DAN d          23.905  14.407  60.852  0.00  0.00    -0.398 OA
ATOM     23  H16 DAN d          23.916  14.003  59.992  0.00  0.00     0.209 HD
ENDBRANCH  19  22
ENDBRANCH  15  19
ENDBRANCH  11  15
ENDBRANCH   5  11
BRANCH   4  24
ATOM     24  N5  DAN d          25.011  19.549  64.079  0.00  0.00    -0.351 N 
ATOM     25  C10 DAN d          24.010  18.992  64.756  0.00  0.00     0.214 C 
ATOM     26  O10 DAN d          24.111  17.905  65.315  0.00  0.00    -0.274 OA
ATOM     27  H12 DAN d          24.862  20.433  63.636  0.00  0.00     0.163 HD
BRANCH  25  28
ATOM     28  C11 DAN d          22.687  19.722  64.845  0.00  0.00    -0.003 C 
ATOM     29  H9  DAN d          22.813  20.755  64.488  0.00  0.00     0.040 H 
ATOM     30  H10 DAN d          22.345  19.734  65.890  0.00  0.00     0.040 H 
ATOM     31  H11 DAN d          21.941  19.207  64.221  0.00  0.00     0.040 H 
ENDBRANCH  25  28
ENDBRANCH   4  24
BRANCH   3  32
ATOM     32  O4  DAN d          27.501  20.486  65.314  0.00  0.00    -0.389 OA
ATOM     33  H13 DAN d          28.273  21.034  65.392  0.00  0.00     0.210 HD
ENDBRANCH   3  32
BRANCH   1  34
ATOM     34  C1  DAN d          30.141  17.880  62.225  0.00  0.00     0.233 C 
ATOM     35  O1B DAN d          30.715  18.537  61.335  0.00  0.00    -0.642 OA
ATOM     36  O1A DAN d          30.641  16.826  62.668  0.00  0.00    -0.642 OA
ENDBRANCH   1  34
TORSDOF 10
ENDMDL
MODEL 8
REMARK VINA RESULT:      -3.4      2.327      4.434
REMARK  10 active torsions:
REMARK  status: ('A' for Active; 'I' for Inactive)
REMARK    1  A    between atoms: C1_1  and  C2_2 
REMARK    2  A    between atoms: C4_4  and  O4_15 
REMARK    3  A    between atoms: C5_5  and  N5_12 
REMARK    4  A    between atoms: C6_6  and  C7_7 
REMARK    5  A    between atoms: C7_7  and  O7_17 
REMARK    6  A    between atoms: C7_7  and  C8_8 
REMARK    7  A    between atoms: C8_8  and  O8_18 
REMARK    8  A    between atoms: C8_8  and  C9_9 
REMARK    9  A    between atoms: C9_9  and  O9_19 
REMARK       I    between atoms: N5_12  and  C10_10 
REMARK   10  A    between atoms: C10_10  and  C11_11 
ROOT
ATOM      1  C2  DAN d          25.169  17.069  62.742  0.00  0.00     0.144 C 
ATOM      2  C3  DAN d          25.092  18.275  63.385  0.00  0.00    -0.035 C 
ATOM      3  C4  DAN d          26.297  18.925  64.137  0.00  0.00     0.076 C 
ATOM      4  C5  DAN d          27.630  18.391  63.607  0.00  0.00     0.068 C 
ATOM      5  C6  DAN d          27.545  16.826  63.481  0.00  0.00     0.094 C 
ATOM      6  O6  DAN d          26.407  16.444  62.625  0.00  0.00    -0.335 OA
ATOM      7  H1  DAN d          24.143  18.808  63.371  0.00  0.00     0.085 H 
ATOM      8  H2  DAN d          26.215  18.681  65.206  0.00  0.00     0.092 H 
ATOM      9  H3  DAN d          27.837  18.827  62.618  0.00  0.00     0.081 H 
ATOM     10  H4  DAN d          27.416  16.395  64.485  0.00  0.00     0.091 H 
ENDROOT
BRANCH   5  11
ATOM     11  C7  DAN d          28.835  16.229  62.818  0.00  0.00     0.089 C 
ATOM     12  H5  DAN d          28.626  15.184  62.543  0.00  0.00     0.091 H 
BRANCH  11  13
ATOM     13  O7  DAN d          29.974  16.262  63.676  0.00  0.00    -0.390 OA
ATOM     14  H14 DAN d          29.690  16.407  64.571  0.00  0.00     0.210 HD
ENDBRANCH  11  13
BRANCH  11  15
ATOM     15  C8  DAN d          29.205  16.997  61.597  0.00  0.00     0.083 C 
ATOM     16  H6  DAN d          29.453  16.291  60.791  0.00  0.00     0.090 H 
BRANCH  15  17
ATOM     17  O8  DAN d          30.321  17.768  61.892  0.00  0.00    -0.391 OA
ATOM     18  H15 DAN d          30.088  18.427  62.535  0.00  0.00     0.210 HD
ENDBRANCH  15  17
BRANCH  15  19
ATOM     19  C9  DAN d          28.048  17.893  61.124  0.00  0.00     0.043 C 
ATOM     20  H7  DAN d          27.731  18.539  61.957  0.00  0.00     0.078 H 
ATOM     21  H8  DAN d          27.206  17.257  60.812  0.00  0.00     0.078 H 
BRANCH  19  22
ATOM     22  O9  DAN d          28.441  18.716  60.022  0.00  0.00    -0.398 OA
ATOM     23  H16 DAN d          29.169  18.308  59.568  0.00  0.00     0.209 HD
ENDBRANCH  19  22
ENDBRANCH  15  19
ENDBRANCH  11  15
ENDBRANCH   5  11
BRANCH   4  24
ATOM     24  N5  DAN d          28.702  18.772  64.546  0.00  0.00    -0.351 N 
ATOM     25  C10 DAN d          29.541  19.774  64.293  0.00  0.00     0.214 C 
ATOM     26  O10 DAN d          29.489  20.438  63.263  0.00  0.00    -0.274 OA
ATOM     27  H12 DAN d          28.802  18.261  65.400  0.00  0.00     0.163 HD
BRANCH  25  28
ATOM     28  C11 DAN d          30.607  20.114  65.312  0.00  0.00    -0.003 C 
ATOM     29  H9  DAN d          30.150  20.192  66.309  0.00  0.00     0.040 H 
ATOM     30  H10 DAN d          31.073  21.074  65.046  0.00  0.00     0.040 H 
ATOM     31  H11 DAN d          31.372  19.325  65.320  0.00  0.00     0.040 H 
ENDBRANCH  25  28
ENDBRANCH   4  24
BRANCH   3  32
ATOM     32  O4  DAN d          26.274  20.320  63.984  0.00  0.00    -0.389 OA
ATOM     33  H13 DAN d          25.615  20.557  63.342  0.00  0.00     0.210 HD
ENDBRANCH   3  32
BRANCH   1  34
ATOM     34  C1  DAN d          24.072  16.418  62.188  0.00  0.00     0.233 C 
ATOM     35  O1B DAN d          23.205  17.060  61.563  0.00  0.00    -0.642 OA
ATOM     36  O1A DAN d          23.977  15.182  62.327  0.00  0.00    -0.642 OA
ENDBRANCH   1  34
TORSDOF 10
ENDMDL
