MODEL 1
REMARK VINA RESULT:      -6.4      0.000      0.000
REMARK  6 active torsions:
REMARK  status: ('A' for Active; 'I' for Inactive)
REMARK    1  A    between atoms: CA_1  and  C_2 
REMARK    2  A    between atoms: C6_6  and  CA_1 
REMARK    3  A    between atoms: CA_1  and  N_8 
REMARK    4  A    between atoms: C7_7  and  C3_3 
REMARK    5  A    between atoms: C4_4  and  N4_11 
REMARK    6  A    between atoms: C6_6  and  C7_7 
ROOT
ATOM      1  C7  Z70 d         -20.608  14.229  -5.278  0.00  0.00    -0.023 C 
ATOM      2  H5  Z70 d         -21.066  14.331  -4.283  0.00  0.00     0.042 H 
ATOM      3  H6  Z70 d         -21.273  14.672  -6.035  0.00  0.00     0.042 H 
ENDROOT
BRANCH   1   4
ATOM      4  C3  Z70 d         -20.449  12.744  -5.586  0.00  0.00     0.029 A 
ATOM      5  C5  Z70 d         -19.275  12.268  -6.343  0.00  0.00     0.028 A 
ATOM      6  N3  Z70 d         -19.486  10.894  -6.433  0.00  0.00    -0.226 NA
ATOM      7  H2  Z70 d         -18.444  12.850  -6.737  0.00  0.00     0.117 H 
ATOM      8  C4  Z70 d         -20.686  10.596  -5.780  0.00  0.00     0.199 A 
ATOM      9  N2  Z70 d         -21.281  11.693  -5.264  0.00  0.00    -0.329 N 
ATOM     10  H10 Z70 d         -22.167  11.735  -4.741  0.00  0.00     0.169 HD
BRANCH   8  11
ATOM     11  N4  Z70 d         -21.212   9.320  -5.677  0.00  0.00    -0.369 N 
ATOM     12  H11 Z70 d         -21.244   8.707  -6.504  0.00  0.00     0.159 HD
ATOM     13  H12 Z70 d         -21.572   8.983  -4.772  0.00  0.00     0.159 HD
ENDBRANCH   8  11
ENDBRANCH   1   4
BRANCH   1  14
ATOM     14  C6  Z70 d         -19.289  14.998  -5.285  0.00  0.00    -0.024 C 
ATOM     15  H3  Z70 d         -18.579  14.470  -4.632  0.00  0.00     0.037 H 
ATOM     16  H4  Z70 d         -18.902  15.009  -6.315  0.00  0.00     0.037 H 
BRANCH  14  17
ATOM     17  CA  Z70 d         -19.401  16.463  -4.794  0.00  0.00     0.182 C 
ATOM     18  H1  Z70 d         -18.451  16.978  -5.000  0.00  0.00     0.101 H 
BRANCH  17  19
ATOM     19  C   Z70 d         -20.544  17.284  -5.433  0.00  0.00     0.204 C 
ATOM     20  OXT Z70 d         -21.602  17.590  -4.756  0.00  0.00    -0.646 OA
ATOM     21  O   Z70 d         -20.458  17.666  -6.655  0.00  0.00    -0.646 OA
ENDBRANCH  17  19
BRANCH  17  22
ATOM     22  N   Z70 d         -19.623  16.394  -3.390  0.00  0.00    -0.065 N 
ATOM     23  H7  Z70 d         -20.538  16.011  -3.213  0.00  0.00     0.275 HD
ATOM     24  H8  Z70 d         -19.563  17.320  -2.995  0.00  0.00     0.275 HD
ATOM     25  H9  Z70 d         -18.923  15.803  -2.968  0.00  0.00     0.275 HD
ENDBRANCH  17  22
ENDBRANCH  14  17
ENDBRANCH   1  14
TORSDOF 6
ENDMDL
MODEL 2
REMARK VINA RESULT:      -5.5      1.407      1.771
REMARK  6 active torsions:
REMARK  status: ('A' for Active; 'I' for Inactive)
REMARK    1  A    between atoms: CA_1  and  C_2 
REMARK    2  A    between atoms: C6_6  and  CA_1 
REMARK    3  A    between atoms: CA_1  and  N_8 
REMARK    4  A    between atoms: C7_7  and  C3_3 
REMARK    5  A    between atoms: C4_4  and  N4_11 
REMARK    6  A    between atoms: C6_6  and  C7_7 
ROOT
ATOM      1  C7  Z70 d         -19.294  14.371  -6.192  0.00  0.00    -0.023 C 
ATOM      2  H5  Z70 d         -18.386  14.393  -6.814  0.00  0.00     0.042 H 
ATOM      3  H6  Z70 d         -19.063  14.765  -5.191  0.00  0.00     0.042 H 
ENDROOT
BRANCH   1   4
ATOM      4  C3  Z70 d         -19.745  12.921  -6.047  0.00  0.00     0.029 A 
ATOM      5  C5  Z70 d         -20.966  12.600  -5.284  0.00  0.00     0.028 A 
ATOM      6  N3  Z70 d         -21.039  11.212  -5.362  0.00  0.00    -0.226 NA
ATOM      7  H2  Z70 d         -21.647  13.285  -4.779  0.00  0.00     0.117 H 
ATOM      8  C4  Z70 d         -19.948  10.762  -6.112  0.00  0.00     0.199 A 
ATOM      9  N2  Z70 d         -19.158  11.773  -6.533  0.00  0.00    -0.329 N 
ATOM     10  H10 Z70 d         -18.299  11.701  -7.097  0.00  0.00     0.169 HD
BRANCH   8  11
ATOM     11  N4  Z70 d         -19.699   9.430  -6.389  0.00  0.00    -0.369 N 
ATOM     12  H11 Z70 d         -19.494   8.773  -5.623  0.00  0.00     0.159 HD
ATOM     13  H12 Z70 d         -19.718   9.094  -7.363  0.00  0.00     0.159 HD
ENDBRANCH   8  11
ENDBRANCH   1   4
BRANCH   1  14
ATOM     14  C6  Z70 d         -20.343  15.275  -6.837  0.00  0.00    -0.024 C 
ATOM     15  H3  Z70 d         -20.225  15.215  -7.928  0.00  0.00     0.037 H 
ATOM     16  H4  Z70 d         -21.339  14.902  -6.554  0.00  0.00     0.037 H 
BRANCH  14  17
ATOM     17  CA  Z70 d         -20.246  16.764  -6.420  0.00  0.00     0.182 C 
ATOM     18  H1  Z70 d         -20.398  17.390  -7.312  0.00  0.00     0.101 H 
BRANCH  17  19
ATOM     19  C   Z70 d         -21.257  17.209  -5.339  0.00  0.00     0.204 C 
ATOM     20  OXT Z70 d         -21.494  16.469  -4.306  0.00  0.00    -0.646 OA
ATOM     21  O   Z70 d         -21.882  18.323  -5.461  0.00  0.00    -0.646 OA
ENDBRANCH  17  19
BRANCH  17  22
ATOM     22  N   Z70 d         -18.930  16.949  -5.914  0.00  0.00    -0.065 N 
ATOM     23  H7  Z70 d         -18.270  16.923  -6.676  0.00  0.00     0.275 HD
ATOM     24  H8  Z70 d         -18.716  16.213  -5.258  0.00  0.00     0.275 HD
ATOM     25  H9  Z70 d         -18.871  17.841  -5.448  0.00  0.00     0.275 HD
ENDBRANCH  17  22
ENDBRANCH  14  17
ENDBRANCH   1  14
TORSDOF 6
ENDMDL
MODEL 3
REMARK VINA RESULT:      -5.5      3.433      5.913
REMARK  6 active torsions:
REMARK  status: ('A' for Active; 'I' for Inactive)
REMARK    1  A    between atoms: CA_1  and  C_2 
REMARK    2  A    between atoms: C6_6  and  CA_1 
REMARK    3  A    between atoms: CA_1  and  N_8 
REMARK    4  A    between atoms: C7_7  and  C3_3 
REMARK    5  A    between atoms: C4_4  and  N4_11 
REMARK    6  A    between atoms: C6_6  and  C7_7 
ROOT
ATOM      1  C7  Z70 d         -20.257  14.214  -4.377  0.00  0.00    -0.023 C 
ATOM      2  H5  Z70 d         -20.926  14.310  -3.509  0.00  0.00     0.042 H 
ATOM      3  H6  Z70 d         -19.249  13.936  -4.033  0.00  0.00     0.042 H 
ENDROOT
BRANCH   1   4
ATOM      4  C3  Z70 d         -20.173  15.568  -5.074  0.00  0.00     0.029 A 
ATOM      5  C5  Z70 d         -21.052  15.863  -6.222  0.00  0.00     0.028 A 
ATOM      6  N3  Z70 d         -20.681  17.155  -6.587  0.00  0.00    -0.226 NA
ATOM      7  H2  Z70 d         -21.809  15.224  -6.675  0.00  0.00     0.117 H 
ATOM      8  C4  Z70 d         -19.668  17.576  -5.721  0.00  0.00     0.199 A 
ATOM      9  N2  Z70 d         -19.348  16.638  -4.804  0.00  0.00    -0.329 N 
ATOM     10  H10 Z70 d         -18.638  16.707  -4.061  0.00  0.00     0.169 HD
BRANCH   8  11
ATOM     11  N4  Z70 d         -19.056  18.814  -5.794  0.00  0.00    -0.369 N 
ATOM     12  H11 Z70 d         -18.569  19.198  -4.972  0.00  0.00     0.159 HD
ATOM     13  H12 Z70 d         -19.087  19.354  -6.671  0.00  0.00     0.159 HD
ENDBRANCH   8  11
ENDBRANCH   1   4
BRANCH   1  14
ATOM     14  C6  Z70 d         -20.786  13.097  -5.274  0.00  0.00    -0.024 C 
ATOM     15  H3  Z70 d         -21.572  12.558  -4.725  0.00  0.00     0.037 H 
ATOM     16  H4  Z70 d         -21.217  13.555  -6.176  0.00  0.00     0.037 H 
BRANCH  14  17
ATOM     17  CA  Z70 d         -19.713  12.070  -5.716  0.00  0.00     0.182 C 
ATOM     18  H1  Z70 d         -18.912  12.051  -4.963  0.00  0.00     0.101 H 
BRANCH  17  19
ATOM     19  C   Z70 d         -20.229  10.626  -5.910  0.00  0.00     0.204 C 
ATOM     20  OXT Z70 d         -21.233  10.181  -5.227  0.00  0.00    -0.646 OA
ATOM     21  O   Z70 d         -19.656   9.845  -6.751  0.00  0.00    -0.646 OA
ENDBRANCH  17  19
BRANCH  17  22
ATOM     22  N   Z70 d         -19.203  12.540  -6.958  0.00  0.00    -0.065 N 
ATOM     23  H7  Z70 d         -19.966  12.681  -7.603  0.00  0.00     0.275 HD
ATOM     24  H8  Z70 d         -18.563  11.860  -7.337  0.00  0.00     0.275 HD
ATOM     25  H9  Z70 d         -18.719  13.413  -6.814  0.00  0.00     0.275 HD
ENDBRANCH  17  22
ENDBRANCH  14  17
ENDBRANCH   1  14
TORSDOF 6
ENDMDL
MODEL 4
REMARK VINA RESULT:      -5.1      0.969      1.537
REMARK  6 active torsions:
REMARK  status: ('A' for Active; 'I' for Inactive)
REMARK    1  A    between atoms: CA_1  and  C_2 
REMARK    2  A    between atoms: C6_6  and  CA_1 
REMARK    3  A    between atoms: CA_1  and  N_8 
REMARK    4  A    between atoms: C7_7  and  C3_3 
REMARK    5  A    between atoms: C4_4  and  N4_11 
REMARK    6  A    between atoms: C6_6  and  C7_7 
ROOT
ATOM      1  C7  Z70 d         -19.373  15.053  -6.796  0.00  0.00    -0.023 C 
ATOM      2  H5  Z70 d         -20.296  15.622  -6.984  0.00  0.00     0.042 H 
ATOM      3  H6  Z70 d         -18.775  15.009  -7.719  0.00  0.00     0.042 H 
ENDROOT
BRANCH   1   4
ATOM      4  C3  Z70 d         -19.755  13.632  -6.398  0.00  0.00     0.029 A 
ATOM      5  C5  Z70 d         -20.882  13.400  -5.474  0.00  0.00     0.028 A 
ATOM      6  N3  Z70 d         -20.913  12.014  -5.345  0.00  0.00    -0.226 NA
ATOM      7  H2  Z70 d         -21.533  14.136  -5.006  0.00  0.00     0.117 H 
ATOM      8  C4  Z70 d         -19.885  11.483  -6.131  0.00  0.00     0.199 A 
ATOM      9  N2  Z70 d         -19.178  12.437  -6.773  0.00  0.00    -0.329 N 
ATOM     10  H10 Z70 d         -18.378  12.302  -7.407  0.00  0.00     0.169 HD
BRANCH   8  11
ATOM     11  N4  Z70 d         -19.617  10.130  -6.239  0.00  0.00    -0.369 N 
ATOM     12  H11 Z70 d         -18.645   9.802  -6.328  0.00  0.00     0.159 HD
ATOM     13  H12 Z70 d         -20.390   9.449  -6.230  0.00  0.00     0.159 HD
ENDBRANCH   8  11
ENDBRANCH   1   4
BRANCH   1  14
ATOM     14  C6  Z70 d         -18.562  15.788  -5.730  0.00  0.00    -0.024 C 
ATOM     15  H3  Z70 d         -18.086  15.039  -5.082  0.00  0.00     0.037 H 
ATOM     16  H4  Z70 d         -17.785  16.381  -6.237  0.00  0.00     0.037 H 
BRANCH  14  17
ATOM     17  CA  Z70 d         -19.395  16.742  -4.838  0.00  0.00     0.182 C 
ATOM     18  H1  Z70 d         -18.803  17.649  -4.642  0.00  0.00     0.101 H 
BRANCH  17  19
ATOM     19  C   Z70 d         -20.757  17.171  -5.429  0.00  0.00     0.204 C 
ATOM     20  OXT Z70 d         -21.864  16.702  -4.955  0.00  0.00    -0.646 OA
ATOM     21  O   Z70 d         -20.802  17.997  -6.409  0.00  0.00    -0.646 OA
ENDBRANCH  17  19
BRANCH  17  22
ATOM     22  N   Z70 d         -19.629  16.042  -3.621  0.00  0.00    -0.065 N 
ATOM     23  H7  Z70 d         -19.233  16.562  -2.853  0.00  0.00     0.275 HD
ATOM     24  H8  Z70 d         -19.198  15.132  -3.669  0.00  0.00     0.275 HD
ATOM     25  H9  Z70 d         -20.621  15.937  -3.479  0.00  0.00     0.275 HD
ENDBRANCH  17  22
ENDBRANCH  14  17
ENDBRANCH   1  14
TORSDOF 6
ENDMDL
MODEL 5
REMARK VINA RESULT:      -4.6      3.541      5.811
REMARK  6 active torsions:
REMARK  status: ('A' for Active; 'I' for Inactive)
REMARK    1  A    between atoms: CA_1  and  C_2 
REMARK    2  A    between atoms: C6_6  and  CA_1 
REMARK    3  A    between atoms: CA_1  and  N_8 
REMARK    4  A    between atoms: C7_7  and  C3_3 
REMARK    5  A    between atoms: C4_4  and  N4_11 
REMARK    6  A    between atoms: C6_6  and  C7_7 
ROOT
ATOM      1  C7  Z70 d         -19.227  13.782  -7.088  0.00  0.00    -0.023 C 
ATOM      2  H5  Z70 d         -18.503  13.811  -7.916  0.00  0.00     0.042 H 
ATOM      3  H6  Z70 d         -20.246  13.893  -7.488  0.00  0.00     0.042 H 
ENDROOT
BRANCH   1   4
ATOM      4  C3  Z70 d         -18.943  14.955  -6.157  0.00  0.00     0.029 A 
ATOM      5  C5  Z70 d         -18.969  16.336  -6.679  0.00  0.00     0.028 A 
ATOM      6  N3  Z70 d         -18.656  17.108  -5.562  0.00  0.00    -0.226 NA
ATOM      7  H2  Z70 d         -19.183  16.670  -7.692  0.00  0.00     0.117 H 
ATOM      8  C4  Z70 d         -18.463  16.244  -4.479  0.00  0.00     0.199 A 
ATOM      9  N2  Z70 d         -18.631  14.947  -4.815  0.00  0.00    -0.329 N 
ATOM     10  H10 Z70 d         -18.544  14.126  -4.199  0.00  0.00     0.169 HD
BRANCH   8  11
ATOM     11  N4  Z70 d         -18.132  16.668  -3.205  0.00  0.00    -0.369 N 
ATOM     12  H11 Z70 d         -18.855  16.712  -2.472  0.00  0.00     0.159 HD
ATOM     13  H12 Z70 d         -17.162  16.940  -2.987  0.00  0.00     0.159 HD
ENDBRANCH   8  11
ENDBRANCH   1   4
BRANCH   1  14
ATOM     14  C6  Z70 d         -19.123  12.420  -6.403  0.00  0.00    -0.024 C 
ATOM     15  H3  Z70 d         -18.524  11.757  -7.044  0.00  0.00     0.037 H 
ATOM     16  H4  Z70 d         -18.612  12.558  -5.439  0.00  0.00     0.037 H 
BRANCH  14  17
ATOM     17  CA  Z70 d         -20.486  11.734  -6.137  0.00  0.00     0.182 C 
ATOM     18  H1  Z70 d         -21.131  11.876  -7.017  0.00  0.00     0.101 H 
BRANCH  17  19
ATOM     19  C   Z70 d         -20.410  10.220  -5.832  0.00  0.00     0.204 C 
ATOM     20  OXT Z70 d         -19.378   9.524  -6.180  0.00  0.00    -0.646 OA
ATOM     21  O   Z70 d         -21.380   9.634  -5.232  0.00  0.00    -0.646 OA
ENDBRANCH  17  19
BRANCH  17  22
ATOM     22  N   Z70 d         -21.049  12.396  -5.010  0.00  0.00    -0.065 N 
ATOM     23  H7  Z70 d         -20.590  13.284  -4.878  0.00  0.00     0.275 HD
ATOM     24  H8  Z70 d         -20.922  11.826  -4.188  0.00  0.00     0.275 HD
ATOM     25  H9  Z70 d         -22.034  12.546  -5.165  0.00  0.00     0.275 HD
ENDBRANCH  17  22
ENDBRANCH  14  17
ENDBRANCH   1  14
TORSDOF 6
ENDMDL
MODEL 6
REMARK VINA RESULT:      -3.6      1.778      2.446
REMARK  6 active torsions:
REMARK  status: ('A' for Active; 'I' for Inactive)
REMARK    1  A    between atoms: CA_1  and  C_2 
REMARK    2  A    between atoms: C6_6  and  CA_1 
REMARK    3  A    between atoms: CA_1  and  N_8 
REMARK    4  A    between atoms: C7_7  and  C3_3 
REMARK    5  A    between atoms: C4_4  and  N4_11 
REMARK    6  A    between atoms: C6_6  and  C7_7 
ROOT
ATOM      1  C7  Z70 d         -18.953  15.496  -6.574  0.00  0.00    -0.023 C 
ATOM      2  H5  Z70 d         -18.359  15.539  -7.499  0.00  0.00     0.042 H 
ATOM      3  H6  Z70 d         -18.337  15.832  -5.726  0.00  0.00     0.042 H 
ENDROOT
BRANCH   1   4
ATOM      4  C3  Z70 d         -19.364  14.048  -6.329  0.00  0.00     0.029 A 
ATOM      5  C5  Z70 d         -20.604  13.747  -5.589  0.00  0.00     0.028 A 
ATOM      6  N3  Z70 d         -20.631  12.355  -5.558  0.00  0.00    -0.226 NA
ATOM      7  H2  Z70 d         -21.326  14.445  -5.168  0.00  0.00     0.117 H 
ATOM      8  C4  Z70 d         -19.496  11.885  -6.226  0.00  0.00     0.199 A 
ATOM      9  N2  Z70 d         -18.722  12.886  -6.698  0.00  0.00    -0.329 N 
ATOM     10  H10 Z70 d         -17.839  12.799  -7.222  0.00  0.00     0.169 HD
BRANCH   8  11
ATOM     11  N4  Z70 d         -19.194  10.545  -6.386  0.00  0.00    -0.369 N 
ATOM     12  H11 Z70 d         -18.651  10.232  -7.203  0.00  0.00     0.159 HD
ATOM     13  H12 Z70 d         -19.512   9.858  -5.686  0.00  0.00     0.159 HD
ENDBRANCH   8  11
ENDBRANCH   1   4
BRANCH   1  14
ATOM     14  C6  Z70 d         -20.138  16.451  -6.717  0.00  0.00    -0.024 C 
ATOM     15  H3  Z70 d         -19.921  17.147  -7.540  0.00  0.00     0.037 H 
ATOM     16  H4  Z70 d         -21.030  15.857  -6.964  0.00  0.00     0.037 H 
BRANCH  14  17
ATOM     17  CA  Z70 d         -20.445  17.282  -5.446  0.00  0.00     0.182 C 
ATOM     18  H1  Z70 d         -21.494  17.613  -5.487  0.00  0.00     0.101 H 
BRANCH  17  19
ATOM     19  C   Z70 d         -20.223  16.542  -4.108  0.00  0.00     0.204 C 
ATOM     20  OXT Z70 d         -19.064  16.538  -3.535  0.00  0.00    -0.646 OA
ATOM     21  O   Z70 d         -21.192  15.912  -3.552  0.00  0.00    -0.646 OA
ENDBRANCH  17  19
BRANCH  17  22
ATOM     22  N   Z70 d         -19.577  18.409  -5.491  0.00  0.00    -0.065 N 
ATOM     23  H7  Z70 d         -18.818  18.223  -6.128  0.00  0.00     0.275 HD
ATOM     24  H8  Z70 d         -19.209  18.586  -4.569  0.00  0.00     0.275 HD
ATOM     25  H9  Z70 d         -20.091  19.217  -5.808  0.00  0.00     0.275 HD
ENDBRANCH  17  22
ENDBRANCH  14  17
ENDBRANCH   1  14
TORSDOF 6
ENDMDL
