MODEL 1
REMARK VINA RESULT:      -8.2      0.000      0.000
REMARK  5 active torsions:
REMARK  status: ('A' for Active; 'I' for Inactive)
REMARK    1  A    between atoms: S1_2  and  N1_4 
REMARK    2  A    between atoms: S1_2  and  C13_10 
REMARK    3  A    between atoms: N1_4  and  C12_5 
REMARK    4  A    between atoms: C12_5  and  C14_6 
REMARK       I    between atoms: C14_6  and  N2_8 
REMARK    5  A    between atoms: C2_15  and  C1_16 
ROOT
ATOM      1  C13 HS4 d           2.569  -5.693   6.065  0.00  0.00     0.079 A 
ATOM      2  C10 HS4 d           2.279  -6.052   7.385  0.00  0.00    -0.059 A 
ATOM      3  C5  HS4 d           3.251  -6.591   8.222  0.00  0.00    -0.071 A 
ATOM      4  C11 HS4 d           3.864  -5.910   5.583  0.00  0.00    -0.059 A 
ATOM      5  C8  HS4 d           4.840  -6.453   6.422  0.00  0.00    -0.071 A 
ATOM      6  C2  HS4 d           4.539  -6.818   7.739  0.00  0.00    -0.026 A 
ATOM      7  H4  HS4 d           1.274  -5.907   7.765  0.00  0.00     0.085 H 
ATOM      8  H5  HS4 d           3.007  -6.835   9.249  0.00  0.00     0.084 H 
ATOM      9  H6  HS4 d           4.111  -5.656   4.559  0.00  0.00     0.085 H 
ATOM     10  H7  HS4 d           5.848  -6.595   6.047  0.00  0.00     0.084 H 
ENDROOT
BRANCH   1  11
ATOM     11  S1  HS4 d           1.331  -5.070   5.264  0.00  0.00     0.259 S 
ATOM     12  O4  HS4 d           1.745  -3.691   5.396  0.00  0.00    -0.201 OA
ATOM     13  O3  HS4 d           0.077  -5.435   5.755  0.00  0.00    -0.201 OA
BRANCH  11  14
ATOM     14  N1  HS4 d           1.301  -5.168   3.668  0.00  0.00    -0.306 N 
ATOM     15  H1  HS4 d           0.748  -4.487   3.188  0.00  0.00     0.172 HD
BRANCH  14  16
ATOM     16  C12 HS4 d           1.985  -6.131   2.851  0.00  0.00     0.080 C 
ATOM     17  H2  HS4 d           3.013  -6.254   3.224  0.00  0.00     0.079 H 
ATOM     18  H3  HS4 d           2.012  -5.768   1.813  0.00  0.00     0.079 H 
BRANCH  16  19
ATOM     19  C14 HS4 d           1.287  -7.463   2.888  0.00  0.00     0.287 C 
ATOM     20  O1  HS4 d           1.455  -8.292   3.780  0.00  0.00    -0.267 OA
ATOM     21  N2  HS4 d           0.458  -7.668   1.890  0.00  0.00    -0.057 NA
ATOM     22  O2  HS4 d          -0.255  -8.842   1.866  0.00  0.00    -0.058 OA
ENDBRANCH  16  19
ENDBRANCH  14  16
ENDBRANCH  11  14
ENDBRANCH   1  11
BRANCH   6  23
ATOM     23  C1  HS4 d           5.583  -7.343   8.662  0.00  0.00    -0.026 A 
ATOM     24  C4  HS4 d           5.421  -7.434  10.040  0.00  0.00    -0.072 A 
ATOM     25  C7  HS4 d           6.465  -7.897  10.843  0.00  0.00    -0.082 A 
ATOM     26  H8  HS4 d           4.480  -7.142  10.492  0.00  0.00     0.084 H 
ATOM     27  C9  HS4 d           7.685  -8.242  10.278  0.00  0.00    -0.083 A 
ATOM     28  H9  HS4 d           6.322  -7.987  11.914  0.00  0.00     0.083 H 
ATOM     29  C6  HS4 d           7.863  -8.124   8.905  0.00  0.00    -0.082 A 
ATOM     30  H10 HS4 d           8.494  -8.602  10.904  0.00  0.00     0.083 H 
ATOM     31  C3  HS4 d           6.825  -7.665   8.108  0.00  0.00    -0.072 A 
ATOM     32  H11 HS4 d           8.813  -8.391   8.457  0.00  0.00     0.083 H 
ATOM     33  H12 HS4 d           6.979  -7.554   7.040  0.00  0.00     0.084 H 
ENDBRANCH   6  23
TORSDOF 5
ENDMDL
MODEL 2
REMARK VINA RESULT:      -7.1      1.677      2.734
REMARK  5 active torsions:
REMARK  status: ('A' for Active; 'I' for Inactive)
REMARK    1  A    between atoms: S1_2  and  N1_4 
REMARK    2  A    between atoms: S1_2  and  C13_10 
REMARK    3  A    between atoms: N1_4  and  C12_5 
REMARK    4  A    between atoms: C12_5  and  C14_6 
REMARK       I    between atoms: C14_6  and  N2_8 
REMARK    5  A    between atoms: C2_15  and  C1_16 
ROOT
ATOM      1  C13 HS4 d           2.455  -5.864   6.348  0.00  0.00     0.079 A 
ATOM      2  C10 HS4 d           3.738  -5.993   5.807  0.00  0.00    -0.059 A 
ATOM      3  C5  HS4 d           4.800  -6.482   6.563  0.00  0.00    -0.071 A 
ATOM      4  C11 HS4 d           2.257  -6.216   7.687  0.00  0.00    -0.059 A 
ATOM      5  C8  HS4 d           3.323  -6.705   8.447  0.00  0.00    -0.071 A 
ATOM      6  C2  HS4 d           4.605  -6.822   7.900  0.00  0.00    -0.026 A 
ATOM      7  H4  HS4 d           3.910  -5.706   4.776  0.00  0.00     0.085 H 
ATOM      8  H5  HS4 d           5.778  -6.598   6.111  0.00  0.00     0.084 H 
ATOM      9  H6  HS4 d           1.276  -6.110   8.136  0.00  0.00     0.085 H 
ATOM     10  H7  HS4 d           3.154  -6.998   9.477  0.00  0.00     0.084 H 
ENDROOT
BRANCH   1  11
ATOM     11  S1  HS4 d           1.360  -5.306   5.323  0.00  0.00     0.259 S 
ATOM     12  O4  HS4 d           1.916  -3.976   5.218  0.00  0.00    -0.201 OA
ATOM     13  O3  HS4 d           0.039  -5.440   5.753  0.00  0.00    -0.201 OA
BRANCH  11  14
ATOM     14  N1  HS4 d           1.440  -5.731   3.783  0.00  0.00    -0.306 N 
ATOM     15  H1  HS4 d           1.227  -6.685   3.571  0.00  0.00     0.172 HD
BRANCH  14  16
ATOM     16  C12 HS4 d           1.785  -4.887   2.674  0.00  0.00     0.080 C 
ATOM     17  H2  HS4 d           1.518  -5.398   1.737  0.00  0.00     0.079 H 
ATOM     18  H3  HS4 d           2.868  -4.695   2.691  0.00  0.00     0.079 H 
BRANCH  16  19
ATOM     19  C14 HS4 d           1.053  -3.575   2.745  0.00  0.00     0.287 C 
ATOM     20  O1  HS4 d           1.618  -2.487   2.822  0.00  0.00    -0.267 OA
ATOM     21  N2  HS4 d          -0.255  -3.681   2.696  0.00  0.00    -0.057 NA
ATOM     22  O2  HS4 d          -1.004  -2.529   2.712  0.00  0.00    -0.058 OA
ENDBRANCH  16  19
ENDBRANCH  14  16
ENDBRANCH  11  14
ENDBRANCH   1  11
BRANCH   6  23
ATOM     23  C1  HS4 d           5.737  -7.396   8.680  0.00  0.00    -0.026 A 
ATOM     24  C4  HS4 d           6.863  -7.968   8.099  0.00  0.00    -0.072 A 
ATOM     25  C7  HS4 d           7.863  -8.525   8.899  0.00  0.00    -0.082 A 
ATOM     26  H8  HS4 d           6.965  -7.982   7.019  0.00  0.00     0.084 H 
ATOM     27  C9  HS4 d           7.728  -8.541  10.281  0.00  0.00    -0.083 A 
ATOM     28  H9  HS4 d           8.749  -8.948   8.439  0.00  0.00     0.083 H 
ATOM     29  C6  HS4 d           6.590  -7.999  10.865  0.00  0.00    -0.082 A 
ATOM     30  H10 HS4 d           8.506  -8.974  10.900  0.00  0.00     0.083 H 
ATOM     31  C3  HS4 d           5.598  -7.445  10.070  0.00  0.00    -0.072 A 
ATOM     32  H11 HS4 d           6.477  -8.010  11.943  0.00  0.00     0.083 H 
ATOM     33  H12 HS4 d           4.702  -7.045  10.532  0.00  0.00     0.084 H 
ENDBRANCH   6  23
TORSDOF 5
ENDMDL
MODEL 3
REMARK VINA RESULT:      -7.0      1.853      3.375
REMARK  5 active torsions:
REMARK  status: ('A' for Active; 'I' for Inactive)
REMARK    1  A    between atoms: S1_2  and  N1_4 
REMARK    2  A    between atoms: S1_2  and  C13_10 
REMARK    3  A    between atoms: N1_4  and  C12_5 
REMARK    4  A    between atoms: C12_5  and  C14_6 
REMARK       I    between atoms: C14_6  and  N2_8 
REMARK    5  A    between atoms: C2_15  and  C1_16 
ROOT
ATOM      1  C13 HS4 d           2.306  -6.593   4.171  0.00  0.00     0.079 A 
ATOM      2  C10 HS4 d           3.380  -5.734   4.429  0.00  0.00    -0.059 A 
ATOM      3  C5  HS4 d           4.157  -5.867   5.577  0.00  0.00    -0.071 A 
ATOM      4  C11 HS4 d           2.006  -7.586   5.109  0.00  0.00    -0.059 A 
ATOM      5  C8  HS4 d           2.785  -7.719   6.262  0.00  0.00    -0.071 A 
ATOM      6  C2  HS4 d           3.851  -6.850   6.516  0.00  0.00    -0.026 A 
ATOM      7  H4  HS4 d           3.612  -4.948   3.720  0.00  0.00     0.085 H 
ATOM      8  H5  HS4 d           5.000  -5.206   5.739  0.00  0.00     0.084 H 
ATOM      9  H6  HS4 d           1.169  -8.254   4.941  0.00  0.00     0.085 H 
ATOM     10  H7  HS4 d           2.559  -8.508   6.970  0.00  0.00     0.084 H 
ENDROOT
BRANCH   1  11
ATOM     11  S1  HS4 d           1.545  -6.301   2.795  0.00  0.00     0.259 S 
ATOM     12  O4  HS4 d           0.286  -5.921   3.396  0.00  0.00    -0.201 OA
ATOM     13  O3  HS4 d           1.553  -7.362   1.888  0.00  0.00    -0.201 OA
BRANCH  11  14
ATOM     14  N1  HS4 d           1.856  -4.949   1.998  0.00  0.00    -0.306 N 
ATOM     15  H1  HS4 d           2.724  -4.913   1.502  0.00  0.00     0.172 HD
BRANCH  14  16
ATOM     16  C12 HS4 d           1.022  -3.783   1.921  0.00  0.00     0.080 C 
ATOM     17  H2  HS4 d           0.011  -4.084   1.611  0.00  0.00     0.079 H 
ATOM     18  H3  HS4 d           1.442  -3.089   1.178  0.00  0.00     0.079 H 
BRANCH  16  19
ATOM     19  C14 HS4 d           0.941  -3.087   3.252  0.00  0.00     0.287 C 
ATOM     20  O1  HS4 d          -0.093  -2.593   3.696  0.00  0.00    -0.267 OA
ATOM     21  N2  HS4 d           2.070  -3.066   3.922  0.00  0.00    -0.057 NA
ATOM     22  O2  HS4 d           2.078  -2.487   5.169  0.00  0.00    -0.058 OA
ENDBRANCH  16  19
ENDBRANCH  14  16
ENDBRANCH  11  14
ENDBRANCH   1  11
BRANCH   6  23
ATOM     23  C1  HS4 d           4.725  -7.016   7.710  0.00  0.00    -0.026 A 
ATOM     24  C4  HS4 d           4.245  -7.086   9.014  0.00  0.00    -0.072 A 
ATOM     25  C7  HS4 d           5.133  -7.198  10.086  0.00  0.00    -0.082 A 
ATOM     26  H8  HS4 d           3.178  -7.052   9.199  0.00  0.00     0.084 H 
ATOM     27  C9  HS4 d           6.504  -7.210   9.864  0.00  0.00    -0.083 A 
ATOM     28  H9  HS4 d           4.751  -7.276  11.097  0.00  0.00     0.083 H 
ATOM     29  C6  HS4 d           6.989  -7.109   8.566  0.00  0.00    -0.082 A 
ATOM     30  H10 HS4 d           7.192  -7.297  10.698  0.00  0.00     0.083 H 
ATOM     31  C3  HS4 d           6.106  -6.998   7.501  0.00  0.00    -0.072 A 
ATOM     32  H11 HS4 d           8.058  -7.116   8.385  0.00  0.00     0.083 H 
ATOM     33  H12 HS4 d           6.493  -6.897   6.493  0.00  0.00     0.084 H 
ENDBRANCH   6  23
TORSDOF 5
ENDMDL
