MODEL 1
REMARK VINA RESULT:      -8.0      0.000      0.000
REMARK  2 active torsions:
REMARK  status: ('A' for Active; 'I' for Inactive)
REMARK    1  A    between atoms: C6_3  and  S_5 
REMARK    2  A    between atoms: S_5  and  N_10 
ROOT
ATOM      1  C4  SKF d          28.777  46.087  16.749  0.00  0.00    -0.075 A 
ATOM      2  C5  SKF d          28.410  45.472  15.560  0.00  0.00    -0.060 A 
ATOM      3  C6  SKF d          28.056  44.118  15.563  0.00  0.00     0.080 A 
ATOM      4  C7  SKF d          28.074  43.397  16.751  0.00  0.00    -0.052 A 
ATOM      5  C8  SKF d          28.442  44.010  17.933  0.00  0.00    -0.025 A 
ATOM      6  C9  SKF d          28.795  45.364  17.936  0.00  0.00    -0.049 A 
ATOM      7  C1  SKF d          28.379  43.234  19.225  0.00  0.00     0.106 C 
ATOM      8  C2  SKF d          28.848  45.378  20.394  0.00  0.00     0.086 C 
ATOM      9  C3  SKF d          29.482  45.935  19.138  0.00  0.00    -0.018 C 
ATOM     10  N1  SKF d          29.066  43.907  20.352  0.00  0.00    -0.071 N 
ATOM     11  H1  SKF d          29.051  47.136  16.752  0.00  0.00     0.084 H 
ATOM     12  H2  SKF d          28.397  46.036  14.635  0.00  0.00     0.085 H 
ATOM     13  H3  SKF d          27.797  42.349  16.749  0.00  0.00     0.086 H 
ATOM     14  H6  SKF d          28.850  42.253  19.064  0.00  0.00     0.083 H 
ATOM     15  H7  SKF d          27.322  43.093  19.495  0.00  0.00     0.083 H 
ATOM     16  H8  SKF d          27.772  45.603  20.410  0.00  0.00     0.076 H 
ATOM     17  H9  SKF d          29.326  45.809  21.286  0.00  0.00     0.076 H 
ATOM     18  H10 SKF d          29.382  47.030  19.132  0.00  0.00     0.042 H 
ATOM     19  H11 SKF d          30.548  45.664  19.114  0.00  0.00     0.042 H 
ATOM     20  H12 SKF d          30.056  43.734  20.270  0.00  0.00     0.277 HD
ATOM     21  H13 SKF d          28.727  43.510  21.214  0.00  0.00     0.277 HD
ENDROOT
BRANCH   3  22
ATOM     22  S   SKF d          27.594  43.320  14.059  0.00  0.00     0.256 S 
ATOM     23  O1  SKF d          26.159  43.157  13.979  0.00  0.00    -0.201 OA
ATOM     24  O2  SKF d          28.220  42.032  13.901  0.00  0.00    -0.201 OA
BRANCH  22  25
ATOM     25  N   SKF d          28.070  44.255  12.883  0.00  0.00    -0.324 N 
ATOM     26  H4  SKF d          27.870  45.234  12.910  0.00  0.00     0.169 HD
ATOM     27  H5  SKF d          28.573  43.869  12.110  0.00  0.00     0.169 HD
ENDBRANCH  22  25
ENDBRANCH   3  22
TORSDOF 2
ENDMDL
MODEL 2
REMARK VINA RESULT:      -7.2      3.325      5.504
REMARK  2 active torsions:
REMARK  status: ('A' for Active; 'I' for Inactive)
REMARK    1  A    between atoms: C6_3  and  S_5 
REMARK    2  A    between atoms: S_5  and  N_10 
ROOT
ATOM      1  C4  SKF d          27.612  42.396  17.054  0.00  0.00    -0.075 A 
ATOM      2  C5  SKF d          28.078  42.994  18.217  0.00  0.00    -0.060 A 
ATOM      3  C6  SKF d          28.640  44.274  18.157  0.00  0.00     0.080 A 
ATOM      4  C7  SKF d          28.730  44.939  16.940  0.00  0.00    -0.052 A 
ATOM      5  C8  SKF d          28.269  44.341  15.783  0.00  0.00    -0.025 A 
ATOM      6  C9  SKF d          27.704  43.062  15.837  0.00  0.00    -0.049 A 
ATOM      7  C1  SKF d          28.302  45.108  14.485  0.00  0.00     0.106 C 
ATOM      8  C2  SKF d          26.988  43.245  13.492  0.00  0.00     0.086 C 
ATOM      9  C3  SKF d          27.496  42.304  14.562  0.00  0.00    -0.018 C 
ATOM     10  N1  SKF d          28.055  44.263  13.294  0.00  0.00    -0.071 N 
ATOM     11  H1  SKF d          27.175  41.405  17.094  0.00  0.00     0.084 H 
ATOM     12  H2  SKF d          28.006  42.474  19.165  0.00  0.00     0.085 H 
ATOM     13  H3  SKF d          29.165  45.931  16.899  0.00  0.00     0.086 H 
ATOM     14  H6  SKF d          29.293  45.575  14.383  0.00  0.00     0.083 H 
ATOM     15  H7  SKF d          27.530  45.891  14.523  0.00  0.00     0.083 H 
ATOM     16  H8  SKF d          26.056  43.729  13.821  0.00  0.00     0.076 H 
ATOM     17  H9  SKF d          26.806  42.697  12.556  0.00  0.00     0.076 H 
ATOM     18  H10 SKF d          26.758  41.505  14.728  0.00  0.00     0.042 H 
ATOM     19  H11 SKF d          28.450  41.862  14.239  0.00  0.00     0.042 H 
ATOM     20  H12 SKF d          28.911  43.785  13.059  0.00  0.00     0.277 HD
ATOM     21  H13 SKF d          27.785  44.862  12.529  0.00  0.00     0.277 HD
ENDROOT
BRANCH   3  22
ATOM     22  S   SKF d          29.243  45.045  19.625  0.00  0.00     0.256 S 
ATOM     23  O1  SKF d          29.116  46.484  19.544  0.00  0.00    -0.201 OA
ATOM     24  O2  SKF d          30.617  44.712  19.901  0.00  0.00    -0.201 OA
BRANCH  22  25
ATOM     25  N   SKF d          28.353  44.519  20.815  0.00  0.00    -0.324 N 
ATOM     26  H4  SKF d          27.973  45.163  21.478  0.00  0.00     0.169 HD
ATOM     27  H5  SKF d          28.168  43.541  20.906  0.00  0.00     0.169 HD
ENDBRANCH  22  25
ENDBRANCH   3  22
TORSDOF 2
ENDMDL
MODEL 3
REMARK VINA RESULT:      -7.2      1.035      2.009
REMARK  2 active torsions:
REMARK  status: ('A' for Active; 'I' for Inactive)
REMARK    1  A    between atoms: C6_3  and  S_5 
REMARK    2  A    between atoms: S_5  and  N_10 
ROOT
ATOM      1  C4  SKF d          27.917  42.464  18.033  0.00  0.00    -0.075 A 
ATOM      2  C5  SKF d          27.658  42.285  16.681  0.00  0.00    -0.060 A 
ATOM      3  C6  SKF d          27.908  43.331  15.786  0.00  0.00     0.080 A 
ATOM      4  C7  SKF d          28.412  44.539  16.250  0.00  0.00    -0.052 A 
ATOM      5  C8  SKF d          28.667  44.717  17.597  0.00  0.00    -0.025 A 
ATOM      6  C9  SKF d          28.420  43.674  18.496  0.00  0.00    -0.049 A 
ATOM      7  C1  SKF d          29.288  46.006  18.072  0.00  0.00     0.106 C 
ATOM      8  C2  SKF d          29.520  44.929  20.302  0.00  0.00     0.086 C 
ATOM      9  C3  SKF d          28.401  43.968  19.965  0.00  0.00    -0.018 C 
ATOM     10  N1  SKF d          29.238  46.178  19.543  0.00  0.00    -0.071 N 
ATOM     11  H1  SKF d          27.726  41.657  18.731  0.00  0.00     0.084 H 
ATOM     12  H2  SKF d          27.265  41.341  16.321  0.00  0.00     0.085 H 
ATOM     13  H3  SKF d          28.606  45.346  15.553  0.00  0.00     0.086 H 
ATOM     14  H6  SKF d          28.751  46.844  17.605  0.00  0.00     0.083 H 
ATOM     15  H7  SKF d          30.342  46.023  17.756  0.00  0.00     0.083 H 
ATOM     16  H8  SKF d          30.490  44.508  19.996  0.00  0.00     0.076 H 
ATOM     17  H9  SKF d          29.534  45.134  21.382  0.00  0.00     0.076 H 
ATOM     18  H10 SKF d          28.539  43.034  20.527  0.00  0.00     0.042 H 
ATOM     19  H11 SKF d          27.435  44.421  20.235  0.00  0.00     0.042 H 
ATOM     20  H12 SKF d          28.318  46.502  19.795  0.00  0.00     0.277 HD
ATOM     21  H13 SKF d          29.922  46.870  19.806  0.00  0.00     0.277 HD
ENDROOT
BRANCH   3  22
ATOM     22  S   SKF d          27.577  43.121  14.066  0.00  0.00     0.256 S 
ATOM     23  O1  SKF d          26.171  43.314  13.782  0.00  0.00    -0.201 OA
ATOM     24  O2  SKF d          27.980  41.828  13.578  0.00  0.00    -0.201 OA
BRANCH  22  25
ATOM     25  N   SKF d          28.408  44.223  13.304  0.00  0.00    -0.324 N 
ATOM     26  H4  SKF d          28.867  44.948  13.818  0.00  0.00     0.169 HD
ATOM     27  H5  SKF d          28.476  44.198  12.307  0.00  0.00     0.169 HD
ENDBRANCH  22  25
ENDBRANCH   3  22
TORSDOF 2
ENDMDL
MODEL 4
REMARK VINA RESULT:      -7.0      3.405      5.493
REMARK  2 active torsions:
REMARK  status: ('A' for Active; 'I' for Inactive)
REMARK    1  A    between atoms: C6_3  and  S_5 
REMARK    2  A    between atoms: S_5  and  N_10 
ROOT
ATOM      1  C4  SKF d          27.601  42.295  16.943  0.00  0.00    -0.075 A 
ATOM      2  C5  SKF d          27.986  42.846  18.159  0.00  0.00    -0.060 A 
ATOM      3  C6  SKF d          28.511  44.143  18.194  0.00  0.00     0.080 A 
ATOM      4  C7  SKF d          28.645  44.872  17.019  0.00  0.00    -0.052 A 
ATOM      5  C8  SKF d          28.263  44.322  15.810  0.00  0.00    -0.025 A 
ATOM      6  C9  SKF d          27.737  43.026  15.769  0.00  0.00    -0.049 A 
ATOM      7  C1  SKF d          28.341  45.155  14.556  0.00  0.00     0.106 C 
ATOM      8  C2  SKF d          27.140  43.310  13.401  0.00  0.00     0.086 C 
ATOM      9  C3  SKF d          27.620  42.329  14.448  0.00  0.00    -0.018 C 
ATOM     10  N1  SKF d          28.184  44.367  13.312  0.00  0.00    -0.071 N 
ATOM     11  H1  SKF d          27.194  41.292  16.910  0.00  0.00     0.084 H 
ATOM     12  H2  SKF d          27.881  42.275  19.074  0.00  0.00     0.085 H 
ATOM     13  H3  SKF d          29.050  45.876  17.051  0.00  0.00     0.086 H 
ATOM     14  H6  SKF d          29.321  45.655  14.530  0.00  0.00     0.083 H 
ATOM     15  H7  SKF d          27.544  45.913  14.591  0.00  0.00     0.083 H 
ATOM     16  H8  SKF d          26.177  43.750  13.702  0.00  0.00     0.076 H 
ATOM     17  H9  SKF d          27.024  42.806  12.430  0.00  0.00     0.076 H 
ATOM     18  H10 SKF d          26.900  41.502  14.533  0.00  0.00     0.042 H 
ATOM     19  H11 SKF d          28.603  41.932  14.155  0.00  0.00     0.042 H 
ATOM     20  H12 SKF d          29.065  43.926  13.100  0.00  0.00     0.277 HD
ATOM     21  H13 SKF d          27.936  44.996  12.565  0.00  0.00     0.277 HD
ENDROOT
BRANCH   3  22
ATOM     22  S   SKF d          29.012  44.853  19.729  0.00  0.00     0.256 S 
ATOM     23  O1  SKF d          30.235  44.245  20.206  0.00  0.00    -0.201 OA
ATOM     24  O2  SKF d          28.003  44.734  20.749  0.00  0.00    -0.201 OA
BRANCH  22  25
ATOM     25  N   SKF d          29.272  46.384  19.459  0.00  0.00    -0.324 N 
ATOM     26  H4  SKF d          28.502  47.002  19.304  0.00  0.00     0.169 HD
ATOM     27  H5  SKF d          30.207  46.737  19.444  0.00  0.00     0.169 HD
ENDBRANCH  22  25
ENDBRANCH   3  22
TORSDOF 2
ENDMDL
MODEL 5
REMARK VINA RESULT:      -6.7      3.512      5.169
REMARK  2 active torsions:
REMARK  status: ('A' for Active; 'I' for Inactive)
REMARK    1  A    between atoms: C6_3  and  S_5 
REMARK    2  A    between atoms: S_5  and  N_10 
ROOT
ATOM      1  C4  SKF d          28.718  46.149  16.200  0.00  0.00    -0.075 A 
ATOM      2  C5  SKF d          29.009  46.132  17.557  0.00  0.00    -0.060 A 
ATOM      3  C6  SKF d          28.839  44.949  18.285  0.00  0.00     0.080 A 
ATOM      4  C7  SKF d          28.382  43.801  17.650  0.00  0.00    -0.052 A 
ATOM      5  C8  SKF d          28.090  43.820  16.299  0.00  0.00    -0.025 A 
ATOM      6  C9  SKF d          28.259  45.000  15.567  0.00  0.00    -0.049 A 
ATOM      7  C1  SKF d          27.671  42.546  15.611  0.00  0.00     0.106 C 
ATOM      8  C2  SKF d          27.848  43.791  13.466  0.00  0.00     0.086 C 
ATOM      9  C3  SKF d          27.657  45.101  14.199  0.00  0.00    -0.018 C 
ATOM     10  N1  SKF d          27.116  42.763  14.254  0.00  0.00    -0.071 N 
ATOM     11  H1  SKF d          28.849  47.063  15.631  0.00  0.00     0.084 H 
ATOM     12  H2  SKF d          29.366  47.029  18.050  0.00  0.00     0.085 H 
ATOM     13  H3  SKF d          28.253  42.886  18.217  0.00  0.00     0.086 H 
ATOM     14  H6  SKF d          26.904  42.054  16.226  0.00  0.00     0.083 H 
ATOM     15  H7  SKF d          28.550  41.890  15.526  0.00  0.00     0.083 H 
ATOM     16  H8  SKF d          28.917  43.538  13.408  0.00  0.00     0.076 H 
ATOM     17  H9  SKF d          27.432  43.859  12.449  0.00  0.00     0.076 H 
ATOM     18  H10 SKF d          28.150  45.909  13.640  0.00  0.00     0.042 H 
ATOM     19  H11 SKF d          26.582  45.318  14.288  0.00  0.00     0.042 H 
ATOM     20  H12 SKF d          26.156  43.056  14.346  0.00  0.00     0.277 HD
ATOM     21  H13 SKF d          27.154  41.890  13.751  0.00  0.00     0.277 HD
ENDROOT
BRANCH   3  22
ATOM     22  S   SKF d          29.198  44.913  20.012  0.00  0.00     0.256 S 
ATOM     23  O1  SKF d          27.987  44.759  20.789  0.00  0.00    -0.201 OA
ATOM     24  O2  SKF d          29.892  46.093  20.458  0.00  0.00    -0.201 OA
BRANCH  22  25
ATOM     25  N   SKF d          30.126  43.663  20.259  0.00  0.00    -0.324 N 
ATOM     26  H4  SKF d          30.710  43.627  21.069  0.00  0.00     0.169 HD
ATOM     27  H5  SKF d          30.130  42.907  19.605  0.00  0.00     0.169 HD
ENDBRANCH  22  25
ENDBRANCH   3  22
TORSDOF 2
ENDMDL
MODEL 6
REMARK VINA RESULT:      -5.8      3.453      5.146
REMARK  2 active torsions:
REMARK  status: ('A' for Active; 'I' for Inactive)
REMARK    1  A    between atoms: C6_3  and  S_5 
REMARK    2  A    between atoms: S_5  and  N_10 
ROOT
ATOM      1  C4  SKF d          28.648  45.772  15.795  0.00  0.00    -0.075 A 
ATOM      2  C5  SKF d          29.077  45.905  17.109  0.00  0.00    -0.060 A 
ATOM      3  C6  SKF d          28.825  44.877  18.025  0.00  0.00     0.080 A 
ATOM      4  C7  SKF d          28.150  43.733  17.618  0.00  0.00    -0.052 A 
ATOM      5  C8  SKF d          27.722  43.603  16.310  0.00  0.00    -0.025 A 
ATOM      6  C9  SKF d          27.972  44.627  15.391  0.00  0.00    -0.049 A 
ATOM      7  C1  SKF d          27.062  42.322  15.867  0.00  0.00     0.106 C 
ATOM      8  C2  SKF d          27.179  43.207  13.547  0.00  0.00     0.086 C 
ATOM      9  C3  SKF d          27.247  44.622  14.080  0.00  0.00    -0.018 C 
ATOM     10  N1  SKF d          26.401  42.424  14.545  0.00  0.00    -0.071 N 
ATOM     11  H1  SKF d          28.841  46.565  15.082  0.00  0.00     0.084 H 
ATOM     12  H2  SKF d          29.603  46.799  17.424  0.00  0.00     0.085 H 
ATOM     13  H3  SKF d          27.959  42.938  18.330  0.00  0.00     0.086 H 
ATOM     14  H6  SKF d          26.305  42.044  16.615  0.00  0.00     0.083 H 
ATOM     15  H7  SKF d          27.829  41.535  15.813  0.00  0.00     0.083 H 
ATOM     16  H8  SKF d          28.191  42.790  13.440  0.00  0.00     0.076 H 
ATOM     17  H9  SKF d          26.671  43.192  12.571  0.00  0.00     0.076 H 
ATOM     18  H10 SKF d          27.784  45.258  13.362  0.00  0.00     0.042 H 
ATOM     19  H11 SKF d          26.228  45.010  14.224  0.00  0.00     0.042 H 
ATOM     20  H12 SKF d          25.506  42.869  14.671  0.00  0.00     0.277 HD
ATOM     21  H13 SKF d          26.266  41.493  14.184  0.00  0.00     0.277 HD
ENDROOT
BRANCH   3  22
ATOM     22  S   SKF d          29.356  45.034  19.700  0.00  0.00     0.256 S 
ATOM     23  O1  SKF d          29.787  46.386  19.981  0.00  0.00    -0.201 OA
ATOM     24  O2  SKF d          30.422  44.124  20.030  0.00  0.00    -0.201 OA
BRANCH  22  25
ATOM     25  N   SKF d          28.111  44.695  20.606  0.00  0.00    -0.324 N 
ATOM     26  H4  SKF d          28.223  44.607  21.596  0.00  0.00     0.169 HD
ATOM     27  H5  SKF d          27.211  44.567  20.191  0.00  0.00     0.169 HD
ENDBRANCH  22  25
ENDBRANCH   3  22
TORSDOF 2
ENDMDL
