MODEL 1
REMARK VINA RESULT:      -8.7      0.000      0.000
REMARK  6 active torsions:
REMARK  status: ('A' for Active; 'I' for Inactive)
REMARK    1  A    between atoms: N1_2  and  C1_1 
REMARK    2  A    between atoms: C2_3  and  O2_5 
REMARK    3  A    between atoms: C9_17  and  N3_8 
REMARK    4  A    between atoms: C4_9  and  O4_10 
REMARK    5  A    between atoms: C5_11  and  C6_13 
REMARK    6  A    between atoms: C6_13  and  O6_14 
ROOT
ATOM      1  C1  DKZ d          33.131  22.999  28.162  0.00  0.00     0.141 C 
ATOM      2  C2  DKZ d          33.359  23.309  26.671  0.00  0.00     0.110 C 
ATOM      3  C3  DKZ d          32.395  22.459  25.811  0.00  0.00     0.134 C 
ATOM      4  F3  DKZ d          32.743  22.544  24.483  0.00  0.00    -0.244 F 
ATOM      5  C4  DKZ d          32.397  20.970  26.235  0.00  0.00     0.094 C 
ATOM      6  C5  DKZ d          32.365  20.758  27.768  0.00  0.00     0.088 C 
ATOM      7  O5  DKZ d          33.372  21.575  28.416  0.00  0.00    -0.353 OA
ATOM      8  H1  DKZ d          32.092  23.268  28.404  0.00  0.00     0.123 H 
ATOM      9  H2  DKZ d          34.390  23.026  26.412  0.00  0.00     0.094 H 
ATOM     10  H5  DKZ d          31.377  22.858  25.939  0.00  0.00     0.100 H 
ATOM     11  H7  DKZ d          33.311  20.501  25.843  0.00  0.00     0.091 H 
ATOM     12  H9  DKZ d          31.370  21.043  28.139  0.00  0.00     0.090 H 
ENDROOT
BRANCH   1  13
ATOM     13  N1  DKZ d          34.040  23.638  29.142  0.00  0.00    -0.280 N 
ATOM     14  C7  DKZ d          35.439  23.429  29.109  0.00  0.00    -0.009 A 
ATOM     15  C8  DKZ d          36.238  24.044  30.073  0.00  0.00    -0.024 A 
ATOM     16  H13 DKZ d          35.885  22.799  28.341  0.00  0.00     0.112 H 
ATOM     17  C9  DKZ d          35.606  24.830  31.049  0.00  0.00     0.125 A 
ATOM     18  H14 DKZ d          37.319  23.917  30.068  0.00  0.00     0.091 H 
ATOM     19  N2  DKZ d          34.265  25.003  31.065  0.00  0.00    -0.293 N 
ATOM     20  C10 DKZ d          33.468  24.419  30.147  0.00  0.00     0.330 A 
ATOM     21  H3  DKZ d          33.855  25.578  31.773  0.00  0.00     0.172 HD
ATOM     22  O10 DKZ d          32.240  24.582  30.168  0.00  0.00    -0.246 OA
BRANCH  17  23
ATOM     23  N3  DKZ d          36.332  25.419  31.995  0.00  0.00    -0.284 NA
ATOM     24  H6  DKZ d          36.309  25.067  32.940  0.00  0.00     0.188 HD
ENDBRANCH  17  23
ENDBRANCH   1  13
BRANCH   2  25
ATOM     25  O2  DKZ d          33.206  24.725  26.406  0.00  0.00    -0.388 OA
ATOM     26  H4  DKZ d          32.889  25.160  27.189  0.00  0.00     0.210 HD
ENDBRANCH   2  25
BRANCH   6  27
ATOM     27  C6  DKZ d          32.644  19.291  28.150  0.00  0.00     0.043 C 
ATOM     28  H10 DKZ d          31.705  18.718  28.120  0.00  0.00     0.078 H 
ATOM     29  H11 DKZ d          33.067  19.247  29.163  0.00  0.00     0.078 H 
BRANCH  27  30
ATOM     30  O6  DKZ d          33.578  18.732  27.214  0.00  0.00    -0.398 OA
ATOM     31  H12 DKZ d          33.271  18.888  26.329  0.00  0.00     0.209 HD
ENDBRANCH  27  30
ENDBRANCH   6  27
BRANCH   5  32
ATOM     32  O4  DKZ d          31.260  20.338  25.657  0.00  0.00    -0.390 OA
ATOM     33  H8  DKZ d          31.216  19.436  25.952  0.00  0.00     0.210 HD
ENDBRANCH   5  32
TORSDOF 6
ENDMDL
MODEL 2
REMARK VINA RESULT:      -7.2      1.170      1.617
REMARK  6 active torsions:
REMARK  status: ('A' for Active; 'I' for Inactive)
REMARK    1  A    between atoms: N1_2  and  C1_1 
REMARK    2  A    between atoms: C2_3  and  O2_5 
REMARK    3  A    between atoms: C9_17  and  N3_8 
REMARK    4  A    between atoms: C4_9  and  O4_10 
REMARK    5  A    between atoms: C5_11  and  C6_13 
REMARK    6  A    between atoms: C6_13  and  O6_14 
ROOT
ATOM      1  C1  DKZ d          33.087  23.143  28.213  0.00  0.00     0.141 C 
ATOM      2  C2  DKZ d          33.515  23.360  26.749  0.00  0.00     0.110 C 
ATOM      3  C3  DKZ d          32.594  22.544  25.814  0.00  0.00     0.134 C 
ATOM      4  F3  DKZ d          33.101  22.536  24.535  0.00  0.00    -0.244 F 
ATOM      5  C4  DKZ d          32.426  21.082  26.294  0.00  0.00     0.094 C 
ATOM      6  C5  DKZ d          32.196  20.948  27.819  0.00  0.00     0.088 C 
ATOM      7  O5  DKZ d          33.182  21.719  28.551  0.00  0.00    -0.353 OA
ATOM      8  H1  DKZ d          32.052  23.501  28.316  0.00  0.00     0.123 H 
ATOM      9  H2  DKZ d          34.542  22.988  26.629  0.00  0.00     0.094 H 
ATOM     10  H5  DKZ d          31.603  23.023  25.800  0.00  0.00     0.100 H 
ATOM     11  H7  DKZ d          33.339  20.526  26.036  0.00  0.00     0.091 H 
ATOM     12  H9  DKZ d          31.190  21.326  28.055  0.00  0.00     0.090 H 
ENDROOT
BRANCH   1  13
ATOM     13  N1  DKZ d          33.923  23.759  29.269  0.00  0.00    -0.280 N 
ATOM     14  C7  DKZ d          33.353  24.403  30.392  0.00  0.00    -0.009 A 
ATOM     15  C8  DKZ d          34.196  24.982  31.341  0.00  0.00    -0.024 A 
ATOM     16  H13 DKZ d          32.272  24.446  30.514  0.00  0.00     0.112 H 
ATOM     17  C9  DKZ d          35.580  24.913  31.122  0.00  0.00     0.125 A 
ATOM     18  H14 DKZ d          33.791  25.472  32.225  0.00  0.00     0.091 H 
ATOM     19  N2  DKZ d          36.099  24.302  30.033  0.00  0.00    -0.293 N 
ATOM     20  C10 DKZ d          35.308  23.736  29.098  0.00  0.00     0.330 A 
ATOM     21  H3  DKZ d          37.092  24.268  29.919  0.00  0.00     0.172 HD
ATOM     22  O10 DKZ d          35.791  23.178  28.103  0.00  0.00    -0.246 OA
BRANCH  17  23
ATOM     23  N3  DKZ d          36.416  25.468  31.995  0.00  0.00    -0.284 NA
ATOM     24  H6  DKZ d          36.630  26.451  31.933  0.00  0.00     0.188 HD
ENDBRANCH  17  23
ENDBRANCH   1  13
BRANCH   2  25
ATOM     25  O2  DKZ d          33.508  24.769  26.411  0.00  0.00    -0.388 OA
ATOM     26  H4  DKZ d          32.671  25.148  26.652  0.00  0.00     0.210 HD
ENDBRANCH   2  25
BRANCH   6  27
ATOM     27  C6  DKZ d          32.308  19.485  28.291  0.00  0.00     0.043 C 
ATOM     28  H10 DKZ d          32.427  19.459  29.384  0.00  0.00     0.078 H 
ATOM     29  H11 DKZ d          33.180  19.011  27.816  0.00  0.00     0.078 H 
BRANCH  27  30
ATOM     30  O6  DKZ d          31.115  18.780  27.919  0.00  0.00    -0.398 OA
ATOM     31  H12 DKZ d          30.539  18.715  28.671  0.00  0.00     0.209 HD
ENDBRANCH  27  30
ENDBRANCH   6  27
BRANCH   5  32
ATOM     32  O4  DKZ d          31.318  20.508  25.608  0.00  0.00    -0.390 OA
ATOM     33  H8  DKZ d          30.549  20.543  26.164  0.00  0.00     0.210 HD
ENDBRANCH   5  32
TORSDOF 6
ENDMDL
MODEL 3
REMARK VINA RESULT:      -6.1      3.094      5.811
REMARK  6 active torsions:
REMARK  status: ('A' for Active; 'I' for Inactive)
REMARK    1  A    between atoms: N1_2  and  C1_1 
REMARK    2  A    between atoms: C2_3  and  O2_5 
REMARK    3  A    between atoms: C9_17  and  N3_8 
REMARK    4  A    between atoms: C4_9  and  O4_10 
REMARK    5  A    between atoms: C5_11  and  C6_13 
REMARK    6  A    between atoms: C6_13  and  O6_14 
ROOT
ATOM      1  C1  DKZ d          33.610  23.688  28.712  0.00  0.00     0.141 C 
ATOM      2  C2  DKZ d          32.846  24.198  29.949  0.00  0.00     0.110 C 
ATOM      3  C3  DKZ d          33.735  25.187  30.737  0.00  0.00     0.134 C 
ATOM      4  F3  DKZ d          33.169  25.467  31.958  0.00  0.00    -0.244 F 
ATOM      5  C4  DKZ d          35.163  24.632  30.963  0.00  0.00     0.094 C 
ATOM      6  C5  DKZ d          35.776  23.958  29.712  0.00  0.00     0.088 C 
ATOM      7  O5  DKZ d          34.841  23.013  29.133  0.00  0.00    -0.353 OA
ATOM      8  H1  DKZ d          33.838  24.558  28.079  0.00  0.00     0.123 H 
ATOM      9  H2  DKZ d          32.628  23.339  30.600  0.00  0.00     0.094 H 
ATOM     10  H5  DKZ d          33.811  26.119  30.158  0.00  0.00     0.100 H 
ATOM     11  H7  DKZ d          35.118  23.883  31.768  0.00  0.00     0.091 H 
ATOM     12  H9  DKZ d          36.008  24.739  28.973  0.00  0.00     0.090 H 
ENDROOT
BRANCH   1  13
ATOM     13  N1  DKZ d          32.960  22.643  27.888  0.00  0.00    -0.280 N 
ATOM     14  C7  DKZ d          33.238  21.268  28.069  0.00  0.00    -0.009 A 
ATOM     15  C8  DKZ d          32.608  20.336  27.246  0.00  0.00    -0.024 A 
ATOM     16  H13 DKZ d          33.934  20.943  28.840  0.00  0.00     0.112 H 
ATOM     17  C9  DKZ d          31.735  20.814  26.256  0.00  0.00     0.125 A 
ATOM     18  H14 DKZ d          32.787  19.269  27.368  0.00  0.00     0.091 H 
ATOM     19  N2  DKZ d          31.495  22.135  26.097  0.00  0.00    -0.293 N 
ATOM     20  C10 DKZ d          32.093  23.059  26.876  0.00  0.00     0.330 A 
ATOM     21  H3  DKZ d          30.859  22.434  25.384  0.00  0.00     0.172 HD
ATOM     22  O10 DKZ d          31.869  24.268  26.723  0.00  0.00    -0.246 OA
BRANCH  17  23
ATOM     23  N3  DKZ d          31.127  19.957  25.440  0.00  0.00    -0.284 NA
ATOM     24  H6  DKZ d          31.217  20.062  24.442  0.00  0.00     0.188 HD
ENDBRANCH  17  23
ENDBRANCH   1  13
BRANCH   2  25
ATOM     25  O2  DKZ d          31.584  24.800  29.568  0.00  0.00    -0.388 OA
ATOM     26  H4  DKZ d          31.087  24.184  29.042  0.00  0.00     0.210 HD
ENDBRANCH   2  25
BRANCH   6  27
ATOM     27  C6  DKZ d          37.066  23.185  30.050  0.00  0.00     0.043 C 
ATOM     28  H10 DKZ d          37.923  23.665  29.555  0.00  0.00     0.078 H 
ATOM     29  H11 DKZ d          36.976  22.146  29.701  0.00  0.00     0.078 H 
BRANCH  27  30
ATOM     30  O6  DKZ d          37.261  23.199  31.472  0.00  0.00    -0.398 OA
ATOM     31  H12 DKZ d          37.977  22.617  31.698  0.00  0.00     0.209 HD
ENDBRANCH  27  30
ENDBRANCH   6  27
BRANCH   5  32
ATOM     32  O4  DKZ d          36.004  25.706  31.369  0.00  0.00    -0.390 OA
ATOM     33  H8  DKZ d          35.533  26.262  31.979  0.00  0.00     0.210 HD
ENDBRANCH   5  32
TORSDOF 6
ENDMDL
