MODEL 1
REMARK VINA RESULT:      -6.3      0.000      0.000
REMARK  4 active torsions:
REMARK  status: ('A' for Active; 'I' for Inactive)
REMARK    1  A    between atoms: S1_4  and  N1_2 
REMARK    2  A    between atoms: C3_7  and  O1_3 
REMARK    3  A    between atoms: O1_3  and  C6_11 
REMARK    4  A    between atoms: C5_10  and  S1_4 
ROOT
ATOM      1  C1  M4S d           4.970  -6.438   6.796  0.00  0.00    -0.058 A 
ATOM      2  C2  M4S d           6.113  -6.860   7.455  0.00  0.00    -0.049 A 
ATOM      3  C3  M4S d           6.129  -7.033   8.834  0.00  0.00     0.068 A 
ATOM      4  C4  M4S d           4.966  -6.811   9.577  0.00  0.00    -0.049 A 
ATOM      5  C5  M4S d           3.806  -6.185   7.520  0.00  0.00     0.079 A 
ATOM      6  C7  M4S d           3.810  -6.373   8.913  0.00  0.00    -0.058 A 
ATOM      7  H1  M4S d           4.981  -6.303   5.720  0.00  0.00     0.086 H 
ATOM      8  H4  M4S d           7.013  -7.061   6.884  0.00  0.00     0.087 H 
ATOM      9  H5  M4S d           4.958  -6.973  10.649  0.00  0.00     0.087 H 
ATOM     10  H9  M4S d           2.908  -6.179   9.482  0.00  0.00     0.086 H 
ENDROOT
BRANCH   5  11
ATOM     11  S1  M4S d           2.476  -5.683   6.755  0.00  0.00     0.256 S 
ATOM     12  O2  M4S d           2.950  -4.596   5.850  0.00  0.00    -0.201 OA
ATOM     13  O3  M4S d           1.755  -6.681   5.912  0.00  0.00    -0.201 OA
BRANCH  11  14
ATOM     14  N1  M4S d           1.590  -5.104   7.797  0.00  0.00    -0.324 N 
ATOM     15  H2  M4S d           1.297  -4.150   7.730  0.00  0.00     0.169 HD
ATOM     16  H3  M4S d           1.286  -5.667   8.566  0.00  0.00     0.169 HD
ENDBRANCH  11  14
ENDBRANCH   5  11
BRANCH   3  17
ATOM     17  O1  M4S d           7.303  -7.434   9.421  0.00  0.00    -0.356 OA
BRANCH  17  18
ATOM     18  C6  M4S d           7.305  -8.043  10.709  0.00  0.00     0.010 C 
ATOM     19  H6  M4S d           7.626  -9.091  10.618  0.00  0.00     0.066 H 
ATOM     20  H7  M4S d           6.291  -8.006  11.133  0.00  0.00     0.066 H 
ATOM     21  H8  M4S d           7.999  -7.503  11.369  0.00  0.00     0.066 H 
ENDBRANCH  17  18
ENDBRANCH   3  17
TORSDOF 4
ENDMDL
MODEL 2
REMARK VINA RESULT:      -6.2      0.816      1.609
REMARK  4 active torsions:
REMARK  status: ('A' for Active; 'I' for Inactive)
REMARK    1  A    between atoms: S1_4  and  N1_2 
REMARK    2  A    between atoms: C3_7  and  O1_3 
REMARK    3  A    between atoms: O1_3  and  C6_11 
REMARK    4  A    between atoms: C5_10  and  S1_4 
ROOT
ATOM      1  C1  M4S d           3.047  -6.424   8.552  0.00  0.00    -0.058 A 
ATOM      2  C2  M4S d           4.111  -6.945   9.271  0.00  0.00    -0.049 A 
ATOM      3  C3  M4S d           5.361  -7.117   8.689  0.00  0.00     0.068 A 
ATOM      4  C4  M4S d           5.571  -6.729   7.362  0.00  0.00    -0.049 A 
ATOM      5  C5  M4S d           3.227  -6.053   7.220  0.00  0.00     0.079 A 
ATOM      6  C7  M4S d           4.492  -6.209   6.629  0.00  0.00    -0.058 A 
ATOM      7  H1  M4S d           2.079  -6.305   9.024  0.00  0.00     0.086 H 
ATOM      8  H4  M4S d           3.965  -7.225  10.309  0.00  0.00     0.087 H 
ATOM      9  H5  M4S d           6.550  -6.828   6.907  0.00  0.00     0.087 H 
ATOM     10  H9  M4S d           4.638  -5.923   5.594  0.00  0.00     0.086 H 
ENDROOT
BRANCH   5  11
ATOM     11  S1  M4S d           1.986  -5.455   6.378  0.00  0.00     0.256 S 
ATOM     12  O2  M4S d           2.608  -4.495   5.420  0.00  0.00    -0.201 OA
ATOM     13  O3  M4S d           1.174  -6.418   5.580  0.00  0.00    -0.201 OA
BRANCH  11  14
ATOM     14  N1  M4S d           1.148  -4.705   7.349  0.00  0.00    -0.324 N 
ATOM     15  H2  M4S d           0.266  -5.077   7.639  0.00  0.00     0.169 HD
ATOM     16  H3  M4S d           1.466  -3.829   7.712  0.00  0.00     0.169 HD
ENDBRANCH  11  14
ENDBRANCH   5  11
BRANCH   3  17
ATOM     17  O1  M4S d           6.362  -7.659   9.456  0.00  0.00    -0.356 OA
BRANCH  17  18
ATOM     18  C6  M4S d           7.501  -6.887   9.821  0.00  0.00     0.010 C 
ATOM     19  H6  M4S d           8.352  -7.161   9.180  0.00  0.00     0.066 H 
ATOM     20  H7  M4S d           7.756  -7.084  10.873  0.00  0.00     0.066 H 
ATOM     21  H8  M4S d           7.276  -5.818   9.694  0.00  0.00     0.066 H 
ENDBRANCH  17  18
ENDBRANCH   3  17
TORSDOF 4
ENDMDL
MODEL 3
REMARK VINA RESULT:      -5.3      1.959      2.728
REMARK  4 active torsions:
REMARK  status: ('A' for Active; 'I' for Inactive)
REMARK    1  A    between atoms: S1_4  and  N1_2 
REMARK    2  A    between atoms: C3_7  and  O1_3 
REMARK    3  A    between atoms: O1_3  and  C6_11 
REMARK    4  A    between atoms: C5_10  and  S1_4 
ROOT
ATOM      1  C1  M4S d           2.193  -5.398   7.542  0.00  0.00    -0.058 A 
ATOM      2  C2  M4S d           3.051  -5.499   8.626  0.00  0.00    -0.049 A 
ATOM      3  C3  M4S d           4.191  -6.292   8.572  0.00  0.00     0.068 A 
ATOM      4  C4  M4S d           4.506  -6.980   7.397  0.00  0.00    -0.049 A 
ATOM      5  C5  M4S d           2.475  -6.096   6.368  0.00  0.00     0.079 A 
ATOM      6  C7  M4S d           3.634  -6.887   6.301  0.00  0.00    -0.058 A 
ATOM      7  H1  M4S d           1.305  -4.779   7.607  0.00  0.00     0.086 H 
ATOM      8  H4  M4S d           2.828  -4.949   9.533  0.00  0.00     0.087 H 
ATOM      9  H5  M4S d           5.410  -7.576   7.333  0.00  0.00     0.087 H 
ATOM     10  H9  M4S d           3.858  -7.432   5.391  0.00  0.00     0.086 H 
ENDROOT
BRANCH   5  11
ATOM     11  S1  M4S d           1.471  -5.987   5.108  0.00  0.00     0.256 S 
ATOM     12  O2  M4S d           0.796  -7.316   5.048  0.00  0.00    -0.201 OA
ATOM     13  O3  M4S d           0.403  -4.948   5.174  0.00  0.00    -0.201 OA
BRANCH  11  14
ATOM     14  N1  M4S d           2.328  -5.817   3.907  0.00  0.00    -0.324 N 
ATOM     15  H2  M4S d           1.909  -5.677   3.010  0.00  0.00     0.169 HD
ATOM     16  H3  M4S d           3.324  -5.843   3.995  0.00  0.00     0.169 HD
ENDBRANCH  11  14
ENDBRANCH   5  11
BRANCH   3  17
ATOM     17  O1  M4S d           4.983  -6.361   9.692  0.00  0.00    -0.356 OA
BRANCH  17  18
ATOM     18  C6  M4S d           6.151  -7.176   9.711  0.00  0.00     0.010 C 
ATOM     19  H6  M4S d           5.864  -8.223   9.888  0.00  0.00     0.066 H 
ATOM     20  H7  M4S d           6.821  -6.838  10.515  0.00  0.00     0.066 H 
ATOM     21  H8  M4S d           6.669  -7.096   8.744  0.00  0.00     0.066 H 
ENDBRANCH  17  18
ENDBRANCH   3  17
TORSDOF 4
ENDMDL
MODEL 4
REMARK VINA RESULT:      -4.3      3.054      5.209
REMARK  4 active torsions:
REMARK  status: ('A' for Active; 'I' for Inactive)
REMARK    1  A    between atoms: S1_4  and  N1_2 
REMARK    2  A    between atoms: C3_7  and  O1_3 
REMARK    3  A    between atoms: O1_3  and  C6_11 
REMARK    4  A    between atoms: C5_10  and  S1_4 
ROOT
ATOM      1  C1  M4S d           3.352  -6.920   6.594  0.00  0.00    -0.058 A 
ATOM      2  C2  M4S d           2.408  -6.678   5.608  0.00  0.00    -0.049 A 
ATOM      3  C3  M4S d           1.308  -5.863   5.847  0.00  0.00     0.068 A 
ATOM      4  C4  M4S d           1.157  -5.243   7.090  0.00  0.00    -0.049 A 
ATOM      5  C5  M4S d           3.208  -6.331   7.850  0.00  0.00     0.079 A 
ATOM      6  C7  M4S d           2.107  -5.493   8.093  0.00  0.00    -0.058 A 
ATOM      7  H1  M4S d           4.199  -7.564   6.389  0.00  0.00     0.086 H 
ATOM      8  H4  M4S d           2.530  -7.134   4.632  0.00  0.00     0.087 H 
ATOM      9  H5  M4S d           0.320  -4.579   7.277  0.00  0.00     0.087 H 
ATOM     10  H9  M4S d           1.990  -5.033   9.067  0.00  0.00     0.086 H 
ENDROOT
BRANCH   5  11
ATOM     11  S1  M4S d           4.302  -6.619   9.002  0.00  0.00     0.256 S 
ATOM     12  O2  M4S d           4.490  -5.304   9.681  0.00  0.00    -0.201 OA
ATOM     13  O3  M4S d           3.942  -7.616  10.052  0.00  0.00    -0.201 OA
BRANCH  11  14
ATOM     14  N1  M4S d           5.557  -6.992   8.299  0.00  0.00    -0.324 N 
ATOM     15  H2  M4S d           6.429  -6.970   8.789  0.00  0.00     0.169 HD
ATOM     16  H3  M4S d           5.530  -7.265   7.337  0.00  0.00     0.169 HD
ENDBRANCH  11  14
ENDBRANCH   5  11
BRANCH   3  17
ATOM     17  O1  M4S d           0.403  -5.686   4.830  0.00  0.00    -0.356 OA
BRANCH  17  18
ATOM     18  C6  M4S d           0.638  -4.730   3.801  0.00  0.00     0.010 C 
ATOM     19  H6  M4S d           1.542  -4.150   4.039  0.00  0.00     0.066 H 
ATOM     20  H7  M4S d          -0.224  -4.051   3.727  0.00  0.00     0.066 H 
ATOM     21  H8  M4S d           0.778  -5.249   2.842  0.00  0.00     0.066 H 
ENDBRANCH  17  18
ENDBRANCH   3  17
TORSDOF 4
ENDMDL
MODEL 5
REMARK VINA RESULT:      -4.0      1.756      2.052
REMARK  4 active torsions:
REMARK  status: ('A' for Active; 'I' for Inactive)
REMARK    1  A    between atoms: S1_4  and  N1_2 
REMARK    2  A    between atoms: C3_7  and  O1_3 
REMARK    3  A    between atoms: O1_3  and  C6_11 
REMARK    4  A    between atoms: C5_10  and  S1_4 
ROOT
ATOM      1  C1  M4S d           3.138  -7.435   6.874  0.00  0.00    -0.058 A 
ATOM      2  C2  M4S d           3.973  -7.554   7.974  0.00  0.00    -0.049 A 
ATOM      3  C3  M4S d           4.224  -6.472   8.809  0.00  0.00     0.068 A 
ATOM      4  C4  M4S d           3.603  -5.243   8.565  0.00  0.00    -0.049 A 
ATOM      5  C5  M4S d           2.528  -6.212   6.596  0.00  0.00     0.079 A 
ATOM      6  C7  M4S d           2.765  -5.118   7.446  0.00  0.00    -0.058 A 
ATOM      7  H1  M4S d           2.961  -8.289   6.231  0.00  0.00     0.086 H 
ATOM      8  H4  M4S d           4.438  -8.509   8.187  0.00  0.00     0.087 H 
ATOM      9  H5  M4S d           3.767  -4.402   9.228  0.00  0.00     0.087 H 
ATOM     10  H9  M4S d           2.294  -4.165   7.235  0.00  0.00     0.086 H 
ENDROOT
BRANCH   5  11
ATOM     11  S1  M4S d           1.564  -6.069   5.310  0.00  0.00     0.256 S 
ATOM     12  O2  M4S d           2.482  -5.722   4.187  0.00  0.00    -0.201 OA
ATOM     13  O3  M4S d           0.792  -7.277   4.897  0.00  0.00    -0.201 OA
BRANCH  11  14
ATOM     14  N1  M4S d           0.669  -4.916   5.586  0.00  0.00    -0.324 N 
ATOM     15  H2  M4S d          -0.213  -4.844   5.119  0.00  0.00     0.169 HD
ATOM     16  H3  M4S d           0.948  -4.211   6.239  0.00  0.00     0.169 HD
ENDBRANCH  11  14
ENDBRANCH   5  11
BRANCH   3  17
ATOM     17  O1  M4S d           5.078  -6.658   9.868  0.00  0.00    -0.356 OA
BRANCH  17  18
ATOM     18  C6  M4S d           6.462  -6.918   9.653  0.00  0.00     0.010 C 
ATOM     19  H6  M4S d           6.587  -7.936   9.256  0.00  0.00     0.066 H 
ATOM     20  H7  M4S d           7.004  -6.826  10.605  0.00  0.00     0.066 H 
ATOM     21  H8  M4S d           6.863  -6.191   8.932  0.00  0.00     0.066 H 
ENDBRANCH  17  18
ENDBRANCH   3  17
TORSDOF 4
ENDMDL
MODEL 6
REMARK VINA RESULT:      -3.4      2.766      5.114
REMARK  4 active torsions:
REMARK  status: ('A' for Active; 'I' for Inactive)
REMARK    1  A    between atoms: S1_4  and  N1_2 
REMARK    2  A    between atoms: C3_7  and  O1_3 
REMARK    3  A    between atoms: O1_3  and  C6_11 
REMARK    4  A    between atoms: C5_10  and  S1_4 
ROOT
ATOM      1  C1  M4S d           4.250  -6.503   9.282  0.00  0.00    -0.058 A 
ATOM      2  C2  M4S d           3.141  -6.035   8.594  0.00  0.00    -0.049 A 
ATOM      3  C3  M4S d           3.181  -5.820   7.222  0.00  0.00     0.068 A 
ATOM      4  C4  M4S d           4.345  -6.108   6.505  0.00  0.00    -0.049 A 
ATOM      5  C5  M4S d           5.430  -6.773   8.590  0.00  0.00     0.079 A 
ATOM      6  C7  M4S d           5.473  -6.573   7.200  0.00  0.00    -0.058 A 
ATOM      7  H1  M4S d           4.199  -6.658  10.353  0.00  0.00     0.086 H 
ATOM      8  H4  M4S d           2.224  -5.834   9.137  0.00  0.00     0.087 H 
ATOM      9  H5  M4S d           4.378  -5.974   5.429  0.00  0.00     0.087 H 
ATOM     10  H9  M4S d           6.388  -6.781   6.657  0.00  0.00     0.086 H 
ENDROOT
BRANCH   5  11
ATOM     11  S1  M4S d           6.725  -7.309   9.391  0.00  0.00     0.256 S 
ATOM     12  O2  M4S d           7.472  -6.074   9.769  0.00  0.00    -0.201 OA
ATOM     13  O3  M4S d           6.483  -8.083  10.643  0.00  0.00    -0.201 OA
BRANCH  11  14
ATOM     14  N1  M4S d           7.528  -8.087   8.413  0.00  0.00    -0.324 N 
ATOM     15  H2  M4S d           8.104  -8.842   8.727  0.00  0.00     0.169 HD
ATOM     16  H3  M4S d           7.491  -7.856   7.440  0.00  0.00     0.169 HD
ENDBRANCH  11  14
ENDBRANCH   5  11
BRANCH   3  17
ATOM     17  O1  M4S d           2.050  -5.336   6.611  0.00  0.00    -0.356 OA
BRANCH  17  18
ATOM     18  C6  M4S d           2.143  -4.412   5.531  0.00  0.00     0.010 C 
ATOM     19  H6  M4S d           1.349  -4.622   4.800  0.00  0.00     0.066 H 
ATOM     20  H7  M4S d           3.125  -4.512   5.046  0.00  0.00     0.066 H 
ATOM     21  H8  M4S d           2.028  -3.387   5.914  0.00  0.00     0.066 H 
ENDBRANCH  17  18
ENDBRANCH   3  17
TORSDOF 4
ENDMDL
