MODEL 1
REMARK VINA RESULT:      -6.0      0.000      0.000
REMARK  7 active torsions:
REMARK  status: ('A' for Active; 'I' for Inactive)
REMARK    1  A    between atoms: C1_1  and  O2_2 
REMARK    2  A    between atoms: O2_2  and  C12_16 
REMARK    3  A    between atoms: C4_7  and  C7_10 
REMARK    4  A    between atoms: C7_10  and  C8_12 
REMARK    5  A    between atoms: C8_12  and  C9_13 
REMARK    6  A    between atoms: C9_13  and  C10_14 
REMARK    7  A    between atoms: C12_16  and  C13_17 
ROOT
ATOM      1  C1  EAA d           9.003   2.148  27.496  0.00  0.00     0.092 A 
ATOM      2  C2  EAA d           8.250   3.307  27.770  0.00  0.00     0.090 A 
ATOM      3 CL1  EAA d           8.665   4.749  26.927  0.00  0.00    -0.080 Cl
ATOM      4  C3  EAA d           7.215   3.274  28.644  0.00  0.00     0.072 A 
ATOM      5 CL2  EAA d           6.324   4.733  28.973  0.00  0.00    -0.081 Cl
ATOM      6  C4  EAA d           6.871   2.105  29.328  0.00  0.00     0.038 A 
ATOM      7  C5  EAA d           7.632   0.963  29.060  0.00  0.00    -0.065 A 
ATOM      8  C6  EAA d           8.675   0.988  28.175  0.00  0.00    -0.048 A 
ATOM      9  H1  EAA d           7.389   0.035  29.565  0.00  0.00     0.085 H 
ATOM     10  H2  EAA d           9.252   0.087  28.003  0.00  0.00     0.087 H 
ENDROOT
BRANCH   6  11
ATOM     11  C7  EAA d           5.650   2.014  30.191  0.00  0.00     0.189 C 
ATOM     12  O1  EAA d           4.569   1.811  29.698  0.00  0.00    -0.287 OA
BRANCH  11  13
ATOM     13  C8  EAA d           5.758   2.140  31.667  0.00  0.00    -0.017 C 
ATOM     14  C11 EAA d           6.034   1.081  32.374  0.00  0.00    -0.112 C 
ATOM     15  H8  EAA d           6.132   0.113  31.886  0.00  0.00     0.067 H 
ATOM     16  H9  EAA d           6.165   1.164  33.452  0.00  0.00     0.067 H 
BRANCH  13  17
ATOM     17  C9  EAA d           5.600   3.510  32.218  0.00  0.00    -0.041 C 
ATOM     18  H3  EAA d           6.306   4.159  31.681  0.00  0.00     0.039 H 
ATOM     19  H4  EAA d           5.878   3.466  33.282  0.00  0.00     0.039 H 
BRANCH  17  20
ATOM     20  C10 EAA d           4.292   4.145  32.144  0.00  0.00    -0.073 C 
ATOM     21  H5  EAA d           4.065   4.394  31.098  0.00  0.00     0.028 H 
ATOM     22  H6  EAA d           4.297   5.065  32.747  0.00  0.00     0.028 H 
ATOM     23  H7  EAA d           3.528   3.457  32.532  0.00  0.00     0.028 H 
ENDBRANCH  17  20
ENDBRANCH  13  17
ENDBRANCH  11  13
ENDBRANCH   6  11
BRANCH   1  24
ATOM     24  O2  EAA d          10.017   2.280  26.602  0.00  0.00    -0.339 OA
BRANCH  24  25
ATOM     25  C12 EAA d          10.207   1.249  25.659  0.00  0.00     0.106 C 
ATOM     26  H10 EAA d           9.439   0.476  25.803  0.00  0.00     0.091 H 
ATOM     27  H11 EAA d          11.204   0.806  25.799  0.00  0.00     0.091 H 
BRANCH  25  28
ATOM     28  C13 EAA d          10.102   1.798  24.285  0.00  0.00     0.198 C 
ATOM     29  O   EAA d           9.980   0.937  23.369  0.00  0.00    -0.646 OA
ATOM     30  OXT EAA d          10.102   3.043  24.073  0.00  0.00    -0.646 OA
ENDBRANCH  25  28
ENDBRANCH  24  25
ENDBRANCH   1  24
TORSDOF 7
ENDMDL
MODEL 2
REMARK VINA RESULT:      -5.3      1.568      2.053
REMARK  7 active torsions:
REMARK  status: ('A' for Active; 'I' for Inactive)
REMARK    1  A    between atoms: C1_1  and  O2_2 
REMARK    2  A    between atoms: O2_2  and  C12_16 
REMARK    3  A    between atoms: C4_7  and  C7_10 
REMARK    4  A    between atoms: C7_10  and  C8_12 
REMARK    5  A    between atoms: C8_12  and  C9_13 
REMARK    6  A    between atoms: C9_13  and  C10_14 
REMARK    7  A    between atoms: C12_16  and  C13_17 
ROOT
ATOM      1  C1  EAA d           8.147   3.263  26.549  0.00  0.00     0.092 A 
ATOM      2  C2  EAA d           6.779   3.586  26.447  0.00  0.00     0.090 A 
ATOM      3 CL1  EAA d           6.280   4.540  25.105  0.00  0.00    -0.080 Cl
ATOM      4  C3  EAA d           5.886   3.129  27.359  0.00  0.00     0.072 A 
ATOM      5 CL2  EAA d           4.209   3.569  27.211  0.00  0.00    -0.081 Cl
ATOM      6  C4  EAA d           6.286   2.350  28.448  0.00  0.00     0.038 A 
ATOM      7  C5  EAA d           7.647   2.046  28.549  0.00  0.00    -0.065 A 
ATOM      8  C6  EAA d           8.553   2.499  27.629  0.00  0.00    -0.048 A 
ATOM      9  H1  EAA d           7.993   1.436  29.376  0.00  0.00     0.085 H 
ATOM     10  H2  EAA d           9.602   2.256  27.748  0.00  0.00     0.087 H 
ENDROOT
BRANCH   6  11
ATOM     11  C7  EAA d           5.300   1.724  29.387  0.00  0.00     0.189 C 
ATOM     12  O1  EAA d           4.764   0.682  29.102  0.00  0.00    -0.287 OA
BRANCH  11  13
ATOM     13  C8  EAA d           4.995   2.360  30.694  0.00  0.00    -0.017 C 
ATOM     14  C11 EAA d           3.860   2.982  30.845  0.00  0.00    -0.112 C 
ATOM     15  H8  EAA d           3.173   3.071  30.005  0.00  0.00     0.067 H 
ATOM     16  H9  EAA d           3.599   3.413  31.810  0.00  0.00     0.067 H 
BRANCH  13  17
ATOM     17  C9  EAA d           6.010   2.176  31.762  0.00  0.00    -0.041 C 
ATOM     18  H3  EAA d           5.785   2.908  32.552  0.00  0.00     0.039 H 
ATOM     19  H4  EAA d           6.991   2.403  31.320  0.00  0.00     0.039 H 
BRANCH  17  20
ATOM     20  C10 EAA d           6.120   0.874  32.403  0.00  0.00    -0.073 C 
ATOM     21  H5  EAA d           5.115   0.457  32.561  0.00  0.00     0.028 H 
ATOM     22  H6  EAA d           6.629   0.984  33.372  0.00  0.00     0.028 H 
ATOM     23  H7  EAA d           6.701   0.197  31.759  0.00  0.00     0.028 H 
ENDBRANCH  17  20
ENDBRANCH  13  17
ENDBRANCH  11  13
ENDBRANCH   6  11
BRANCH   1  24
ATOM     24  O2  EAA d           8.962   3.763  25.585  0.00  0.00    -0.339 OA
BRANCH  24  25
ATOM     25  C12 EAA d          10.207   3.133  25.378  0.00  0.00     0.106 C 
ATOM     26  H10 EAA d          10.572   2.724  26.331  0.00  0.00     0.091 H 
ATOM     27  H11 EAA d          10.929   3.869  24.994  0.00  0.00     0.091 H 
BRANCH  25  28
ATOM     28  C13 EAA d          10.057   2.032  24.395  0.00  0.00     0.198 C 
ATOM     29  O   EAA d          10.104   2.383  23.183  0.00  0.00    -0.646 OA
ATOM     30  OXT EAA d           9.927   0.832  24.768  0.00  0.00    -0.646 OA
ENDBRANCH  25  28
ENDBRANCH  24  25
ENDBRANCH   1  24
TORSDOF 7
ENDMDL
MODEL 3
REMARK VINA RESULT:      -5.2      1.290      1.920
REMARK  7 active torsions:
REMARK  status: ('A' for Active; 'I' for Inactive)
REMARK    1  A    between atoms: C1_1  and  O2_2 
REMARK    2  A    between atoms: O2_2  and  C12_16 
REMARK    3  A    between atoms: C4_7  and  C7_10 
REMARK    4  A    between atoms: C7_10  and  C8_12 
REMARK    5  A    between atoms: C8_12  and  C9_13 
REMARK    6  A    between atoms: C9_13  and  C10_14 
REMARK    7  A    between atoms: C12_16  and  C13_17 
ROOT
ATOM      1  C1  EAA d           8.971   2.337  27.222  0.00  0.00     0.092 A 
ATOM      2  C2  EAA d           8.203   3.391  27.755  0.00  0.00     0.090 A 
ATOM      3 CL1  EAA d           8.405   4.955  27.067  0.00  0.00    -0.080 Cl
ATOM      4  C3  EAA d           7.313   3.168  28.753  0.00  0.00     0.072 A 
ATOM      5 CL2  EAA d           6.400   4.501  29.400  0.00  0.00    -0.081 Cl
ATOM      6  C4  EAA d           7.143   1.899  29.312  0.00  0.00     0.038 A 
ATOM      7  C5  EAA d           7.919   0.862  28.786  0.00  0.00    -0.065 A 
ATOM      8  C6  EAA d           8.815   1.078  27.776  0.00  0.00    -0.048 A 
ATOM      9  H1  EAA d           7.808  -0.138  29.189  0.00  0.00     0.085 H 
ATOM     10  H2  EAA d           9.411   0.253  27.403  0.00  0.00     0.087 H 
ENDROOT
BRANCH   6  11
ATOM     11  C7  EAA d           6.071   1.606  30.318  0.00  0.00     0.189 C 
ATOM     12  O1  EAA d           6.360   1.374  31.465  0.00  0.00    -0.287 OA
BRANCH  11  13
ATOM     13  C8  EAA d           4.640   1.630  29.922  0.00  0.00    -0.017 C 
ATOM     14  C11 EAA d           3.767   2.146  30.739  0.00  0.00    -0.112 C 
ATOM     15  H8  EAA d           4.083   2.509  31.716  0.00  0.00     0.067 H 
ATOM     16  H9  EAA d           2.720   2.216  30.445  0.00  0.00     0.067 H 
BRANCH  13  17
ATOM     17  C9  EAA d           4.328   1.103  28.569  0.00  0.00    -0.041 C 
ATOM     18  H3  EAA d           3.868   0.113  28.705  0.00  0.00     0.039 H 
ATOM     19  H4  EAA d           5.284   0.994  28.036  0.00  0.00     0.039 H 
BRANCH  17  20
ATOM     20  C10 EAA d           3.443   1.873  27.708  0.00  0.00    -0.073 C 
ATOM     21  H5  EAA d           2.628   2.302  28.309  0.00  0.00     0.028 H 
ATOM     22  H6  EAA d           3.021   1.214  26.934  0.00  0.00     0.028 H 
ATOM     23  H7  EAA d           4.011   2.683  27.229  0.00  0.00     0.028 H 
ENDBRANCH  17  20
ENDBRANCH  13  17
ENDBRANCH  11  13
ENDBRANCH   6  11
BRANCH   1  24
ATOM     24  O2  EAA d           9.832   2.658  26.222  0.00  0.00    -0.339 OA
BRANCH  24  25
ATOM     25  C12 EAA d          10.081   1.691  25.226  0.00  0.00     0.106 C 
ATOM     26  H10 EAA d           9.347   0.877  25.316  0.00  0.00     0.091 H 
ATOM     27  H11 EAA d          11.096   1.287  25.356  0.00  0.00     0.091 H 
BRANCH  25  28
ATOM     28  C13 EAA d           9.966   2.310  23.883  0.00  0.00     0.198 C 
ATOM     29  O   EAA d          10.207   1.539  22.912  0.00  0.00    -0.646 OA
ATOM     30  OXT EAA d           9.618   3.516  23.743  0.00  0.00    -0.646 OA
ENDBRANCH  25  28
ENDBRANCH  24  25
ENDBRANCH   1  24
TORSDOF 7
ENDMDL
MODEL 4
REMARK VINA RESULT:      -5.0      2.146      6.517
REMARK  7 active torsions:
REMARK  status: ('A' for Active; 'I' for Inactive)
REMARK    1  A    between atoms: C1_1  and  O2_2 
REMARK    2  A    between atoms: O2_2  and  C12_16 
REMARK    3  A    between atoms: C4_7  and  C7_10 
REMARK    4  A    between atoms: C7_10  and  C8_12 
REMARK    5  A    between atoms: C8_12  and  C9_13 
REMARK    6  A    between atoms: C9_13  and  C10_14 
REMARK    7  A    between atoms: C12_16  and  C13_17 
ROOT
ATOM      1  C1  EAA d           6.808   1.682  28.220  0.00  0.00     0.092 A 
ATOM      2  C2  EAA d           6.365   2.722  27.380  0.00  0.00     0.090 A 
ATOM      3 CL1  EAA d           4.680   3.068  27.353  0.00  0.00    -0.080 Cl
ATOM      4  C3  EAA d           7.246   3.445  26.645  0.00  0.00     0.072 A 
ATOM      5 CL2  EAA d           6.657   4.708  25.601  0.00  0.00    -0.081 Cl
ATOM      6  C4  EAA d           8.616   3.171  26.666  0.00  0.00     0.038 A 
ATOM      7  C5  EAA d           9.044   2.128  27.492  0.00  0.00    -0.065 A 
ATOM      8  C6  EAA d           8.162   1.398  28.241  0.00  0.00    -0.048 A 
ATOM      9  H1  EAA d          10.101   1.892  27.541  0.00  0.00     0.085 H 
ATOM     10  H2  EAA d           8.529   0.586  28.858  0.00  0.00     0.087 H 
ENDROOT
BRANCH   6  11
ATOM     11  C7  EAA d           9.616   4.043  25.969  0.00  0.00     0.189 C 
ATOM     12  O1  EAA d          10.207   4.899  26.579  0.00  0.00    -0.287 OA
BRANCH  11  13
ATOM     13  C8  EAA d           9.915   3.844  24.528  0.00  0.00    -0.017 C 
ATOM     14  C11 EAA d           9.854   2.643  24.030  0.00  0.00    -0.112 C 
ATOM     15  H8  EAA d           9.633   1.796  24.677  0.00  0.00     0.067 H 
ATOM     16  H9  EAA d          10.023   2.485  22.965  0.00  0.00     0.067 H 
BRANCH  13  17
ATOM     17  C9  EAA d          10.207   5.073  23.747  0.00  0.00    -0.041 C 
ATOM     18  H3  EAA d          10.643   4.752  22.789  0.00  0.00     0.039 H 
ATOM     19  H4  EAA d          10.954   5.648  24.315  0.00  0.00     0.039 H 
BRANCH  17  20
ATOM     20  C10 EAA d           9.113   5.980  23.438  0.00  0.00    -0.073 C 
ATOM     21  H5  EAA d           9.321   6.968  23.873  0.00  0.00     0.028 H 
ATOM     22  H6  EAA d           8.177   5.583  23.859  0.00  0.00     0.028 H 
ATOM     23  H7  EAA d           9.012   6.075  22.347  0.00  0.00     0.028 H 
ENDBRANCH  17  20
ENDBRANCH  13  17
ENDBRANCH  11  13
ENDBRANCH   6  11
BRANCH   1  24
ATOM     24  O2  EAA d           5.851   1.018  28.920  0.00  0.00    -0.339 OA
BRANCH  24  25
ATOM     25  C12 EAA d           6.077   0.784  30.292  0.00  0.00     0.106 C 
ATOM     26  H10 EAA d           7.159   0.796  30.491  0.00  0.00     0.091 H 
ATOM     27  H11 EAA d           5.665  -0.198  30.567  0.00  0.00     0.091 H 
BRANCH  25  28
ATOM     28  C13 EAA d           5.416   1.839  31.099  0.00  0.00     0.198 C 
ATOM     29  O   EAA d           4.174   1.688  31.268  0.00  0.00    -0.646 OA
ATOM     30  OXT EAA d           6.076   2.793  31.599  0.00  0.00    -0.646 OA
ENDBRANCH  25  28
ENDBRANCH  24  25
ENDBRANCH   1  24
TORSDOF 7
ENDMDL
MODEL 5
REMARK VINA RESULT:      -5.0      2.898      6.700
REMARK  7 active torsions:
REMARK  status: ('A' for Active; 'I' for Inactive)
REMARK    1  A    between atoms: C1_1  and  O2_2 
REMARK    2  A    between atoms: O2_2  and  C12_16 
REMARK    3  A    between atoms: C4_7  and  C7_10 
REMARK    4  A    between atoms: C7_10  and  C8_12 
REMARK    5  A    between atoms: C8_12  and  C9_13 
REMARK    6  A    between atoms: C9_13  and  C10_14 
REMARK    7  A    between atoms: C12_16  and  C13_17 
ROOT
ATOM      1  C1  EAA d           6.827   2.771  29.226  0.00  0.00     0.092 A 
ATOM      2  C2  EAA d           7.807   2.313  28.323  0.00  0.00     0.090 A 
ATOM      3 CL1  EAA d           8.289   0.665  28.434  0.00  0.00    -0.080 Cl
ATOM      4  C3  EAA d           8.323   3.138  27.379  0.00  0.00     0.072 A 
ATOM      5 CL2  EAA d           9.548   2.541  26.297  0.00  0.00    -0.081 Cl
ATOM      6  C4  EAA d           7.932   4.476  27.282  0.00  0.00     0.038 A 
ATOM      7  C5  EAA d           6.969   4.925  28.192  0.00  0.00    -0.065 A 
ATOM      8  C6  EAA d           6.440   4.097  29.143  0.00  0.00    -0.048 A 
ATOM      9  H1  EAA d           6.634   5.955  28.141  0.00  0.00     0.085 H 
ATOM     10  H2  EAA d           5.707   4.485  29.841  0.00  0.00     0.087 H 
ENDROOT
BRANCH   6  11
ATOM     11  C7  EAA d           8.388   5.363  26.164  0.00  0.00     0.189 C 
ATOM     12  O1  EAA d           9.163   6.261  26.377  0.00  0.00    -0.287 OA
BRANCH  11  13
ATOM     13  C8  EAA d           7.917   5.128  24.775  0.00  0.00    -0.017 C 
ATOM     14  C11 EAA d           8.794   4.902  23.840  0.00  0.00    -0.112 C 
ATOM     15  H8  EAA d           9.858   4.934  24.072  0.00  0.00     0.067 H 
ATOM     16  H9  EAA d           8.465   4.679  22.826  0.00  0.00     0.067 H 
BRANCH  13  17
ATOM     17  C9  EAA d           6.445   5.111  24.580  0.00  0.00    -0.041 C 
ATOM     18  H3  EAA d           5.997   5.611  25.450  0.00  0.00     0.039 H 
ATOM     19  H4  EAA d           6.132   4.056  24.561  0.00  0.00     0.039 H 
BRANCH  17  20
ATOM     20  C10 EAA d           5.891   5.742  23.391  0.00  0.00    -0.073 C 
ATOM     21  H5  EAA d           5.138   6.485  23.688  0.00  0.00     0.028 H 
ATOM     22  H6  EAA d           5.422   4.977  22.755  0.00  0.00     0.028 H 
ATOM     23  H7  EAA d           6.697   6.240  22.831  0.00  0.00     0.028 H 
ENDBRANCH  17  20
ENDBRANCH  13  17
ENDBRANCH  11  13
ENDBRANCH   6  11
BRANCH   1  24
ATOM     24  O2  EAA d           6.368   1.869  30.132  0.00  0.00    -0.339 OA
BRANCH  24  25
ATOM     25  C12 EAA d           5.255   2.231  30.920  0.00  0.00     0.106 C 
ATOM     26  H10 EAA d           4.462   1.478  30.799  0.00  0.00     0.091 H 
ATOM     27  H11 EAA d           4.881   3.213  30.595  0.00  0.00     0.091 H 
BRANCH  25  28
ATOM     28  C13 EAA d           5.651   2.303  32.347  0.00  0.00     0.198 C 
ATOM     29  O   EAA d           6.058   1.218  32.849  0.00  0.00    -0.646 OA
ATOM     30  OXT EAA d           5.607   3.392  32.987  0.00  0.00    -0.646 OA
ENDBRANCH  25  28
ENDBRANCH  24  25
ENDBRANCH   1  24
TORSDOF 7
ENDMDL
MODEL 6
REMARK VINA RESULT:      -4.9      2.442      6.805
REMARK  7 active torsions:
REMARK  status: ('A' for Active; 'I' for Inactive)
REMARK    1  A    between atoms: C1_1  and  O2_2 
REMARK    2  A    between atoms: O2_2  and  C12_16 
REMARK    3  A    between atoms: C4_7  and  C7_10 
REMARK    4  A    between atoms: C7_10  and  C8_12 
REMARK    5  A    between atoms: C8_12  and  C9_13 
REMARK    6  A    between atoms: C9_13  and  C10_14 
REMARK    7  A    between atoms: C12_16  and  C13_17 
ROOT
ATOM      1  C1  EAA d           6.184   2.795  28.901  0.00  0.00     0.092 A 
ATOM      2  C2  EAA d           7.430   2.244  28.545  0.00  0.00     0.090 A 
ATOM      3 CL1  EAA d           7.802   0.666  29.121  0.00  0.00    -0.080 Cl
ATOM      4  C3  EAA d           8.290   2.925  27.748  0.00  0.00     0.072 A 
ATOM      5 CL2  EAA d           9.831   2.219  27.349  0.00  0.00    -0.081 Cl
ATOM      6  C4  EAA d           7.992   4.205  27.274  0.00  0.00     0.038 A 
ATOM      7  C5  EAA d           6.758   4.750  27.644  0.00  0.00    -0.065 A 
ATOM      8  C6  EAA d           5.884   4.067  28.443  0.00  0.00    -0.048 A 
ATOM      9  H1  EAA d           6.489   5.737  27.288  0.00  0.00     0.085 H 
ATOM     10  H2  EAA d           4.943   4.527  28.722  0.00  0.00     0.087 H 
ENDROOT
BRANCH   6  11
ATOM     11  C7  EAA d           8.866   4.914  26.285  0.00  0.00     0.189 C 
ATOM     12  O1  EAA d           9.637   5.765  26.653  0.00  0.00    -0.287 OA
BRANCH  11  13
ATOM     13  C8  EAA d           8.817   4.558  24.844  0.00  0.00    -0.017 C 
ATOM     14  C11 EAA d           7.765   4.881  24.148  0.00  0.00    -0.112 C 
ATOM     15  H8  EAA d           6.917   5.362  24.634  0.00  0.00     0.067 H 
ATOM     16  H9  EAA d           7.732   4.671  23.080  0.00  0.00     0.067 H 
BRANCH  13  17
ATOM     17  C9  EAA d          10.029   3.900  24.293  0.00  0.00    -0.041 C 
ATOM     18  H3  EAA d          10.734   3.769  25.127  0.00  0.00     0.039 H 
ATOM     19  H4  EAA d          10.462   4.587  23.551  0.00  0.00     0.039 H 
BRANCH  17  20
ATOM     20  C10 EAA d           9.887   2.605  23.645  0.00  0.00    -0.073 C 
ATOM     21  H5  EAA d          10.057   1.806  24.382  0.00  0.00     0.028 H 
ATOM     22  H6  EAA d          10.624   2.518  22.833  0.00  0.00     0.028 H 
ATOM     23  H7  EAA d           8.872   2.511  23.231  0.00  0.00     0.028 H 
ENDBRANCH  17  20
ENDBRANCH  13  17
ENDBRANCH  11  13
ENDBRANCH   6  11
BRANCH   1  24
ATOM     24  O2  EAA d           5.390   2.036  29.699  0.00  0.00    -0.339 OA
BRANCH  24  25
ATOM     25  C12 EAA d           4.773   2.657  30.805  0.00  0.00     0.106 C 
ATOM     26  H10 EAA d           3.778   2.216  30.963  0.00  0.00     0.091 H 
ATOM     27  H11 EAA d           4.669   3.734  30.606  0.00  0.00     0.091 H 
BRANCH  25  28
ATOM     28  C13 EAA d           5.599   2.458  32.020  0.00  0.00     0.198 C 
ATOM     29  O   EAA d           6.157   1.329  32.113  0.00  0.00    -0.646 OA
ATOM     30  OXT EAA d           5.747   3.379  32.872  0.00  0.00    -0.646 OA
ENDBRANCH  25  28
ENDBRANCH  24  25
ENDBRANCH   1  24
TORSDOF 7
ENDMDL
MODEL 7
REMARK VINA RESULT:      -4.8      2.236      2.909
REMARK  7 active torsions:
REMARK  status: ('A' for Active; 'I' for Inactive)
REMARK    1  A    between atoms: C1_1  and  O2_2 
REMARK    2  A    between atoms: O2_2  and  C12_16 
REMARK    3  A    between atoms: C4_7  and  C7_10 
REMARK    4  A    between atoms: C7_10  and  C8_12 
REMARK    5  A    between atoms: C8_12  and  C9_13 
REMARK    6  A    between atoms: C9_13  and  C10_14 
REMARK    7  A    between atoms: C12_16  and  C13_17 
ROOT
ATOM      1  C1  EAA d           7.956   4.830  27.397  0.00  0.00     0.092 A 
ATOM      2  C2  EAA d           8.331   3.493  27.630  0.00  0.00     0.090 A 
ATOM      3 CL1  EAA d           9.843   2.964  27.002  0.00  0.00    -0.080 Cl
ATOM      4  C3  EAA d           7.540   2.664  28.356  0.00  0.00     0.072 A 
ATOM      5 CL2  EAA d           8.029   1.012  28.603  0.00  0.00    -0.081 Cl
ATOM      6  C4  EAA d           6.313   3.089  28.872  0.00  0.00     0.038 A 
ATOM      7  C5  EAA d           5.943   4.414  28.624  0.00  0.00    -0.065 A 
ATOM      8  C6  EAA d           6.738   5.258  27.898  0.00  0.00    -0.048 A 
ATOM      9  H1  EAA d           5.002   4.782  29.016  0.00  0.00     0.085 H 
ATOM     10  H2  EAA d           6.411   6.274  27.712  0.00  0.00     0.087 H 
ENDROOT
BRANCH   6  11
ATOM     11  C7  EAA d           5.492   2.233  29.788  0.00  0.00     0.189 C 
ATOM     12  O1  EAA d           4.593   1.561  29.349  0.00  0.00    -0.287 OA
BRANCH  11  13
ATOM     13  C8  EAA d           5.795   2.177  31.241  0.00  0.00    -0.017 C 
ATOM     14  C11 EAA d           6.165   1.044  31.766  0.00  0.00    -0.112 C 
ATOM     15  H8  EAA d           6.201   0.145  31.151  0.00  0.00     0.067 H 
ATOM     16  H9  EAA d           6.437   0.995  32.819  0.00  0.00     0.067 H 
BRANCH  13  17
ATOM     17  C9  EAA d           5.707   3.464  31.976  0.00  0.00    -0.041 C 
ATOM     18  H3  EAA d           6.290   4.203  31.407  0.00  0.00     0.039 H 
ATOM     19  H4  EAA d           6.173   3.307  32.960  0.00  0.00     0.039 H 
BRANCH  17  20
ATOM     20  C10 EAA d           4.393   4.044  32.212  0.00  0.00    -0.073 C 
ATOM     21  H5  EAA d           3.633   3.250  32.198  0.00  0.00     0.028 H 
ATOM     22  H6  EAA d           4.170   4.778  31.423  0.00  0.00     0.028 H 
ATOM     23  H7  EAA d           4.384   4.544  33.191  0.00  0.00     0.028 H 
ENDBRANCH  17  20
ENDBRANCH  13  17
ENDBRANCH  11  13
ENDBRANCH   6  11
BRANCH   1  24
ATOM     24  O2  EAA d           8.816   5.583  26.664  0.00  0.00    -0.339 OA
BRANCH  24  25
ATOM     25  C12 EAA d           8.306   6.268  25.541  0.00  0.00     0.106 C 
ATOM     26  H10 EAA d           9.046   7.004  25.196  0.00  0.00     0.091 H 
ATOM     27  H11 EAA d           7.377   6.786  25.822  0.00  0.00     0.091 H 
BRANCH  25  28
ATOM     28  C13 EAA d           8.023   5.305  24.449  0.00  0.00     0.198 C 
ATOM     29  O   EAA d           6.818   5.257  24.073  0.00  0.00    -0.646 OA
ATOM     30  OXT EAA d           8.943   4.618  23.925  0.00  0.00    -0.646 OA
ENDBRANCH  25  28
ENDBRANCH  24  25
ENDBRANCH   1  24
TORSDOF 7
ENDMDL
MODEL 8
REMARK VINA RESULT:      -4.7      2.377      3.196
REMARK  7 active torsions:
REMARK  status: ('A' for Active; 'I' for Inactive)
REMARK    1  A    between atoms: C1_1  and  O2_2 
REMARK    2  A    between atoms: O2_2  and  C12_16 
REMARK    3  A    between atoms: C4_7  and  C7_10 
REMARK    4  A    between atoms: C7_10  and  C8_12 
REMARK    5  A    between atoms: C8_12  and  C9_13 
REMARK    6  A    between atoms: C9_13  and  C10_14 
REMARK    7  A    between atoms: C12_16  and  C13_17 
ROOT
ATOM      1  C1  EAA d           8.286   4.356  27.577  0.00  0.00     0.092 A 
ATOM      2  C2  EAA d           8.338   2.969  27.816  0.00  0.00     0.090 A 
ATOM      3 CL1  EAA d           9.508   2.051  26.950  0.00  0.00    -0.080 Cl
ATOM      4  C3  EAA d           7.514   2.388  28.722  0.00  0.00     0.072 A 
ATOM      5 CL2  EAA d           7.593   0.666  28.971  0.00  0.00    -0.081 Cl
ATOM      6  C4  EAA d           6.565   3.129  29.431  0.00  0.00     0.038 A 
ATOM      7  C5  EAA d           6.512   4.503  29.178  0.00  0.00    -0.065 A 
ATOM      8  C6  EAA d           7.344   5.097  28.269  0.00  0.00    -0.048 A 
ATOM      9  H1  EAA d           5.794   5.112  29.715  0.00  0.00     0.085 H 
ATOM     10  H2  EAA d           7.263   6.163  28.088  0.00  0.00     0.087 H 
ENDROOT
BRANCH   6  11
ATOM     11  C7  EAA d           5.743   2.530  30.531  0.00  0.00     0.189 C 
ATOM     12  O1  EAA d           6.081   2.657  31.682  0.00  0.00    -0.287 OA
BRANCH  11  13
ATOM     13  C8  EAA d           4.486   1.801  30.222  0.00  0.00    -0.017 C 
ATOM     14  C11 EAA d           3.989   0.993  31.114  0.00  0.00    -0.112 C 
ATOM     15  H8  EAA d           4.519   0.822  32.050  0.00  0.00     0.067 H 
ATOM     16  H9  EAA d           3.043   0.487  30.924  0.00  0.00     0.067 H 
BRANCH  13  17
ATOM     17  C9  EAA d           3.857   2.112  28.914  0.00  0.00    -0.041 C 
ATOM     18  H3  EAA d           4.452   2.912  28.450  0.00  0.00     0.039 H 
ATOM     19  H4  EAA d           2.842   2.484  29.122  0.00  0.00     0.039 H 
BRANCH  17  20
ATOM     20  C10 EAA d           3.728   1.047  27.931  0.00  0.00    -0.073 C 
ATOM     21  H5  EAA d           4.432   1.224  27.105  0.00  0.00     0.028 H 
ATOM     22  H6  EAA d           2.700   1.031  27.540  0.00  0.00     0.028 H 
ATOM     23  H7  EAA d           3.955   0.081  28.405  0.00  0.00     0.028 H 
ENDBRANCH  17  20
ENDBRANCH  13  17
ENDBRANCH  11  13
ENDBRANCH   6  11
BRANCH   1  24
ATOM     24  O2  EAA d           9.154   4.847  26.655  0.00  0.00    -0.339 OA
BRANCH  24  25
ATOM     25  C12 EAA d           8.631   5.627  25.602  0.00  0.00     0.106 C 
ATOM     26  H10 EAA d           9.393   6.345  25.268  0.00  0.00     0.091 H 
ATOM     27  H11 EAA d           7.744   6.171  25.958  0.00  0.00     0.091 H 
BRANCH  25  28
ATOM     28  C13 EAA d           8.249   4.751  24.468  0.00  0.00     0.198 C 
ATOM     29  O   EAA d           7.029   4.791  24.143  0.00  0.00    -0.646 OA
ATOM     30  OXT EAA d           9.107   4.048  23.863  0.00  0.00    -0.646 OA
ENDBRANCH  25  28
ENDBRANCH  24  25
ENDBRANCH   1  24
TORSDOF 7
ENDMDL
MODEL 9
REMARK VINA RESULT:      -4.7      1.813      2.305
REMARK  7 active torsions:
REMARK  status: ('A' for Active; 'I' for Inactive)
REMARK    1  A    between atoms: C1_1  and  O2_2 
REMARK    2  A    between atoms: O2_2  and  C12_16 
REMARK    3  A    between atoms: C4_7  and  C7_10 
REMARK    4  A    between atoms: C7_10  and  C8_12 
REMARK    5  A    between atoms: C8_12  and  C9_13 
REMARK    6  A    between atoms: C9_13  and  C10_14 
REMARK    7  A    between atoms: C12_16  and  C13_17 
ROOT
ATOM      1  C1  EAA d           8.343   3.056  26.659  0.00  0.00     0.092 A 
ATOM      2  C2  EAA d           8.412   2.127  27.715  0.00  0.00     0.090 A 
ATOM      3 CL1  EAA d           9.940   1.411  28.052  0.00  0.00    -0.080 Cl
ATOM      4  C3  EAA d           7.317   1.837  28.460  0.00  0.00     0.072 A 
ATOM      5 CL2  EAA d           7.439   0.666  29.743  0.00  0.00    -0.081 Cl
ATOM      6  C4  EAA d           6.075   2.419  28.194  0.00  0.00     0.038 A 
ATOM      7  C5  EAA d           6.012   3.330  27.135  0.00  0.00    -0.065 A 
ATOM      8  C6  EAA d           7.114   3.632  26.383  0.00  0.00    -0.048 A 
ATOM      9  H1  EAA d           5.068   3.808  26.904  0.00  0.00     0.085 H 
ATOM     10  H2  EAA d           7.025   4.331  25.560  0.00  0.00     0.087 H 
ENDROOT
BRANCH   6  11
ATOM     11  C7  EAA d           4.890   2.216  29.087  0.00  0.00     0.189 C 
ATOM     12  O1  EAA d           4.183   1.248  28.951  0.00  0.00    -0.287 OA
BRANCH  11  13
ATOM     13  C8  EAA d           4.588   3.185  30.172  0.00  0.00    -0.017 C 
ATOM     14  C11 EAA d           3.400   3.714  30.234  0.00  0.00    -0.112 C 
ATOM     15  H8  EAA d           2.660   3.482  29.470  0.00  0.00     0.067 H 
ATOM     16  H9  EAA d           3.146   4.389  31.050  0.00  0.00     0.067 H 
BRANCH  13  17
ATOM     17  C9  EAA d           5.677   3.426  31.153  0.00  0.00    -0.041 C 
ATOM     18  H3  EAA d           6.136   4.391  30.895  0.00  0.00     0.039 H 
ATOM     19  H4  EAA d           6.415   2.621  31.022  0.00  0.00     0.039 H 
BRANCH  17  20
ATOM     20  C10 EAA d           5.343   3.475  32.568  0.00  0.00    -0.073 C 
ATOM     21  H5  EAA d           5.195   2.453  32.945  0.00  0.00     0.028 H 
ATOM     22  H6  EAA d           4.418   4.055  32.707  0.00  0.00     0.028 H 
ATOM     23  H7  EAA d           6.163   3.955  33.122  0.00  0.00     0.028 H 
ENDBRANCH  17  20
ENDBRANCH  13  17
ENDBRANCH  11  13
ENDBRANCH   6  11
BRANCH   1  24
ATOM     24  O2  EAA d           9.493   3.284  25.974  0.00  0.00    -0.339 OA
BRANCH  24  25
ATOM     25  C12 EAA d           9.933   2.296  25.069  0.00  0.00     0.106 C 
ATOM     26  H10 EAA d           9.285   1.412  25.152  0.00  0.00     0.091 H 
ATOM     27  H11 EAA d          10.969   2.016  25.310  0.00  0.00     0.091 H 
BRANCH  25  28
ATOM     28  C13 EAA d           9.875   2.821  23.683  0.00  0.00     0.198 C 
ATOM     29  O   EAA d           9.837   1.943  22.776  0.00  0.00    -0.646 OA
ATOM     30  OXT EAA d           9.834   4.062  23.452  0.00  0.00    -0.646 OA
ENDBRANCH  25  28
ENDBRANCH  24  25
ENDBRANCH   1  24
TORSDOF 7
ENDMDL
MODEL 10
REMARK VINA RESULT:      -4.6      1.842      2.162
REMARK  7 active torsions:
REMARK  status: ('A' for Active; 'I' for Inactive)
REMARK    1  A    between atoms: C1_1  and  O2_2 
REMARK    2  A    between atoms: O2_2  and  C12_16 
REMARK    3  A    between atoms: C4_7  and  C7_10 
REMARK    4  A    between atoms: C7_10  and  C8_12 
REMARK    5  A    between atoms: C8_12  and  C9_13 
REMARK    6  A    between atoms: C9_13  and  C10_14 
REMARK    7  A    between atoms: C12_16  and  C13_17 
ROOT
ATOM      1  C1  EAA d           8.900   3.898  27.234  0.00  0.00     0.092 A 
ATOM      2  C2  EAA d           8.170   4.881  27.930  0.00  0.00     0.090 A 
ATOM      3 CL1  EAA d           8.778   6.491  27.914  0.00  0.00    -0.080 Cl
ATOM      4  C3  EAA d           7.010   4.570  28.560  0.00  0.00     0.072 A 
ATOM      5 CL2  EAA d           6.149   5.809  29.428  0.00  0.00    -0.081 Cl
ATOM      6  C4  EAA d           6.510   3.266  28.572  0.00  0.00     0.038 A 
ATOM      7  C5  EAA d           7.248   2.294  27.890  0.00  0.00    -0.065 A 
ATOM      8  C6  EAA d           8.416   2.601  27.247  0.00  0.00    -0.048 A 
ATOM      9  H1  EAA d           6.887   1.273  27.871  0.00  0.00     0.085 H 
ATOM     10  H2  EAA d           8.970   1.819  26.742  0.00  0.00     0.087 H 
ENDROOT
BRANCH   6  11
ATOM     11  C7  EAA d           5.166   2.931  29.145  0.00  0.00     0.189 C 
ATOM     12  O1  EAA d           4.160   3.215  28.543  0.00  0.00    -0.287 OA
BRANCH  11  13
ATOM     13  C8  EAA d           5.056   2.217  30.442  0.00  0.00    -0.017 C 
ATOM     14  C11 EAA d           4.212   1.232  30.552  0.00  0.00    -0.112 C 
ATOM     15  H8  EAA d           3.565   0.974  29.715  0.00  0.00     0.067 H 
ATOM     16  H9  EAA d           4.152   0.666  31.481  0.00  0.00     0.067 H 
BRANCH  13  17
ATOM     17  C9  EAA d           5.986   2.661  31.512  0.00  0.00    -0.041 C 
ATOM     18  H3  EAA d           6.762   3.275  31.032  0.00  0.00     0.039 H 
ATOM     19  H4  EAA d           6.445   1.757  31.938  0.00  0.00     0.039 H 
BRANCH  17  20
ATOM     20  C10 EAA d           5.453   3.435  32.623  0.00  0.00    -0.073 C 
ATOM     21  H5  EAA d           4.499   2.997  32.951  0.00  0.00     0.028 H 
ATOM     22  H6  EAA d           5.288   4.474  32.300  0.00  0.00     0.028 H 
ATOM     23  H7  EAA d           6.169   3.419  33.458  0.00  0.00     0.028 H 
ENDBRANCH  17  20
ENDBRANCH  13  17
ENDBRANCH  11  13
ENDBRANCH   6  11
BRANCH   1  24
ATOM     24  O2  EAA d          10.046   4.307  26.630  0.00  0.00    -0.339 OA
BRANCH  24  25
ATOM     25  C12 EAA d          10.204   4.034  25.255  0.00  0.00     0.106 C 
ATOM     26  H10 EAA d           9.808   3.033  25.034  0.00  0.00     0.091 H 
ATOM     27  H11 EAA d          11.272   4.072  24.996  0.00  0.00     0.091 H 
BRANCH  25  28
ATOM     28  C13 EAA d           9.468   5.043  24.454  0.00  0.00     0.198 C 
ATOM     29  O   EAA d           8.492   4.594  23.789  0.00  0.00    -0.646 OA
ATOM     30  OXT EAA d           9.791   6.263  24.478  0.00  0.00    -0.646 OA
ENDBRANCH  25  28
ENDBRANCH  24  25
ENDBRANCH   1  24
TORSDOF 7
ENDMDL
