MODEL 1
REMARK VINA RESULT:      -5.9      0.000      0.000
REMARK  6 active torsions:
REMARK  status: ('A' for Active; 'I' for Inactive)
REMARK    1  A    between atoms: C1_1  and  O1_7 
REMARK    2  A    between atoms: C2_2  and  O2_8 
REMARK    3  A    between atoms: C3_3  and  O3_9 
REMARK    4  A    between atoms: C4_4  and  O4_10 
REMARK    5  A    between atoms: C5_5  and  C6_6 
REMARK    6  A    between atoms: O1_7  and  CM_12 
ROOT
ATOM      1  C1  MFU d          12.356   4.913  -3.465  0.00  0.00     0.158 C 
ATOM      2  C2  MFU d          11.005   4.680  -2.758  0.00  0.00     0.110 C 
ATOM      3  C3  MFU d          10.250   3.538  -3.433  0.00  0.00     0.092 C 
ATOM      4  C4  MFU d          11.142   2.306  -3.580  0.00  0.00     0.087 C 
ATOM      5  C5  MFU d          12.506   2.625  -4.208  0.00  0.00     0.065 C 
ATOM      6  O5  MFU d          13.134   3.695  -3.487  0.00  0.00    -0.351 OA
ATOM      7  H1  MFU d          12.919   5.688  -2.923  0.00  0.00     0.133 H 
ATOM      8  H2  MFU d          11.228   4.381  -1.723  0.00  0.00     0.094 H 
ATOM      9  H3  MFU d           9.901   3.867  -4.423  0.00  0.00     0.091 H 
ATOM     10  H4  MFU d          10.627   1.574  -4.220  0.00  0.00     0.091 H 
ATOM     11  H5  MFU d          12.332   2.963  -5.240  0.00  0.00     0.086 H 
ENDROOT
BRANCH   1  12
ATOM     12  O1  MFU d          12.108   5.359  -4.812  0.00  0.00    -0.363 OA
BRANCH  12  13
ATOM     13  CM  MFU d          13.213   6.021  -5.445  0.00  0.00     0.007 C 
ATOM     14  H12 MFU d          12.926   6.322  -6.463  0.00  0.00     0.066 H 
ATOM     15  H13 MFU d          14.073   5.335  -5.494  0.00  0.00     0.066 H 
ATOM     16  H14 MFU d          13.488   6.914  -4.864  0.00  0.00     0.066 H 
ENDBRANCH  12  13
ENDBRANCH   1  12
BRANCH   2  17
ATOM     17  O2  MFU d          10.139   5.846  -2.693  0.00  0.00    -0.388 OA
ATOM     18  H9  MFU d           9.361   5.634  -2.191  0.00  0.00     0.210 HD
ENDBRANCH   2  17
BRANCH   3  19
ATOM     19  O3  MFU d           9.134   3.155  -2.619  0.00  0.00    -0.390 OA
ATOM     20  H10 MFU d           9.446   2.863  -1.770  0.00  0.00     0.210 HD
ENDBRANCH   3  19
BRANCH   5  21
ATOM     21  C6  MFU d          13.414   1.394  -4.267  0.00  0.00    -0.050 C 
ATOM     22  H6  MFU d          14.376   1.669  -4.724  0.00  0.00     0.031 H 
ATOM     23  H7  MFU d          12.933   0.611  -4.873  0.00  0.00     0.031 H 
ATOM     24  H8  MFU d          13.587   1.015  -3.249  0.00  0.00     0.031 H 
ENDBRANCH   5  21
BRANCH   4  25
ATOM     25  O4  MFU d          11.346   1.739  -2.272  0.00  0.00    -0.390 OA
ATOM     26  H11 MFU d          10.503   1.540  -1.881  0.00  0.00     0.210 HD
ENDBRANCH   4  25
TORSDOF 6
ENDMDL
