MODEL 1
REMARK VINA RESULT:      -5.8      0.000      0.000
REMARK  6 active torsions:
REMARK  status: ('A' for Active; 'I' for Inactive)
REMARK    1  A    between atoms: C1_1  and  O1_7 
REMARK    2  A    between atoms: C2_2  and  O2_8 
REMARK    3  A    between atoms: C3_3  and  O3_9 
REMARK    4  A    between atoms: C4_4  and  O4_10 
REMARK    5  A    between atoms: C5_5  and  C6_6 
REMARK    6  A    between atoms: O1_7  and  CM_12 
ROOT
ATOM      1  C1  MFU d          12.414   4.861  -3.672  0.00  0.00     0.158 C 
ATOM      2  C2  MFU d          11.081   4.715  -2.909  0.00  0.00     0.110 C 
ATOM      3  C3  MFU d          10.280   3.545  -3.471  0.00  0.00     0.092 C 
ATOM      4  C4  MFU d          11.140   2.283  -3.549  0.00  0.00     0.087 C 
ATOM      5  C5  MFU d          12.489   2.519  -4.240  0.00  0.00     0.065 C 
ATOM      6  O5  MFU d          13.163   3.625  -3.623  0.00  0.00    -0.351 OA
ATOM      7  H1  MFU d          13.011   5.660  -3.209  0.00  0.00     0.133 H 
ATOM      8  H2  MFU d          11.331   4.491  -1.861  0.00  0.00     0.094 H 
ATOM      9  H3  MFU d           9.907   3.805  -4.473  0.00  0.00     0.091 H 
ATOM     10  H4  MFU d          10.588   1.517  -4.115  0.00  0.00     0.091 H 
ATOM     11  H5  MFU d          12.291   2.782  -5.290  0.00  0.00     0.086 H 
ENDROOT
BRANCH   1  12
ATOM     12  O1  MFU d          12.133   5.208  -5.041  0.00  0.00    -0.363 OA
BRANCH  12  13
ATOM     13  CM  MFU d          12.826   6.368  -5.527  0.00  0.00     0.007 C 
ATOM     14  H12 MFU d          12.144   6.969  -6.148  0.00  0.00     0.066 H 
ATOM     15  H13 MFU d          13.690   6.054  -6.131  0.00  0.00     0.066 H 
ATOM     16  H14 MFU d          13.173   6.972  -4.675  0.00  0.00     0.066 H 
ENDBRANCH  12  13
ENDBRANCH   1  12
BRANCH   2  17
ATOM     17  O2  MFU d          10.244   5.904  -2.909  0.00  0.00    -0.388 OA
ATOM     18  H9  MFU d          10.790   6.676  -2.815  0.00  0.00     0.210 HD
ENDBRANCH   2  17
BRANCH   3  19
ATOM     19  O3  MFU d           9.182   3.252  -2.596  0.00  0.00    -0.390 OA
ATOM     20  H10 MFU d           9.159   3.890  -1.894  0.00  0.00     0.210 HD
ENDBRANCH   3  19
BRANCH   5  21
ATOM     21  C6  MFU d          13.368   1.265  -4.232  0.00  0.00    -0.050 C 
ATOM     22  H6  MFU d          14.326   1.485  -4.724  0.00  0.00     0.031 H 
ATOM     23  H7  MFU d          12.856   0.455  -4.773  0.00  0.00     0.031 H 
ATOM     24  H8  MFU d          13.552   0.953  -3.193  0.00  0.00     0.031 H 
ENDBRANCH   5  21
BRANCH   4  25
ATOM     25  O4  MFU d          11.372   1.813  -2.208  0.00  0.00    -0.390 OA
ATOM     26  H11 MFU d          12.303   1.682  -2.077  0.00  0.00     0.210 HD
ENDBRANCH   4  25
TORSDOF 6
ENDMDL
MODEL 2
REMARK VINA RESULT:      -5.0      1.186      3.394
REMARK  6 active torsions:
REMARK  status: ('A' for Active; 'I' for Inactive)
REMARK    1  A    between atoms: C1_1  and  O1_7 
REMARK    2  A    between atoms: C2_2  and  O2_8 
REMARK    3  A    between atoms: C3_3  and  O3_9 
REMARK    4  A    between atoms: C4_4  and  O4_10 
REMARK    5  A    between atoms: C5_5  and  C6_6 
REMARK    6  A    between atoms: O1_7  and  CM_12 
ROOT
ATOM      1  C1  MFU d          12.239   2.446  -4.767  0.00  0.00     0.158 C 
ATOM      2  C2  MFU d          10.785   2.391  -4.252  0.00  0.00     0.110 C 
ATOM      3  C3  MFU d          10.675   3.117  -2.915  0.00  0.00     0.092 C 
ATOM      4  C4  MFU d          11.295   4.512  -2.998  0.00  0.00     0.087 C 
ATOM      5  C5  MFU d          12.705   4.505  -3.602  0.00  0.00     0.065 C 
ATOM      6  O5  MFU d          12.690   3.816  -4.861  0.00  0.00    -0.351 OA
ATOM      7  H1  MFU d          12.287   1.984  -5.764  0.00  0.00     0.133 H 
ATOM      8  H2  MFU d          10.161   2.923  -4.986  0.00  0.00     0.094 H 
ATOM      9  H3  MFU d          11.183   2.528  -2.137  0.00  0.00     0.091 H 
ATOM     10  H4  MFU d          11.353   4.931  -1.982  0.00  0.00     0.091 H 
ATOM     11  H5  MFU d          13.364   3.951  -2.918  0.00  0.00     0.086 H 
ENDROOT
BRANCH   1  12
ATOM     12  O1  MFU d          13.084   1.714  -3.861  0.00  0.00    -0.363 OA
BRANCH  12  13
ATOM     13  CM  MFU d          13.885   0.690  -4.471  0.00  0.00     0.007 C 
ATOM     14  H12 MFU d          14.938   1.008  -4.485  0.00  0.00     0.066 H 
ATOM     15  H13 MFU d          13.540   0.520  -5.502  0.00  0.00     0.066 H 
ATOM     16  H14 MFU d          13.791  -0.242  -3.893  0.00  0.00     0.066 H 
ENDBRANCH  12  13
ENDBRANCH   1  12
BRANCH   2  17
ATOM     17  O2  MFU d          10.238   1.051  -4.110  0.00  0.00    -0.388 OA
ATOM     18  H9  MFU d           9.829   0.967  -3.256  0.00  0.00     0.210 HD
ENDBRANCH   2  17
BRANCH   3  19
ATOM     19  O3  MFU d           9.292   3.291  -2.577  0.00  0.00    -0.390 OA
ATOM     20  H10 MFU d           9.097   4.219  -2.512  0.00  0.00     0.210 HD
ENDBRANCH   3  19
BRANCH   5  21
ATOM     21  C6  MFU d          13.273   5.919  -3.755  0.00  0.00    -0.050 C 
ATOM     22  H6  MFU d          14.372   5.878  -3.721  0.00  0.00     0.031 H 
ATOM     23  H7  MFU d          12.905   6.553  -2.934  0.00  0.00     0.031 H 
ATOM     24  H8  MFU d          12.951   6.341  -4.718  0.00  0.00     0.031 H 
ENDBRANCH   5  21
BRANCH   4  25
ATOM     25  O4  MFU d          10.438   5.338  -3.808  0.00  0.00    -0.390 OA
ATOM     26  H11 MFU d           9.581   4.933  -3.874  0.00  0.00     0.210 HD
ENDBRANCH   4  25
TORSDOF 6
ENDMDL
MODEL 3
REMARK VINA RESULT:      -4.8      1.582      1.977
REMARK  6 active torsions:
REMARK  status: ('A' for Active; 'I' for Inactive)
REMARK    1  A    between atoms: C1_1  and  O1_7 
REMARK    2  A    between atoms: C2_2  and  O2_8 
REMARK    3  A    between atoms: C3_3  and  O3_9 
REMARK    4  A    between atoms: C4_4  and  O4_10 
REMARK    5  A    between atoms: C5_5  and  C6_6 
REMARK    6  A    between atoms: O1_7  and  CM_12 
ROOT
ATOM      1  C1  MFU d          11.340   4.305  -3.676  0.00  0.00     0.158 C 
ATOM      2  C2  MFU d          10.532   3.114  -3.121  0.00  0.00     0.110 C 
ATOM      3  C3  MFU d          10.294   2.084  -4.222  0.00  0.00     0.092 C 
ATOM      4  C4  MFU d          11.602   1.726  -4.927  0.00  0.00     0.087 C 
ATOM      5  C5  MFU d          12.399   2.959  -5.372  0.00  0.00     0.065 C 
ATOM      6  O5  MFU d          12.581   3.847  -4.260  0.00  0.00    -0.351 OA
ATOM      7  H1  MFU d          11.566   5.003  -2.856  0.00  0.00     0.133 H 
ATOM      8  H2  MFU d          11.144   2.645  -2.337  0.00  0.00     0.094 H 
ATOM      9  H3  MFU d           9.575   2.489  -4.951  0.00  0.00     0.091 H 
ATOM     10  H4  MFU d          11.368   1.122  -5.816  0.00  0.00     0.091 H 
ATOM     11  H5  MFU d          11.810   3.484  -6.138  0.00  0.00     0.086 H 
ENDROOT
BRANCH   1  12
ATOM     12  O1  MFU d          10.551   4.982  -4.673  0.00  0.00    -0.363 OA
BRANCH  12  13
ATOM     13  CM  MFU d          10.215   6.342  -4.360  0.00  0.00     0.007 C 
ATOM     14  H12 MFU d          10.408   6.532  -3.294  0.00  0.00     0.066 H 
ATOM     15  H13 MFU d           9.150   6.516  -4.576  0.00  0.00     0.066 H 
ATOM     16  H14 MFU d          10.830   7.022  -4.970  0.00  0.00     0.066 H 
ENDBRANCH  12  13
ENDBRANCH   1  12
BRANCH   2  17
ATOM     17  O2  MFU d           9.255   3.468  -2.521  0.00  0.00    -0.388 OA
ATOM     18  H9  MFU d           9.159   3.013  -1.692  0.00  0.00     0.210 HD
ENDBRANCH   2  17
BRANCH   3  19
ATOM     19  O3  MFU d           9.782   0.875  -3.644  0.00  0.00    -0.390 OA
ATOM     20  H10 MFU d          10.135   0.770  -2.769  0.00  0.00     0.210 HD
ENDBRANCH   3  19
BRANCH   5  21
ATOM     21  C6  MFU d          13.744   2.579  -5.998  0.00  0.00    -0.050 C 
ATOM     22  H6  MFU d          13.757   2.886  -7.054  0.00  0.00     0.031 H 
ATOM     23  H7  MFU d          13.885   1.489  -5.932  0.00  0.00     0.031 H 
ATOM     24  H8  MFU d          14.557   3.088  -5.459  0.00  0.00     0.031 H 
ENDBRANCH   5  21
BRANCH   4  25
ATOM     25  O4  MFU d          12.404   0.948  -4.018  0.00  0.00    -0.390 OA
ATOM     26  H11 MFU d          11.842   0.362  -3.524  0.00  0.00     0.210 HD
ENDBRANCH   4  25
TORSDOF 6
ENDMDL
MODEL 4
REMARK VINA RESULT:      -4.8      1.101      3.396
REMARK  6 active torsions:
REMARK  status: ('A' for Active; 'I' for Inactive)
REMARK    1  A    between atoms: C1_1  and  O1_7 
REMARK    2  A    between atoms: C2_2  and  O2_8 
REMARK    3  A    between atoms: C3_3  and  O3_9 
REMARK    4  A    between atoms: C4_4  and  O4_10 
REMARK    5  A    between atoms: C5_5  and  C6_6 
REMARK    6  A    between atoms: O1_7  and  CM_12 
ROOT
ATOM      1  C1  MFU d          11.211   2.877  -4.459  0.00  0.00     0.158 C 
ATOM      2  C2  MFU d          10.190   3.725  -3.673  0.00  0.00     0.110 C 
ATOM      3  C3  MFU d          10.878   4.945  -3.068  0.00  0.00     0.092 C 
ATOM      4  C4  MFU d          11.688   5.696  -4.125  0.00  0.00     0.087 C 
ATOM      5  C5  MFU d          12.616   4.777  -4.931  0.00  0.00     0.065 C 
ATOM      6  O5  MFU d          11.866   3.679  -5.468  0.00  0.00    -0.351 OA
ATOM      7  H1  MFU d          10.688   2.042  -4.949  0.00  0.00     0.133 H 
ATOM      8  H2  MFU d           9.437   4.076  -4.394  0.00  0.00     0.094 H 
ATOM      9  H3  MFU d          11.539   4.623  -2.250  0.00  0.00     0.091 H 
ATOM     10  H4  MFU d          12.302   6.457  -3.622  0.00  0.00     0.091 H 
ATOM     11  H5  MFU d          13.372   4.372  -4.243  0.00  0.00     0.086 H 
ENDROOT
BRANCH   1  12
ATOM     12  O1  MFU d          12.189   2.352  -3.541  0.00  0.00    -0.363 OA
BRANCH  12  13
ATOM     13  CM  MFU d          13.036   1.324  -4.078  0.00  0.00     0.007 C 
ATOM     14  H12 MFU d          12.978   0.431  -3.439  0.00  0.00     0.066 H 
ATOM     15  H13 MFU d          14.075   1.686  -4.112  0.00  0.00     0.066 H 
ATOM     16  H14 MFU d          12.703   1.069  -5.095  0.00  0.00     0.066 H 
ENDBRANCH  12  13
ENDBRANCH   1  12
BRANCH   2  17
ATOM     17  O2  MFU d           9.483   3.012  -2.622  0.00  0.00    -0.388 OA
ATOM     18  H9  MFU d           8.578   2.882  -2.881  0.00  0.00     0.210 HD
ENDBRANCH   2  17
BRANCH   3  19
ATOM     19  O3  MFU d           9.888   5.857  -2.572  0.00  0.00    -0.390 OA
ATOM     20  H10 MFU d           9.213   5.371  -2.112  0.00  0.00     0.210 HD
ENDBRANCH   3  19
BRANCH   5  21
ATOM     21  C6  MFU d          13.354   5.534  -6.040  0.00  0.00    -0.050 C 
ATOM     22  H6  MFU d          13.744   4.817  -6.777  0.00  0.00     0.031 H 
ATOM     23  H7  MFU d          14.190   6.101  -5.603  0.00  0.00     0.031 H 
ATOM     24  H8  MFU d          12.659   6.228  -6.535  0.00  0.00     0.031 H 
ENDBRANCH   5  21
BRANCH   4  25
ATOM     25  O4  MFU d          10.766   6.341  -5.024  0.00  0.00    -0.390 OA
ATOM     26  H11 MFU d          11.160   7.137  -5.361  0.00  0.00     0.210 HD
ENDBRANCH   4  25
TORSDOF 6
ENDMDL
MODEL 5
REMARK VINA RESULT:      -4.8      1.515      2.271
REMARK  6 active torsions:
REMARK  status: ('A' for Active; 'I' for Inactive)
REMARK    1  A    between atoms: C1_1  and  O1_7 
REMARK    2  A    between atoms: C2_2  and  O2_8 
REMARK    3  A    between atoms: C3_3  and  O3_9 
REMARK    4  A    between atoms: C4_4  and  O4_10 
REMARK    5  A    between atoms: C5_5  and  C6_6 
REMARK    6  A    between atoms: O1_7  and  CM_12 
ROOT
ATOM      1  C1  MFU d          12.885   3.365  -3.642  0.00  0.00     0.158 C 
ATOM      2  C2  MFU d          12.193   4.455  -2.797  0.00  0.00     0.110 C 
ATOM      3  C3  MFU d          10.867   4.852  -3.438  0.00  0.00     0.092 C 
ATOM      4  C4  MFU d          10.019   3.618  -3.748  0.00  0.00     0.087 C 
ATOM      5  C5  MFU d          10.795   2.536  -4.511  0.00  0.00     0.065 C 
ATOM      6  O5  MFU d          12.010   2.227  -3.814  0.00  0.00    -0.351 OA
ATOM      7  H1  MFU d          13.802   3.038  -3.131  0.00  0.00     0.133 H 
ATOM      8  H2  MFU d          11.982   4.016  -1.811  0.00  0.00     0.094 H 
ATOM      9  H3  MFU d          11.062   5.413  -4.364  0.00  0.00     0.091 H 
ATOM     10  H4  MFU d           9.159   3.928  -4.360  0.00  0.00     0.091 H 
ATOM     11  H5  MFU d          11.060   2.942  -5.498  0.00  0.00     0.086 H 
ENDROOT
BRANCH   1  12
ATOM     12  O1  MFU d          13.227   3.917  -4.927  0.00  0.00    -0.363 OA
BRANCH  12  13
ATOM     13  CM  MFU d          13.771   2.976  -5.866  0.00  0.00     0.007 C 
ATOM     14  H12 MFU d          14.113   3.510  -6.765  0.00  0.00     0.066 H 
ATOM     15  H13 MFU d          12.996   2.247  -6.146  0.00  0.00     0.066 H 
ATOM     16  H14 MFU d          14.622   2.450  -5.407  0.00  0.00     0.066 H 
ENDBRANCH  12  13
ENDBRANCH   1  12
BRANCH   2  17
ATOM     17  O2  MFU d          12.988   5.653  -2.576  0.00  0.00    -0.388 OA
ATOM     18  H9  MFU d          13.844   5.407  -2.244  0.00  0.00     0.210 HD
ENDBRANCH   2  17
BRANCH   3  19
ATOM     19  O3  MFU d          10.114   5.660  -2.522  0.00  0.00    -0.390 OA
ATOM     20  H10 MFU d          10.460   6.544  -2.523  0.00  0.00     0.210 HD
ENDBRANCH   3  19
BRANCH   5  21
ATOM     21  C6  MFU d           9.953   1.276  -4.736  0.00  0.00    -0.050 C 
ATOM     22  H6  MFU d           9.845   0.733  -3.786  0.00  0.00     0.031 H 
ATOM     23  H7  MFU d          10.452   0.629  -5.473  0.00  0.00     0.031 H 
ATOM     24  H8  MFU d           8.959   1.561  -5.111  0.00  0.00     0.031 H 
ENDBRANCH   5  21
BRANCH   4  25
ATOM     25  O4  MFU d           9.548   3.072  -2.502  0.00  0.00    -0.390 OA
ATOM     26  H11 MFU d          10.114   3.362  -1.797  0.00  0.00     0.210 HD
ENDBRANCH   4  25
TORSDOF 6
ENDMDL
MODEL 6
REMARK VINA RESULT:      -4.6      1.594      3.353
REMARK  6 active torsions:
REMARK  status: ('A' for Active; 'I' for Inactive)
REMARK    1  A    between atoms: C1_1  and  O1_7 
REMARK    2  A    between atoms: C2_2  and  O2_8 
REMARK    3  A    between atoms: C3_3  and  O3_9 
REMARK    4  A    between atoms: C4_4  and  O4_10 
REMARK    5  A    between atoms: C5_5  and  C6_6 
REMARK    6  A    between atoms: O1_7  and  CM_12 
ROOT
ATOM      1  C1  MFU d          11.735   3.160  -5.405  0.00  0.00     0.158 C 
ATOM      2  C2  MFU d          11.503   2.083  -4.324  0.00  0.00     0.110 C 
ATOM      3  C3  MFU d          11.581   2.709  -2.935  0.00  0.00     0.092 C 
ATOM      4  C4  MFU d          10.686   3.945  -2.842  0.00  0.00     0.087 C 
ATOM      5  C5  MFU d          10.905   4.931  -3.996  0.00  0.00     0.065 C 
ATOM      6  O5  MFU d          10.791   4.243  -5.251  0.00  0.00    -0.351 OA
ATOM      7  H1  MFU d          11.603   2.708  -6.400  0.00  0.00     0.133 H 
ATOM      8  H2  MFU d          10.484   1.693  -4.469  0.00  0.00     0.094 H 
ATOM      9  H3  MFU d          12.624   2.986  -2.718  0.00  0.00     0.091 H 
ATOM     10  H4  MFU d          10.901   4.463  -1.895  0.00  0.00     0.091 H 
ATOM     11  H5  MFU d          11.928   5.327  -3.915  0.00  0.00     0.086 H 
ENDROOT
BRANCH   1  12
ATOM     12  O1  MFU d          13.079   3.661  -5.284  0.00  0.00    -0.363 OA
BRANCH  12  13
ATOM     13  CM  MFU d          14.005   3.155  -6.258  0.00  0.00     0.007 C 
ATOM     14  H12 MFU d          14.997   3.597  -6.084  0.00  0.00     0.066 H 
ATOM     15  H13 MFU d          13.657   3.421  -7.268  0.00  0.00     0.066 H 
ATOM     16  H14 MFU d          14.070   2.061  -6.168  0.00  0.00     0.066 H 
ENDBRANCH  12  13
ENDBRANCH   1  12
BRANCH   2  17
ATOM     17  O2  MFU d          12.413   0.950  -4.385  0.00  0.00    -0.388 OA
ATOM     18  H9  MFU d          12.744   0.764  -3.514  0.00  0.00     0.210 HD
ENDBRANCH   2  17
BRANCH   3  19
ATOM     19  O3  MFU d          11.107   1.771  -1.959  0.00  0.00    -0.390 OA
ATOM     20  H10 MFU d          10.164   1.689  -2.033  0.00  0.00     0.210 HD
ENDBRANCH   3  19
BRANCH   5  21
ATOM     21  C6  MFU d           9.940   6.119  -3.930  0.00  0.00    -0.050 C 
ATOM     22  H6  MFU d           9.072   5.851  -3.310  0.00  0.00     0.031 H 
ATOM     23  H7  MFU d           9.601   6.373  -4.945  0.00  0.00     0.031 H 
ATOM     24  H8  MFU d          10.454   6.984  -3.486  0.00  0.00     0.031 H 
ENDBRANCH   5  21
BRANCH   4  25
ATOM     25  O4  MFU d           9.314   3.508  -2.847  0.00  0.00    -0.390 OA
ATOM     26  H11 MFU d           8.832   3.974  -2.175  0.00  0.00     0.210 HD
ENDBRANCH   4  25
TORSDOF 6
ENDMDL
MODEL 7
REMARK VINA RESULT:      -4.4      1.600      3.061
REMARK  6 active torsions:
REMARK  status: ('A' for Active; 'I' for Inactive)
REMARK    1  A    between atoms: C1_1  and  O1_7 
REMARK    2  A    between atoms: C2_2  and  O2_8 
REMARK    3  A    between atoms: C3_3  and  O3_9 
REMARK    4  A    between atoms: C4_4  and  O4_10 
REMARK    5  A    between atoms: C5_5  and  C6_6 
REMARK    6  A    between atoms: O1_7  and  CM_12 
ROOT
ATOM      1  C1  MFU d          10.423   5.656  -4.002  0.00  0.00     0.158 C 
ATOM      2  C2  MFU d          10.706   4.403  -3.147  0.00  0.00     0.110 C 
ATOM      3  C3  MFU d          11.770   3.540  -3.818  0.00  0.00     0.092 C 
ATOM      4  C4  MFU d          12.994   4.375  -4.195  0.00  0.00     0.087 C 
ATOM      5  C5  MFU d          12.632   5.653  -4.965  0.00  0.00     0.065 C 
ATOM      6  O5  MFU d          11.643   6.395  -4.238  0.00  0.00    -0.351 OA
ATOM      7  H1  MFU d           9.709   6.303  -3.470  0.00  0.00     0.133 H 
ATOM      8  H2  MFU d          11.105   4.752  -2.182  0.00  0.00     0.094 H 
ATOM      9  H3  MFU d          11.345   3.073  -4.720  0.00  0.00     0.091 H 
ATOM     10  H4  MFU d          13.656   3.764  -4.826  0.00  0.00     0.091 H 
ATOM     11  H5  MFU d          12.196   5.355  -5.930  0.00  0.00     0.086 H 
ENDROOT
BRANCH   1  12
ATOM     12  O1  MFU d           9.849   5.245  -5.256  0.00  0.00    -0.363 OA
BRANCH  12  13
ATOM     13  CM  MFU d           9.441   6.320  -6.118  0.00  0.00     0.007 C 
ATOM     14  H12 MFU d           8.434   6.114  -6.508  0.00  0.00     0.066 H 
ATOM     15  H13 MFU d          10.149   6.407  -6.956  0.00  0.00     0.066 H 
ATOM     16  H14 MFU d           9.428   7.261  -5.548  0.00  0.00     0.066 H 
ENDBRANCH  12  13
ENDBRANCH   1  12
BRANCH   2  17
ATOM     17  O2  MFU d           9.541   3.581  -2.861  0.00  0.00    -0.388 OA
ATOM     18  H9  MFU d           9.715   2.685  -3.125  0.00  0.00     0.210 HD
ENDBRANCH   2  17
BRANCH   3  19
ATOM     19  O3  MFU d          12.216   2.530  -2.903  0.00  0.00    -0.390 OA
ATOM     20  H10 MFU d          11.463   2.094  -2.522  0.00  0.00     0.210 HD
ENDBRANCH   3  19
BRANCH   5  21
ATOM     21  C6  MFU d          13.863   6.516  -5.257  0.00  0.00    -0.050 C 
ATOM     22  H6  MFU d          14.739   5.868  -5.408  0.00  0.00     0.031 H 
ATOM     23  H7  MFU d          14.048   7.190  -4.407  0.00  0.00     0.031 H 
ATOM     24  H8  MFU d          13.686   7.111  -6.166  0.00  0.00     0.031 H 
ENDBRANCH   5  21
BRANCH   4  25
ATOM     25  O4  MFU d          13.684   4.734  -2.983  0.00  0.00    -0.390 OA
ATOM     26  H11 MFU d          14.352   4.084  -2.797  0.00  0.00     0.210 HD
ENDBRANCH   4  25
TORSDOF 6
ENDMDL
MODEL 8
REMARK VINA RESULT:      -3.7      1.668      3.350
REMARK  6 active torsions:
REMARK  status: ('A' for Active; 'I' for Inactive)
REMARK    1  A    between atoms: C1_1  and  O1_7 
REMARK    2  A    between atoms: C2_2  and  O2_8 
REMARK    3  A    between atoms: C3_3  and  O3_9 
REMARK    4  A    between atoms: C4_4  and  O4_10 
REMARK    5  A    between atoms: C5_5  and  C6_6 
REMARK    6  A    between atoms: O1_7  and  CM_12 
ROOT
ATOM      1  C1  MFU d          13.186   4.385  -4.323  0.00  0.00     0.158 C 
ATOM      2  C2  MFU d          12.709   2.923  -4.451  0.00  0.00     0.110 C 
ATOM      3  C3  MFU d          11.405   2.729  -3.684  0.00  0.00     0.092 C 
ATOM      4  C4  MFU d          10.380   3.795  -4.070  0.00  0.00     0.087 C 
ATOM      5  C5  MFU d          10.947   5.220  -4.009  0.00  0.00     0.065 C 
ATOM      6  O5  MFU d          12.157   5.294  -4.776  0.00  0.00    -0.351 OA
ATOM      7  H1  MFU d          14.086   4.527  -4.940  0.00  0.00     0.133 H 
ATOM      8  H2  MFU d          12.513   2.738  -5.517  0.00  0.00     0.094 H 
ATOM      9  H3  MFU d          11.606   2.778  -2.603  0.00  0.00     0.091 H 
ATOM     10  H4  MFU d           9.527   3.729  -3.378  0.00  0.00     0.091 H 
ATOM     11  H5  MFU d          11.192   5.442  -2.960  0.00  0.00     0.086 H 
ENDROOT
BRANCH   1  12
ATOM     12  O1  MFU d          13.506   4.654  -2.946  0.00  0.00    -0.363 OA
BRANCH  12  13
ATOM     13  CM  MFU d          14.056   5.956  -2.693  0.00  0.00     0.007 C 
ATOM     14  H12 MFU d          13.239   6.676  -2.540  0.00  0.00     0.066 H 
ATOM     15  H13 MFU d          14.665   6.271  -3.555  0.00  0.00     0.066 H 
ATOM     16  H14 MFU d          14.686   5.920  -1.792  0.00  0.00     0.066 H 
ENDBRANCH  12  13
ENDBRANCH   1  12
BRANCH   2  17
ATOM     17  O2  MFU d          13.671   1.926  -4.009  0.00  0.00    -0.388 OA
ATOM     18  H9  MFU d          14.205   1.653  -4.746  0.00  0.00     0.210 HD
ENDBRANCH   2  17
BRANCH   3  19
ATOM     19  O3  MFU d          10.835   1.456  -4.022  0.00  0.00    -0.390 OA
ATOM     20  H10 MFU d          11.305   1.086  -4.760  0.00  0.00     0.210 HD
ENDBRANCH   3  19
BRANCH   5  21
ATOM     21  C6  MFU d           9.931   6.264  -4.481  0.00  0.00    -0.050 C 
ATOM     22  H6  MFU d          10.433   7.235  -4.605  0.00  0.00     0.031 H 
ATOM     23  H7  MFU d           9.129   6.360  -3.733  0.00  0.00     0.031 H 
ATOM     24  H8  MFU d           9.501   5.949  -5.443  0.00  0.00     0.031 H 
ENDBRANCH   5  21
BRANCH   4  25
ATOM     25  O4  MFU d           9.931   3.523  -5.411  0.00  0.00    -0.390 OA
ATOM     26  H11 MFU d           9.161   2.968  -5.378  0.00  0.00     0.210 HD
ENDBRANCH   4  25
TORSDOF 6
ENDMDL
MODEL 9
REMARK VINA RESULT:      -3.6      1.862      2.237
REMARK  6 active torsions:
REMARK  status: ('A' for Active; 'I' for Inactive)
REMARK    1  A    between atoms: C1_1  and  O1_7 
REMARK    2  A    between atoms: C2_2  and  O2_8 
REMARK    3  A    between atoms: C3_3  and  O3_9 
REMARK    4  A    between atoms: C4_4  and  O4_10 
REMARK    5  A    between atoms: C5_5  and  C6_6 
REMARK    6  A    between atoms: O1_7  and  CM_12 
ROOT
ATOM      1  C1  MFU d          12.178   3.147  -3.264  0.00  0.00     0.158 C 
ATOM      2  C2  MFU d          10.764   3.044  -3.872  0.00  0.00     0.110 C 
ATOM      3  C3  MFU d          10.856   2.722  -5.361  0.00  0.00     0.092 C 
ATOM      4  C4  MFU d          11.772   1.522  -5.605  0.00  0.00     0.087 C 
ATOM      5  C5  MFU d          13.127   1.650  -4.897  0.00  0.00     0.065 C 
ATOM      6  O5  MFU d          12.923   1.932  -3.505  0.00  0.00    -0.351 OA
ATOM      7  H1  MFU d          12.094   3.307  -2.178  0.00  0.00     0.133 H 
ATOM      8  H2  MFU d          10.256   2.207  -3.370  0.00  0.00     0.094 H 
ATOM      9  H3  MFU d          11.240   3.601  -5.901  0.00  0.00     0.091 H 
ATOM     10  H4  MFU d          11.950   1.431  -6.687  0.00  0.00     0.091 H 
ATOM     11  H5  MFU d          13.664   2.500  -5.344  0.00  0.00     0.086 H 
ENDROOT
BRANCH   1  12
ATOM     12  O1  MFU d          12.862   4.267  -3.858  0.00  0.00    -0.363 OA
BRANCH  12  13
ATOM     13  CM  MFU d          13.311   5.266  -2.929  0.00  0.00     0.007 C 
ATOM     14  H12 MFU d          13.663   4.778  -2.008  0.00  0.00     0.066 H 
ATOM     15  H13 MFU d          12.479   5.945  -2.690  0.00  0.00     0.066 H 
ATOM     16  H14 MFU d          14.136   5.839  -3.378  0.00  0.00     0.066 H 
ENDBRANCH  12  13
ENDBRANCH   1  12
BRANCH   2  17
ATOM     17  O2  MFU d           9.933   4.224  -3.694  0.00  0.00    -0.388 OA
ATOM     18  H9  MFU d           9.250   4.037  -3.061  0.00  0.00     0.210 HD
ENDBRANCH   2  17
BRANCH   3  19
ATOM     19  O3  MFU d           9.558   2.368  -5.856  0.00  0.00    -0.390 OA
ATOM     20  H10 MFU d           8.893   2.826  -5.356  0.00  0.00     0.210 HD
ENDBRANCH   3  19
BRANCH   5  21
ATOM     21  C6  MFU d          13.994   0.402  -5.084  0.00  0.00    -0.050 C 
ATOM     22  H6  MFU d          13.713  -0.103  -6.020  0.00  0.00     0.031 H 
ATOM     23  H7  MFU d          13.838  -0.284  -4.237  0.00  0.00     0.031 H 
ATOM     24  H8  MFU d          15.054   0.694  -5.130  0.00  0.00     0.031 H 
ENDBRANCH   5  21
BRANCH   4  25
ATOM     25  O4  MFU d          11.100   0.341  -5.130  0.00  0.00    -0.390 OA
ATOM     26  H11 MFU d          11.048   0.368  -4.182  0.00  0.00     0.210 HD
ENDBRANCH   4  25
TORSDOF 6
ENDMDL
MODEL 10
REMARK VINA RESULT:      -3.6      1.641      1.928
REMARK  6 active torsions:
REMARK  status: ('A' for Active; 'I' for Inactive)
REMARK    1  A    between atoms: C1_1  and  O1_7 
REMARK    2  A    between atoms: C2_2  and  O2_8 
REMARK    3  A    between atoms: C3_3  and  O3_9 
REMARK    4  A    between atoms: C4_4  and  O4_10 
REMARK    5  A    between atoms: C5_5  and  C6_6 
REMARK    6  A    between atoms: O1_7  and  CM_12 
ROOT
ATOM      1  C1  MFU d          12.380   4.657  -3.029  0.00  0.00     0.158 C 
ATOM      2  C2  MFU d          11.059   5.046  -3.723  0.00  0.00     0.110 C 
ATOM      3  C3  MFU d          11.067   4.568  -5.172  0.00  0.00     0.092 C 
ATOM      4  C4  MFU d          11.449   3.091  -5.258  0.00  0.00     0.087 C 
ATOM      5  C5  MFU d          12.723   2.755  -4.471  0.00  0.00     0.065 C 
ATOM      6  O5  MFU d          12.600   3.231  -3.123  0.00  0.00    -0.351 OA
ATOM      7  H1  MFU d          12.330   4.942  -1.968  0.00  0.00     0.133 H 
ATOM      8  H2  MFU d          10.248   4.525  -3.193  0.00  0.00     0.094 H 
ATOM      9  H3  MFU d          11.781   5.173  -5.752  0.00  0.00     0.091 H 
ATOM     10  H4  MFU d          11.613   2.831  -6.314  0.00  0.00     0.091 H 
ATOM     11  H5  MFU d          13.563   3.284  -4.945  0.00  0.00     0.086 H 
ENDROOT
BRANCH   1  12
ATOM     12  O1  MFU d          13.465   5.361  -3.661  0.00  0.00    -0.363 OA
BRANCH  12  13
ATOM     13  CM  MFU d          14.185   6.261  -2.804  0.00  0.00     0.007 C 
ATOM     14  H12 MFU d          14.145   5.892  -1.768  0.00  0.00     0.066 H 
ATOM     15  H13 MFU d          13.729   7.261  -2.855  0.00  0.00     0.066 H 
ATOM     16  H14 MFU d          15.234   6.319  -3.132  0.00  0.00     0.066 H 
ENDBRANCH  12  13
ENDBRANCH   1  12
BRANCH   2  17
ATOM     17  O2  MFU d          10.749   6.467  -3.696  0.00  0.00    -0.388 OA
ATOM     18  H9  MFU d           9.839   6.597  -3.934  0.00  0.00     0.210 HD
ENDBRANCH   2  17
BRANCH   3  19
ATOM     19  O3  MFU d           9.750   4.695  -5.726  0.00  0.00    -0.390 OA
ATOM     20  H10 MFU d           9.723   5.445  -6.309  0.00  0.00     0.210 HD
ENDBRANCH   3  19
BRANCH   5  21
ATOM     21  C6  MFU d          13.040   1.257  -4.500  0.00  0.00    -0.050 C 
ATOM     22  H6  MFU d          12.127   0.694  -4.742  0.00  0.00     0.031 H 
ATOM     23  H7  MFU d          13.413   0.942  -3.514  0.00  0.00     0.031 H 
ATOM     24  H8  MFU d          13.806   1.059  -5.263  0.00  0.00     0.031 H 
ENDBRANCH   5  21
BRANCH   4  25
ATOM     25  O4  MFU d          10.354   2.312  -4.739  0.00  0.00    -0.390 OA
ATOM     26  H11 MFU d           9.691   2.213  -5.412  0.00  0.00     0.210 HD
ENDBRANCH   4  25
TORSDOF 6
ENDMDL
