MODEL 1
REMARK VINA RESULT:      -5.8      0.000      0.000
REMARK  5 active torsions:
REMARK  status: ('A' for Active; 'I' for Inactive)
REMARK    1  A    between atoms: C2_3  and  O1_2 
REMARK    2  A    between atoms: C4_7  and  O2_4 
REMARK    3  A    between atoms: C12_18  and  O5_10 
REMARK    4  A    between atoms: C13_19  and  O6_12 
REMARK    5  A    between atoms: C10_16  and  C9_15 
ROOT
ATOM      1  C1  LU2 d          20.539  40.752  41.486  0.00  0.00    -0.017 A 
ATOM      2  C2  LU2 d          21.041  41.073  42.724  0.00  0.00     0.071 A 
ATOM      3  C3  LU2 d          21.993  42.086  42.861  0.00  0.00    -0.018 A 
ATOM      4  O3  LU2 d          23.231  43.945  39.350  0.00  0.00    -0.287 OA
ATOM      5  C4  LU2 d          22.426  42.776  41.743  0.00  0.00     0.085 A 
ATOM      6  O4  LU2 d          20.463  41.080  39.211  0.00  0.00    -0.309 OA
ATOM      7  C5  LU2 d          21.920  42.452  40.481  0.00  0.00     0.081 A 
ATOM      8  C6  LU2 d          20.996  41.443  40.379  0.00  0.00     0.095 A 
ATOM      9  C7  LU2 d          22.341  43.094  39.340  0.00  0.00     0.190 A 
ATOM     10  C8  LU2 d          21.856  42.657  38.131  0.00  0.00    -0.000 A 
ATOM     11  C9  LU2 d          20.884  41.684  38.101  0.00  0.00     0.090 A 
ATOM     12  H1  LU2 d          19.796  39.970  41.379  0.00  0.00     0.092 H 
ATOM     13  H4  LU2 d          22.391  42.331  43.839  0.00  0.00     0.092 H 
ATOM     14  H7  LU2 d          22.238  43.078  37.202  0.00  0.00     0.094 H 
ENDROOT
BRANCH  11  15
ATOM     15  C10 LU2 d          20.356  41.233  36.935  0.00  0.00     0.001 A 
ATOM     16  C11 LU2 d          20.869  41.615  35.668  0.00  0.00    -0.036 A 
ATOM     17  C12 LU2 d          20.299  41.162  34.489  0.00  0.00     0.099 A 
ATOM     18  H8  LU2 d          21.726  42.278  35.622  0.00  0.00     0.089 H 
ATOM     19  C13 LU2 d          19.217  40.317  34.713  0.00  0.00     0.098 A 
ATOM     20  C14 LU2 d          18.701  39.931  35.939  0.00  0.00    -0.047 A 
ATOM     21  C15 LU2 d          19.270  40.394  37.075  0.00  0.00    -0.068 A 
ATOM     22  H9  LU2 d          17.847  39.265  35.988  0.00  0.00     0.087 H 
ATOM     23  H10 LU2 d          18.891  40.118  38.051  0.00  0.00     0.085 H 
BRANCH  17  24
ATOM     24  O5  LU2 d          20.705  41.500  33.150  0.00  0.00    -0.358 OA
ATOM     25  H5  LU2 d          19.961  41.416  32.564  0.00  0.00     0.217 HD
ENDBRANCH  17  24
BRANCH  19  26
ATOM     26  O6  LU2 d          18.604  39.823  33.655  0.00  0.00    -0.358 OA
ATOM     27  H6  LU2 d          17.913  40.417  33.386  0.00  0.00     0.217 HD
ENDBRANCH  19  26
ENDBRANCH  11  15
BRANCH   2  28
ATOM     28  O1  LU2 d          20.634  40.380  43.777  0.00  0.00    -0.361 OA
ATOM     29  H2  LU2 d          20.944  39.485  43.706  0.00  0.00     0.217 HD
ENDBRANCH   2  28
BRANCH   5  30
ATOM     30  O2  LU2 d          23.332  43.747  41.904  0.00  0.00    -0.360 OA
ATOM     31  H3  LU2 d          22.959  44.575  41.625  0.00  0.00     0.217 HD
ENDBRANCH   5  30
TORSDOF 5
ENDMDL
MODEL 2
REMARK VINA RESULT:      -3.6      1.995      3.711
REMARK  5 active torsions:
REMARK  status: ('A' for Active; 'I' for Inactive)
REMARK    1  A    between atoms: C2_3  and  O1_2 
REMARK    2  A    between atoms: C4_7  and  O2_4 
REMARK    3  A    between atoms: C12_18  and  O5_10 
REMARK    4  A    between atoms: C13_19  and  O6_12 
REMARK    5  A    between atoms: C10_16  and  C9_15 
ROOT
ATOM      1  C1  LU2 d          22.604  43.862  41.595  0.00  0.00    -0.017 A 
ATOM      2  C2  LU2 d          22.255  43.567  42.890  0.00  0.00     0.071 A 
ATOM      3  C3  LU2 d          21.435  42.469  43.169  0.00  0.00    -0.018 A 
ATOM      4  O3  LU2 d          20.094  40.285  39.892  0.00  0.00    -0.287 OA
ATOM      5  C4  LU2 d          20.980  41.673  42.134  0.00  0.00     0.085 A 
ATOM      6  O4  LU2 d          22.509  43.407  39.343  0.00  0.00    -0.309 OA
ATOM      7  C5  LU2 d          21.331  41.970  40.815  0.00  0.00     0.081 A 
ATOM      8  C6  LU2 d          22.127  43.062  40.573  0.00  0.00     0.095 A 
ATOM      9  C7  LU2 d          20.881  41.221  39.753  0.00  0.00     0.190 A 
ATOM     10  C8  LU2 d          21.204  41.633  38.483  0.00  0.00    -0.000 A 
ATOM     11  C9  LU2 d          22.057  42.698  38.310  0.00  0.00     0.090 A 
ATOM     12  H1  LU2 d          23.245  44.710  41.377  0.00  0.00     0.092 H 
ATOM     13  H4  LU2 d          21.157  42.244  44.192  0.00  0.00     0.092 H 
ATOM     14  H7  LU2 d          20.787  41.118  37.618  0.00  0.00     0.094 H 
ENDROOT
BRANCH  11  15
ATOM     15  C10 LU2 d          22.424  43.130  37.078  0.00  0.00     0.001 A 
ATOM     16  C11 LU2 d          21.835  42.629  35.887  0.00  0.00    -0.036 A 
ATOM     17  C12 LU2 d          22.243  43.068  34.637  0.00  0.00     0.099 A 
ATOM     18  H8  LU2 d          21.049  41.887  35.958  0.00  0.00     0.089 H 
ATOM     19  C13 LU2 d          23.251  44.023  34.712  0.00  0.00     0.098 A 
ATOM     20  C14 LU2 d          23.839  44.525  35.861  0.00  0.00    -0.047 A 
ATOM     21  C15 LU2 d          23.429  44.075  37.069  0.00  0.00    -0.068 A 
ATOM     22  H9  LU2 d          24.622  45.272  35.793  0.00  0.00     0.087 H 
ATOM     23  H10 LU2 d          23.869  44.441  37.988  0.00  0.00     0.085 H 
BRANCH  17  24
ATOM     24  O5  LU2 d          21.748  42.617  33.362  0.00  0.00    -0.358 OA
ATOM     25  H5  LU2 d          21.072  43.212  33.058  0.00  0.00     0.217 HD
ENDBRANCH  17  24
BRANCH  19  26
ATOM     26  O6  LU2 d          23.708  44.512  33.577  0.00  0.00    -0.358 OA
ATOM     27  H6  LU2 d          23.348  44.015  32.852  0.00  0.00     0.217 HD
ENDBRANCH  19  26
ENDBRANCH  11  15
BRANCH   2  28
ATOM     28  O1  LU2 d          22.677  44.360  43.863  0.00  0.00    -0.361 OA
ATOM     29  H2  LU2 d          22.828  45.232  43.517  0.00  0.00     0.217 HD
ENDBRANCH   2  28
BRANCH   5  30
ATOM     30  O2  LU2 d          20.205  40.624  42.430  0.00  0.00    -0.360 OA
ATOM     31  H3  LU2 d          19.311  40.920  42.562  0.00  0.00     0.217 HD
ENDBRANCH   5  30
TORSDOF 5
ENDMDL
MODEL 3
REMARK VINA RESULT:      -3.1      1.325      6.659
REMARK  5 active torsions:
REMARK  status: ('A' for Active; 'I' for Inactive)
REMARK    1  A    between atoms: C2_3  and  O1_2 
REMARK    2  A    between atoms: C4_7  and  O2_4 
REMARK    3  A    between atoms: C12_18  and  O5_10 
REMARK    4  A    between atoms: C13_19  and  O6_12 
REMARK    5  A    between atoms: C10_16  and  C9_15 
ROOT
ATOM      1  C1  LU2 d          19.680  40.565  36.459  0.00  0.00    -0.017 A 
ATOM      2  C2  LU2 d          19.538  40.457  35.097  0.00  0.00     0.071 A 
ATOM      3  C3  LU2 d          20.340  41.215  34.239  0.00  0.00    -0.018 A 
ATOM      4  O3  LU2 d          23.042  43.811  36.048  0.00  0.00    -0.287 OA
ATOM      5  C4  LU2 d          21.288  42.073  34.766  0.00  0.00     0.085 A 
ATOM      6  O4  LU2 d          20.707  41.490  38.296  0.00  0.00    -0.309 OA
ATOM      7  C5  LU2 d          21.435  42.188  36.151  0.00  0.00     0.081 A 
ATOM      8  C6  LU2 d          20.624  41.440  36.966  0.00  0.00     0.095 A 
ATOM      9  C7  LU2 d          22.347  43.047  36.718  0.00  0.00     0.190 A 
ATOM     10  C8  LU2 d          22.368  43.161  38.088  0.00  0.00    -0.000 A 
ATOM     11  C9  LU2 d          21.573  42.337  38.851  0.00  0.00     0.090 A 
ATOM     12  H1  LU2 d          19.063  39.973  37.126  0.00  0.00     0.092 H 
ATOM     13  H4  LU2 d          20.220  41.131  33.165  0.00  0.00     0.092 H 
ATOM     14  H7  LU2 d          23.010  43.899  38.566  0.00  0.00     0.094 H 
ENDROOT
BRANCH  11  15
ATOM     15  C10 LU2 d          21.573  42.395  40.206  0.00  0.00     0.001 A 
ATOM     16  C11 LU2 d          21.250  41.276  41.016  0.00  0.00    -0.036 A 
ATOM     17  C12 LU2 d          21.232  41.363  42.399  0.00  0.00     0.099 A 
ATOM     18  H8  LU2 d          21.011  40.331  40.542  0.00  0.00     0.089 H 
ATOM     19  C13 LU2 d          21.567  42.634  42.855  0.00  0.00     0.098 A 
ATOM     20  C14 LU2 d          21.885  43.738  42.083  0.00  0.00    -0.047 A 
ATOM     21  C15 LU2 d          21.888  43.629  40.735  0.00  0.00    -0.068 A 
ATOM     22  H9  LU2 d          22.130  44.683  42.555  0.00  0.00     0.087 H 
ATOM     23  H10 LU2 d          22.127  44.473  40.100  0.00  0.00     0.085 H 
BRANCH  17  24
ATOM     24  O5  LU2 d          20.892  40.314  43.325  0.00  0.00    -0.358 OA
ATOM     25  H5  LU2 d          20.400  40.680  44.050  0.00  0.00     0.217 HD
ENDBRANCH  17  24
BRANCH  19  26
ATOM     26  O6  LU2 d          21.586  42.824  44.159  0.00  0.00    -0.358 OA
ATOM     27  H6  LU2 d          21.433  43.743  44.346  0.00  0.00     0.217 HD
ENDBRANCH  19  26
ENDBRANCH  11  15
BRANCH   2  28
ATOM     28  O1  LU2 d          18.604  39.651  34.613  0.00  0.00    -0.361 OA
ATOM     29  H2  LU2 d          18.598  38.841  35.110  0.00  0.00     0.217 HD
ENDBRANCH   2  28
BRANCH   5  30
ATOM     30  O2  LU2 d          22.047  42.780  33.922  0.00  0.00    -0.360 OA
ATOM     31  H3  LU2 d          22.010  43.699  34.159  0.00  0.00     0.217 HD
ENDBRANCH   5  30
TORSDOF 5
ENDMDL
