MODEL 1
REMARK VINA RESULT:      -7.7      0.000      0.000
REMARK  4 active torsions:
REMARK  status: ('A' for Active; 'I' for Inactive)
REMARK    1  A    between atoms: C2_2  and  N14_12 
REMARK    2  A    between atoms: C15_13  and  C5_5 
REMARK    3  A    between atoms: C16_15  and  C15_13 
REMARK    4  A    between atoms: C7_14  and  C16_15 
ROOT
ATOM      1  C15 V15 d          -1.484   3.119  11.135  0.00  0.00    -0.020 C 
ATOM      2  H10 V15 d          -0.967   3.233  12.099  0.00  0.00     0.042 H 
ATOM      3  H11 V15 d          -1.230   2.144  10.695  0.00  0.00     0.042 H 
ENDROOT
BRANCH   1   4
ATOM      4  C5  V15 d          -0.941   4.181  10.210  0.00  0.00     0.059 A 
ATOM      5  C4  V15 d          -1.719   4.948   9.376  0.00  0.00     0.007 A 
ATOM      6  C3  V15 d          -1.083   5.914   8.556  0.00  0.00     0.261 A 
ATOM      7  H2  V15 d          -2.800   4.816   9.345  0.00  0.00     0.095 H 
ATOM      8  N1  V15 d           0.273   6.047   8.600  0.00  0.00    -0.155 N 
ATOM      9  O15 V15 d          -1.746   6.622   7.808  0.00  0.00    -0.268 OA
ATOM     10  C2  V15 d           0.991   5.264   9.465  0.00  0.00     0.701 A 
ATOM     11  H1  V15 d           0.737   6.706   8.008  0.00  0.00     0.187 HD
ATOM     12  N6  V15 d           0.386   4.387  10.235  0.00  0.00    -0.070 NA
BRANCH  10  13
ATOM     13  N14 V15 d           2.356   5.416   9.580  0.00  0.00    -0.233 N 
ATOM     14  H8  V15 d           2.802   5.379  10.507  0.00  0.00     0.174 HD
ATOM     15  H9  V15 d           2.930   5.566   8.738  0.00  0.00     0.174 HD
ENDBRANCH  10  13
ENDBRANCH   1   4
BRANCH   1  16
ATOM     16  C16 V15 d          -2.994   3.108  11.427  0.00  0.00    -0.036 C 
ATOM     17  H12 V15 d          -3.489   3.847  10.780  0.00  0.00     0.040 H 
ATOM     18  H13 V15 d          -3.157   3.375  12.481  0.00  0.00     0.040 H 
BRANCH  16  19
ATOM     19  C7  V15 d          -3.594   1.749  11.166  0.00  0.00    -0.058 A 
ATOM     20  C8  V15 d          -2.811   0.597  11.109  0.00  0.00    -0.077 A 
ATOM     21  C9  V15 d          -3.393  -0.635  10.856  0.00  0.00    -0.082 A 
ATOM     22  H3  V15 d          -1.740   0.665  11.264  0.00  0.00     0.084 H 
ATOM     23  C10 V15 d          -4.772  -0.720  10.680  0.00  0.00    -0.083 A 
ATOM     24  H4  V15 d          -2.780  -1.526  10.796  0.00  0.00     0.083 H 
ATOM     25  C11 V15 d          -5.560   0.421  10.748  0.00  0.00    -0.082 A 
ATOM     26  H5  V15 d          -5.232  -1.683  10.490  0.00  0.00     0.083 H 
ATOM     27  C12 V15 d          -4.973   1.656  10.997  0.00  0.00    -0.077 A 
ATOM     28  H6  V15 d          -6.632   0.349  10.608  0.00  0.00     0.083 H 
ATOM     29  H7  V15 d          -5.588   2.546  11.060  0.00  0.00     0.084 H 
ENDBRANCH  16  19
ENDBRANCH   1  16
TORSDOF 4
ENDMDL
MODEL 2
REMARK VINA RESULT:      -6.9      3.605      6.370
REMARK  4 active torsions:
REMARK  status: ('A' for Active; 'I' for Inactive)
REMARK    1  A    between atoms: C2_2  and  N14_12 
REMARK    2  A    between atoms: C15_13  and  C5_5 
REMARK    3  A    between atoms: C16_15  and  C15_13 
REMARK    4  A    between atoms: C7_14  and  C16_15 
ROOT
ATOM      1  C15 V15 d          -1.942   2.383  11.827  0.00  0.00    -0.020 C 
ATOM      2  H10 V15 d          -1.582   1.704  12.614  0.00  0.00     0.042 H 
ATOM      3  H11 V15 d          -2.291   3.321  12.283  0.00  0.00     0.042 H 
ENDROOT
BRANCH   1   4
ATOM      4  C5  V15 d          -3.139   1.727  11.183  0.00  0.00     0.059 A 
ATOM      5  C4  V15 d          -3.061   0.669  10.310  0.00  0.00     0.007 A 
ATOM      6  C3  V15 d          -4.264   0.141   9.775  0.00  0.00     0.261 A 
ATOM      7  H2  V15 d          -2.096   0.244  10.034  0.00  0.00     0.095 H 
ATOM      8  N1  V15 d          -5.457   0.702  10.122  0.00  0.00    -0.155 N 
ATOM      9  O15 V15 d          -4.233  -0.808   9.002  0.00  0.00    -0.268 OA
ATOM     10  C2  V15 d          -5.470   1.745  11.012  0.00  0.00     0.701 A 
ATOM     11  H1  V15 d          -6.311   0.358   9.733  0.00  0.00     0.187 HD
ATOM     12  N6  V15 d          -4.348   2.209  11.515  0.00  0.00    -0.070 NA
BRANCH  10  13
ATOM     13  N14 V15 d          -6.661   2.294  11.431  0.00  0.00    -0.233 N 
ATOM     14  H8  V15 d          -7.143   1.910  12.256  0.00  0.00     0.174 HD
ATOM     15  H9  V15 d          -7.071   3.090  10.920  0.00  0.00     0.174 HD
ENDBRANCH  10  13
ENDBRANCH   1   4
BRANCH   1  16
ATOM     16  C16 V15 d          -0.735   2.731  10.939  0.00  0.00    -0.036 C 
ATOM     17  H12 V15 d          -0.693   2.023  10.099  0.00  0.00     0.040 H 
ATOM     18  H13 V15 d           0.185   2.645  11.537  0.00  0.00     0.040 H 
BRANCH  16  19
ATOM     19  C7  V15 d          -0.838   4.133  10.396  0.00  0.00    -0.058 A 
ATOM     20  C8  V15 d          -2.066   4.713  10.081  0.00  0.00    -0.077 A 
ATOM     21  C9  V15 d          -2.125   6.000   9.572  0.00  0.00    -0.082 A 
ATOM     22  H3  V15 d          -2.982   4.153  10.235  0.00  0.00     0.084 H 
ATOM     23  C10 V15 d          -0.948   6.724   9.397  0.00  0.00    -0.083 A 
ATOM     24  H4  V15 d          -3.080   6.442   9.312  0.00  0.00     0.083 H 
ATOM     25  C11 V15 d           0.279   6.158   9.721  0.00  0.00    -0.082 A 
ATOM     26  H5  V15 d          -0.990   7.734   9.006  0.00  0.00     0.083 H 
ATOM     27  C12 V15 d           0.334   4.864  10.226  0.00  0.00    -0.077 A 
ATOM     28  H6  V15 d           1.191   6.725   9.580  0.00  0.00     0.083 H 
ATOM     29  H7  V15 d           1.291   4.426  10.488  0.00  0.00     0.084 H 
ENDBRANCH  16  19
ENDBRANCH   1  16
TORSDOF 4
ENDMDL
MODEL 3
REMARK VINA RESULT:      -6.8      1.447      2.368
REMARK  4 active torsions:
REMARK  status: ('A' for Active; 'I' for Inactive)
REMARK    1  A    between atoms: C2_2  and  N14_12 
REMARK    2  A    between atoms: C15_13  and  C5_5 
REMARK    3  A    between atoms: C16_15  and  C15_13 
REMARK    4  A    between atoms: C7_14  and  C16_15 
ROOT
ATOM      1  C15 V15 d          -1.774   2.989  11.154  0.00  0.00    -0.020 C 
ATOM      2  H10 V15 d          -1.324   3.038  12.157  0.00  0.00     0.042 H 
ATOM      3  H11 V15 d          -1.544   2.015  10.697  0.00  0.00     0.042 H 
ENDROOT
BRANCH   1   4
ATOM      4  C5  V15 d          -1.104   4.047  10.313  0.00  0.00     0.059 A 
ATOM      5  C4  V15 d           0.238   4.338  10.365  0.00  0.00     0.007 A 
ATOM      6  C3  V15 d           0.744   5.357   9.518  0.00  0.00     0.261 A 
ATOM      7  H2  V15 d           0.899   3.799  11.042  0.00  0.00     0.095 H 
ATOM      8  N1  V15 d          -0.107   6.030   8.693  0.00  0.00    -0.155 N 
ATOM      9  O15 V15 d           1.936   5.636   9.531  0.00  0.00    -0.268 OA
ATOM     10  C2  V15 d          -1.433   5.681   8.674  0.00  0.00     0.701 A 
ATOM     11  H1  V15 d           0.231   6.768   8.109  0.00  0.00     0.187 HD
ATOM     12  N6  V15 d          -1.883   4.720   9.449  0.00  0.00    -0.070 NA
BRANCH  10  13
ATOM     13  N14 V15 d          -2.308   6.298   7.808  0.00  0.00    -0.233 N 
ATOM     14  H8  V15 d          -1.948   6.818   6.995  0.00  0.00     0.174 HD
ATOM     15  H9  V15 d          -3.323   6.240   7.972  0.00  0.00     0.174 HD
ENDBRANCH  10  13
ENDBRANCH   1   4
BRANCH   1  16
ATOM     16  C16 V15 d          -3.300   3.057  11.336  0.00  0.00    -0.036 C 
ATOM     17  H12 V15 d          -3.714   3.776  10.614  0.00  0.00     0.040 H 
ATOM     18  H13 V15 d          -3.523   3.393  12.359  0.00  0.00     0.040 H 
BRANCH  16  19
ATOM     19  C7  V15 d          -3.940   1.711  11.110  0.00  0.00    -0.058 A 
ATOM     20  C8  V15 d          -5.324   1.557  11.033  0.00  0.00    -0.077 A 
ATOM     21  C9  V15 d          -5.881   0.304  10.836  0.00  0.00    -0.082 A 
ATOM     22  H3  V15 d          -5.969   2.424  11.127  0.00  0.00     0.084 H 
ATOM     23  C10 V15 d          -5.048  -0.803  10.693  0.00  0.00    -0.083 A 
ATOM     24  H4  V15 d          -6.957   0.185  10.794  0.00  0.00     0.083 H 
ATOM     25  C11 V15 d          -3.669  -0.656  10.756  0.00  0.00    -0.082 A 
ATOM     26  H5  V15 d          -5.479  -1.784  10.531  0.00  0.00     0.083 H 
ATOM     27  C12 V15 d          -3.113   0.602  10.958  0.00  0.00    -0.077 A 
ATOM     28  H6  V15 d          -3.026  -1.522  10.646  0.00  0.00     0.083 H 
ATOM     29  H7  V15 d          -2.036   0.719  10.998  0.00  0.00     0.084 H 
ENDBRANCH  16  19
ENDBRANCH   1  16
TORSDOF 4
ENDMDL
MODEL 4
REMARK VINA RESULT:      -6.1      3.468      6.165
REMARK  4 active torsions:
REMARK  status: ('A' for Active; 'I' for Inactive)
REMARK    1  A    between atoms: C2_2  and  N14_12 
REMARK    2  A    between atoms: C15_13  and  C5_5 
REMARK    3  A    between atoms: C16_15  and  C15_13 
REMARK    4  A    between atoms: C7_14  and  C16_15 
ROOT
ATOM      1  C15 V15 d          -2.893   2.925  11.495  0.00  0.00    -0.020 C 
ATOM      2  H10 V15 d          -3.013   2.708  12.566  0.00  0.00     0.042 H 
ATOM      3  H11 V15 d          -3.358   3.895  11.263  0.00  0.00     0.042 H 
ENDROOT
BRANCH   1   4
ATOM      4  C5  V15 d          -3.660   1.870  10.737  0.00  0.00     0.059 A 
ATOM      5  C4  V15 d          -4.920   1.438  11.080  0.00  0.00     0.007 A 
ATOM      6  C3  V15 d          -5.533   0.439  10.282  0.00  0.00     0.261 A 
ATOM      7  H2  V15 d          -5.435   1.853  11.945  0.00  0.00     0.095 H 
ATOM      8  N1  V15 d          -4.860  -0.078   9.215  0.00  0.00    -0.155 N 
ATOM      9  O15 V15 d          -6.658   0.038  10.552  0.00  0.00    -0.268 OA
ATOM     10  C2  V15 d          -3.614   0.407   8.915  0.00  0.00     0.701 A 
ATOM     11  H1  V15 d          -5.270  -0.801   8.659  0.00  0.00     0.187 HD
ATOM     12  N6  V15 d          -3.067   1.348   9.651  0.00  0.00    -0.070 NA
BRANCH  10  13
ATOM     13  N14 V15 d          -2.932  -0.048   7.808  0.00  0.00    -0.233 N 
ATOM     14  H8  V15 d          -3.412  -0.113   6.898  0.00  0.00     0.174 HD
ATOM     15  H9  V15 d          -1.943  -0.325   7.889  0.00  0.00     0.174 HD
ENDBRANCH  10  13
ENDBRANCH   1   4
BRANCH   1  16
ATOM     16  C16 V15 d          -1.385   3.067  11.225  0.00  0.00    -0.036 C 
ATOM     17  H12 V15 d          -1.044   2.201  10.640  0.00  0.00     0.040 H 
ATOM     18  H13 V15 d          -0.851   3.095  12.185  0.00  0.00     0.040 H 
BRANCH  16  19
ATOM     19  C7  V15 d          -1.081   4.328  10.457  0.00  0.00    -0.058 A 
ATOM     20  C8  V15 d           0.220   4.673  10.092  0.00  0.00    -0.077 A 
ATOM     21  C9  V15 d           0.466   5.846   9.396  0.00  0.00    -0.082 A 
ATOM     22  H3  V15 d           1.044   4.020  10.355  0.00  0.00     0.084 H 
ATOM     23  C10 V15 d          -0.599   6.670   9.040  0.00  0.00    -0.083 A 
ATOM     24  H4  V15 d           1.480   6.120   9.129  0.00  0.00     0.083 H 
ATOM     25  C11 V15 d          -1.899   6.327   9.388  0.00  0.00    -0.082 A 
ATOM     26  H5  V15 d          -0.412   7.584   8.489  0.00  0.00     0.083 H 
ATOM     27  C12 V15 d          -2.142   5.152  10.091  0.00  0.00    -0.077 A 
ATOM     28  H6  V15 d          -2.723   6.973   9.112  0.00  0.00     0.083 H 
ATOM     29  H7  V15 d          -3.157   4.878  10.355  0.00  0.00     0.084 H 
ENDBRANCH  16  19
ENDBRANCH   1  16
TORSDOF 4
ENDMDL
MODEL 5
REMARK VINA RESULT:      -5.8      3.926      6.440
REMARK  4 active torsions:
REMARK  status: ('A' for Active; 'I' for Inactive)
REMARK    1  A    between atoms: C2_2  and  N14_12 
REMARK    2  A    between atoms: C15_13  and  C5_5 
REMARK    3  A    between atoms: C16_15  and  C15_13 
REMARK    4  A    between atoms: C7_14  and  C16_15 
ROOT
ATOM      1  C15 V15 d          -2.310   1.112  10.604  0.00  0.00    -0.020 C 
ATOM      2  H10 V15 d          -1.775   1.308   9.663  0.00  0.00     0.042 H 
ATOM      3  H11 V15 d          -1.934   0.180  11.051  0.00  0.00     0.042 H 
ENDROOT
BRANCH   1   4
ATOM      4  C5  V15 d          -3.760   0.886  10.255  0.00  0.00     0.059 A 
ATOM      5  C4  V15 d          -4.551  -0.078  10.834  0.00  0.00     0.007 A 
ATOM      6  C3  V15 d          -5.902  -0.186  10.417  0.00  0.00     0.261 A 
ATOM      7  H2  V15 d          -4.149  -0.744  11.596  0.00  0.00     0.095 H 
ATOM      8  N1  V15 d          -6.376   0.648   9.448  0.00  0.00    -0.155 N 
ATOM      9  O15 V15 d          -6.638  -1.026  10.919  0.00  0.00    -0.268 OA
ATOM     10  C2  V15 d          -5.542   1.599   8.921  0.00  0.00     0.701 A 
ATOM     11  H1  V15 d          -7.319   0.566   9.126  0.00  0.00     0.187 HD
ATOM     12  N6  V15 d          -4.298   1.701   9.333  0.00  0.00    -0.070 NA
BRANCH  10  13
ATOM     13  N14 V15 d          -6.006   2.498   7.986  0.00  0.00    -0.233 N 
ATOM     14  H8  V15 d          -5.566   3.425   7.900  0.00  0.00     0.174 HD
ATOM     15  H9  V15 d          -6.793   2.243   7.372  0.00  0.00     0.174 HD
ENDBRANCH  10  13
ENDBRANCH   1   4
BRANCH   1  16
ATOM     16  C16 V15 d          -1.961   2.255  11.572  0.00  0.00    -0.036 C 
ATOM     17  H12 V15 d          -1.131   1.935  12.219  0.00  0.00     0.040 H 
ATOM     18  H13 V15 d          -2.842   2.481  12.191  0.00  0.00     0.040 H 
BRANCH  16  19
ATOM     19  C7  V15 d          -1.552   3.500  10.828  0.00  0.00    -0.058 A 
ATOM     20  C8  V15 d          -2.490   4.362  10.262  0.00  0.00    -0.077 A 
ATOM     21  C9  V15 d          -2.079   5.493   9.574  0.00  0.00    -0.082 A 
ATOM     22  H3  V15 d          -3.548   4.147  10.361  0.00  0.00     0.084 H 
ATOM     23  C10 V15 d          -0.720   5.777   9.469  0.00  0.00    -0.083 A 
ATOM     24  H4  V15 d          -2.810   6.152   9.120  0.00  0.00     0.083 H 
ATOM     25  C11 V15 d           0.221   4.930  10.041  0.00  0.00    -0.082 A 
ATOM     26  H5  V15 d          -0.394   6.664   8.938  0.00  0.00     0.083 H 
ATOM     27  C12 V15 d          -0.195   3.794  10.726  0.00  0.00    -0.077 A 
ATOM     28  H6  V15 d           1.277   5.155   9.954  0.00  0.00     0.083 H 
ATOM     29  H7  V15 d           0.538   3.138  11.182  0.00  0.00     0.084 H 
ENDBRANCH  16  19
ENDBRANCH   1  16
TORSDOF 4
ENDMDL
MODEL 6
REMARK VINA RESULT:      -5.6      1.891      2.686
REMARK  4 active torsions:
REMARK  status: ('A' for Active; 'I' for Inactive)
REMARK    1  A    between atoms: C2_2  and  N14_12 
REMARK    2  A    between atoms: C15_13  and  C5_5 
REMARK    3  A    between atoms: C16_15  and  C15_13 
REMARK    4  A    between atoms: C7_14  and  C16_15 
ROOT
ATOM      1  C15 V15 d          -3.911   2.963   8.358  0.00  0.00    -0.020 C 
ATOM      2  H10 V15 d          -3.911   3.290   7.308  0.00  0.00     0.042 H 
ATOM      3  H11 V15 d          -4.854   3.265   8.836  0.00  0.00     0.042 H 
ENDROOT
BRANCH   1   4
ATOM      4  C5  V15 d          -2.799   3.705   9.057  0.00  0.00     0.059 A 
ATOM      5  C4  V15 d          -2.584   5.058   8.941  0.00  0.00     0.007 A 
ATOM      6  C3  V15 d          -1.502   5.635   9.653  0.00  0.00     0.261 A 
ATOM      7  H2  V15 d          -3.230   5.673   8.317  0.00  0.00     0.095 H 
ATOM      8  N1  V15 d          -0.696   4.841  10.414  0.00  0.00    -0.155 N 
ATOM      9  O15 V15 d          -1.287   6.839   9.582  0.00  0.00    -0.268 OA
ATOM     10  C2  V15 d          -0.973   3.501  10.501  0.00  0.00     0.701 A 
ATOM     11  H1  V15 d           0.086   5.230  10.900  0.00  0.00     0.187 HD
ATOM     12  N6  V15 d          -1.992   2.984   9.853  0.00  0.00    -0.070 NA
BRANCH  10  13
ATOM     13  N14 V15 d          -0.217   2.681  11.310  0.00  0.00    -0.233 N 
ATOM     14  H8  V15 d           0.603   2.191  10.924  0.00  0.00     0.174 HD
ATOM     15  H9  V15 d          -0.471   2.556  12.300  0.00  0.00     0.174 HD
ENDBRANCH  10  13
ENDBRANCH   1   4
BRANCH   1  16
ATOM     16  C16 V15 d          -3.873   1.425   8.355  0.00  0.00    -0.036 C 
ATOM     17  H12 V15 d          -2.859   1.092   8.617  0.00  0.00     0.040 H 
ATOM     18  H13 V15 d          -4.130   1.063   7.349  0.00  0.00     0.040 H 
BRANCH  16  19
ATOM     19  C7  V15 d          -4.851   0.850   9.348  0.00  0.00    -0.058 A 
ATOM     20  C8  V15 d          -5.337   1.596  10.421  0.00  0.00    -0.077 A 
ATOM     21  C9  V15 d          -6.226   1.033  11.322  0.00  0.00    -0.082 A 
ATOM     22  H3  V15 d          -5.017   2.624  10.551  0.00  0.00     0.084 H 
ATOM     23  C10 V15 d          -6.651  -0.281  11.138  0.00  0.00    -0.083 A 
ATOM     24  H4  V15 d          -6.588   1.610  12.165  0.00  0.00     0.083 H 
ATOM     25  C11 V15 d          -6.181  -1.026  10.065  0.00  0.00    -0.082 A 
ATOM     26  H5  V15 d          -7.352  -0.723  11.837  0.00  0.00     0.083 H 
ATOM     27  C12 V15 d          -5.286  -0.460   9.165  0.00  0.00    -0.077 A 
ATOM     28  H6  V15 d          -6.513  -2.049   9.929  0.00  0.00     0.083 H 
ATOM     29  H7  V15 d          -4.926  -1.038   8.322  0.00  0.00     0.084 H 
ENDBRANCH  16  19
ENDBRANCH   1  16
TORSDOF 4
ENDMDL
MODEL 7
REMARK VINA RESULT:      -5.3      2.110      2.987
REMARK  4 active torsions:
REMARK  status: ('A' for Active; 'I' for Inactive)
REMARK    1  A    between atoms: C2_2  and  N14_12 
REMARK    2  A    between atoms: C15_13  and  C5_5 
REMARK    3  A    between atoms: C16_15  and  C15_13 
REMARK    4  A    between atoms: C7_14  and  C16_15 
ROOT
ATOM      1  C15 V15 d          -3.953   2.679  11.193  0.00  0.00    -0.020 C 
ATOM      2  H10 V15 d          -4.613   3.127  10.436  0.00  0.00     0.042 H 
ATOM      3  H11 V15 d          -4.129   3.163  12.165  0.00  0.00     0.042 H 
ENDROOT
BRANCH   1   4
ATOM      4  C5  V15 d          -2.534   2.991  10.789  0.00  0.00     0.059 A 
ATOM      5  C4  V15 d          -1.990   4.254  10.795  0.00  0.00     0.007 A 
ATOM      6  C3  V15 d          -0.640   4.412  10.393  0.00  0.00     0.261 A 
ATOM      7  H2  V15 d          -2.584   5.113  11.103  0.00  0.00     0.095 H 
ATOM      8  N1  V15 d           0.076   3.322   9.996  0.00  0.00    -0.155 N 
ATOM      9  O15 V15 d          -0.120   5.520  10.397  0.00  0.00    -0.268 OA
ATOM     10  C2  V15 d          -0.517   2.087  10.027  0.00  0.00     0.701 A 
ATOM     11  H1  V15 d           1.021   3.422   9.685  0.00  0.00     0.187 HD
ATOM     12  N6  V15 d          -1.763   1.953  10.423  0.00  0.00    -0.070 NA
BRANCH  10  13
ATOM     13  N14 V15 d           0.196   0.957   9.692  0.00  0.00    -0.233 N 
ATOM     14  H8  V15 d           0.205   0.624   8.718  0.00  0.00     0.174 HD
ATOM     15  H9  V15 d           0.721   0.445  10.416  0.00  0.00     0.174 HD
ENDBRANCH  10  13
ENDBRANCH   1   4
BRANCH   1  16
ATOM     16  C16 V15 d          -4.364   1.204  11.338  0.00  0.00    -0.036 C 
ATOM     17  H12 V15 d          -5.030   1.102  12.208  0.00  0.00     0.040 H 
ATOM     18  H13 V15 d          -3.462   0.595  11.494  0.00  0.00     0.040 H 
BRANCH  16  19
ATOM     19  C7  V15 d          -5.084   0.710  10.109  0.00  0.00    -0.058 A 
ATOM     20  C8  V15 d          -5.551  -0.600  10.004  0.00  0.00    -0.077 A 
ATOM     21  C9  V15 d          -6.198  -1.024   8.855  0.00  0.00    -0.082 A 
ATOM     22  H3  V15 d          -5.407  -1.290  10.828  0.00  0.00     0.084 H 
ATOM     23  C10 V15 d          -6.401  -0.127   7.809  0.00  0.00    -0.083 A 
ATOM     24  H4  V15 d          -6.545  -2.047   8.770  0.00  0.00     0.083 H 
ATOM     25  C11 V15 d          -5.950   1.183   7.911  0.00  0.00    -0.082 A 
ATOM     26  H5  V15 d          -6.914  -0.453   6.912  0.00  0.00     0.083 H 
ATOM     27  C12 V15 d          -5.296   1.604   9.063  0.00  0.00    -0.077 A 
ATOM     28  H6  V15 d          -6.108   1.876   7.093  0.00  0.00     0.083 H 
ATOM     29  H7  V15 d          -4.953   2.629   9.147  0.00  0.00     0.084 H 
ENDBRANCH  16  19
ENDBRANCH   1  16
TORSDOF 4
ENDMDL
MODEL 8
REMARK VINA RESULT:      -5.1      2.765      3.791
REMARK  4 active torsions:
REMARK  status: ('A' for Active; 'I' for Inactive)
REMARK    1  A    between atoms: C2_2  and  N14_12 
REMARK    2  A    between atoms: C15_13  and  C5_5 
REMARK    3  A    between atoms: C16_15  and  C15_13 
REMARK    4  A    between atoms: C7_14  and  C16_15 
ROOT
ATOM      1  C15 V15 d          -2.997   0.484   8.147  0.00  0.00    -0.020 C 
ATOM      2  H10 V15 d          -2.610  -0.477   8.518  0.00  0.00     0.042 H 
ATOM      3  H11 V15 d          -2.541   0.710   7.172  0.00  0.00     0.042 H 
ENDROOT
BRANCH   1   4
ATOM      4  C5  V15 d          -2.543   1.551   9.111  0.00  0.00     0.059 A 
ATOM      5  C4  V15 d          -1.881   1.295  10.289  0.00  0.00     0.007 A 
ATOM      6  C3  V15 d          -1.506   2.390  11.107  0.00  0.00     0.261 A 
ATOM      7  H2  V15 d          -1.649   0.273  10.586  0.00  0.00     0.095 H 
ATOM      8  N1  V15 d          -1.824   3.659  10.721  0.00  0.00    -0.155 N 
ATOM      9  O15 V15 d          -0.906   2.200  12.157  0.00  0.00    -0.268 OA
ATOM     10  C2  V15 d          -2.470   3.850   9.528  0.00  0.00     0.701 A 
ATOM     11  H1  V15 d          -1.589   4.439  11.301  0.00  0.00     0.187 HD
ATOM     12  N6  V15 d          -2.792   2.826   8.769  0.00  0.00    -0.070 NA
BRANCH  10  13
ATOM     13  N14 V15 d          -2.751   5.121   9.078  0.00  0.00    -0.233 N 
ATOM     14  H8  V15 d          -2.650   5.926   9.713  0.00  0.00     0.174 HD
ATOM     15  H9  V15 d          -3.063   5.268   8.107  0.00  0.00     0.174 HD
ENDBRANCH  10  13
ENDBRANCH   1   4
BRANCH   1  16
ATOM     16  C16 V15 d          -4.507   0.305   7.912  0.00  0.00    -0.036 C 
ATOM     17  H12 V15 d          -4.673  -0.620   7.343  0.00  0.00     0.040 H 
ATOM     18  H13 V15 d          -4.883   1.163   7.336  0.00  0.00     0.040 H 
BRANCH  16  19
ATOM     19  C7  V15 d          -5.259   0.221   9.216  0.00  0.00    -0.058 A 
ATOM     20  C8  V15 d          -5.401  -0.980   9.909  0.00  0.00    -0.077 A 
ATOM     21  C9  V15 d          -6.109  -1.024  11.100  0.00  0.00    -0.082 A 
ATOM     22  H3  V15 d          -4.955  -1.886   9.514  0.00  0.00     0.084 H 
ATOM     23  C10 V15 d          -6.661   0.146  11.614  0.00  0.00    -0.083 A 
ATOM     24  H4  V15 d          -6.232  -1.963  11.627  0.00  0.00     0.083 H 
ATOM     25  C11 V15 d          -6.513   1.350  10.937  0.00  0.00    -0.082 A 
ATOM     26  H5  V15 d          -7.209   0.118  12.549  0.00  0.00     0.083 H 
ATOM     27  C12 V15 d          -5.806   1.389   9.740  0.00  0.00    -0.077 A 
ATOM     28  H6  V15 d          -6.947   2.256  11.340  0.00  0.00     0.083 H 
ATOM     29  H7  V15 d          -5.682   2.330   9.215  0.00  0.00     0.084 H 
ENDBRANCH  16  19
ENDBRANCH   1  16
TORSDOF 4
ENDMDL
