MODEL 1
REMARK VINA RESULT:     -10.4      0.000      0.000
REMARK  2 active torsions:
REMARK  status: ('A' for Active; 'I' for Inactive)
REMARK    1  A    between atoms: CG_8  and  CA_2 
REMARK    2  A    between atoms: NM_14  and  CG_8 
ROOT
ATOM      1  CG  MOL d          -7.940 -27.528 -13.987  0.00  0.00     0.154 C 
ATOM      2  CH  MOL d          -6.772 -26.681 -14.686  0.00  0.00    -0.029 C 
ATOM      3  CI  MOL d          -7.090 -25.206 -14.491  0.00  0.00    -0.062 C 
ATOM      4  CJ  MOL d          -6.945 -24.810 -13.006  0.00  0.00    -0.065 C 
ATOM      5  CK  MOL d          -7.825 -25.716 -12.123  0.00  0.00    -0.062 C 
ATOM      6  CL  MOL d          -7.633 -27.200 -12.472  0.00  0.00    -0.029 C 
ATOM      7  H8  MOL d          -6.730 -26.916 -15.760  0.00  0.00     0.037 H 
ATOM      8  H9  MOL d          -5.805 -26.921 -14.219  0.00  0.00     0.037 H 
ATOM      9  H10 MOL d          -8.122 -25.013 -14.818  0.00  0.00     0.033 H 
ATOM     10  H11 MOL d          -6.395 -24.604 -15.096  0.00  0.00     0.033 H 
ATOM     11  H12 MOL d          -7.257 -23.763 -12.877  0.00  0.00     0.033 H 
ATOM     12  H13 MOL d          -5.893 -24.919 -12.703  0.00  0.00     0.033 H 
ATOM     13  H14 MOL d          -8.880 -25.447 -12.274  0.00  0.00     0.033 H 
ATOM     14  H15 MOL d          -7.555 -25.559 -11.068  0.00  0.00     0.033 H 
ATOM     15  H16 MOL d          -6.590 -27.477 -12.258  0.00  0.00     0.037 H 
ATOM     16  H17 MOL d          -8.308 -27.797 -11.841  0.00  0.00     0.037 H 
ENDROOT
BRANCH   1  17
ATOM     17  NM  MOL d          -7.611 -29.056 -14.134  0.00  0.00    -0.058 N 
ATOM     18  CN  MOL d          -8.824 -29.951 -14.525  0.00  0.00     0.085 C 
ATOM     19  CO  MOL d          -8.443 -31.437 -14.641  0.00  0.00    -0.042 C 
ATOM     20  H19 MOL d          -9.604 -29.844 -13.756  0.00  0.00     0.076 H 
ATOM     21  H20 MOL d          -9.216 -29.610 -15.495  0.00  0.00     0.076 H 
ATOM     22  CP  MOL d          -7.269 -31.683 -15.589  0.00  0.00    -0.062 C 
ATOM     23  H21 MOL d          -8.170 -31.808 -13.641  0.00  0.00     0.035 H 
ATOM     24  H22 MOL d          -9.316 -31.994 -15.012  0.00  0.00     0.035 H 
ATOM     25  CQ  MOL d          -6.076 -30.821 -15.127  0.00  0.00    -0.042 C 
ATOM     26  H1  MOL d          -6.989 -32.746 -15.565  0.00  0.00     0.033 H 
ATOM     27  H2  MOL d          -7.555 -31.401 -16.613  0.00  0.00     0.033 H 
ATOM     28  CR  MOL d          -6.410 -29.349 -15.048  0.00  0.00     0.085 C 
ATOM     29  H23 MOL d          -5.249 -30.956 -15.840  0.00  0.00     0.035 H 
ATOM     30  H24 MOL d          -5.761 -31.163 -14.130  0.00  0.00     0.035 H 
ATOM     31  H25 MOL d          -5.533 -28.810 -14.659  0.00  0.00     0.076 H 
ATOM     32  H26 MOL d          -6.643 -28.987 -16.060  0.00  0.00     0.076 H 
ATOM     33  H18 MOL d          -7.336 -29.355 -13.212  0.00  0.00     0.281 HD
ENDBRANCH   1  17
BRANCH   1  34
ATOM     34  CA  MOL d          -9.412 -27.160 -14.505  0.00  0.00    -0.022 A 
ATOM     35  CF  MOL d         -10.558 -27.227 -13.611  0.00  0.00    -0.074 A 
ATOM     36  CE  MOL d         -11.873 -26.884 -14.035  0.00  0.00    -0.082 A 
ATOM     37  H7  MOL d         -10.406 -27.548 -12.587  0.00  0.00     0.084 H 
ATOM     38  CD  MOL d         -12.122 -26.458 -15.326  0.00  0.00    -0.083 A 
ATOM     39  H6  MOL d         -12.695 -26.959 -13.332  0.00  0.00     0.083 H 
ATOM     40  CC  MOL d         -10.998 -26.387 -16.244  0.00  0.00    -0.082 A 
ATOM     41  H5  MOL d         -13.122 -26.186 -15.643  0.00  0.00     0.083 H 
ATOM     42  CB  MOL d          -9.662 -26.733 -15.836  0.00  0.00    -0.074 A 
ATOM     43  H4  MOL d         -11.170 -26.065 -17.265  0.00  0.00     0.083 H 
ATOM     44  H3  MOL d          -8.845 -26.668 -16.546  0.00  0.00     0.084 H 
ENDBRANCH   1  34
TORSDOF 2
ENDMDL
