MODEL 1
REMARK VINA RESULT:     -10.3      0.000      0.000
REMARK  2 active torsions:
REMARK  status: ('A' for Active; 'I' for Inactive)
REMARK    1  A    between atoms: CG_8  and  CA_2 
REMARK    2  A    between atoms: NM_14  and  CG_8 
ROOT
ATOM      1  CG  MOL d          -7.889 -27.515 -13.928  0.00  0.00     0.154 C 
ATOM      2  CH  MOL d          -6.716 -26.684 -14.639  0.00  0.00    -0.029 C 
ATOM      3  CI  MOL d          -7.010 -25.205 -14.438  0.00  0.00    -0.062 C 
ATOM      4  CJ  MOL d          -6.842 -24.814 -12.954  0.00  0.00    -0.065 C 
ATOM      5  CK  MOL d          -7.725 -25.708 -12.062  0.00  0.00    -0.062 C 
ATOM      6  CL  MOL d          -7.559 -27.194 -12.416  0.00  0.00    -0.029 C 
ATOM      7  H8  MOL d          -6.690 -26.917 -15.714  0.00  0.00     0.037 H 
ATOM      8  H9  MOL d          -5.748 -26.938 -14.184  0.00  0.00     0.037 H 
ATOM      9  H10 MOL d          -8.043 -24.995 -14.753  0.00  0.00     0.033 H 
ATOM     10  H11 MOL d          -6.314 -24.611 -15.050  0.00  0.00     0.033 H 
ATOM     11  H12 MOL d          -7.138 -23.762 -12.820  0.00  0.00     0.033 H 
ATOM     12  H13 MOL d          -5.789 -24.938 -12.663  0.00  0.00     0.033 H 
ATOM     13  H14 MOL d          -8.778 -25.423 -12.201  0.00  0.00     0.033 H 
ATOM     14  H15 MOL d          -7.441 -25.557 -11.011  0.00  0.00     0.033 H 
ATOM     15  H16 MOL d          -6.518 -27.487 -12.215  0.00  0.00     0.037 H 
ATOM     16  H17 MOL d          -8.236 -27.782 -11.778  0.00  0.00     0.037 H 
ENDROOT
BRANCH   1  17
ATOM     17  NM  MOL d          -7.583 -29.047 -14.082  0.00  0.00    -0.058 N 
ATOM     18  CN  MOL d          -8.823 -29.930 -14.413  0.00  0.00     0.085 C 
ATOM     19  CO  MOL d          -8.464 -31.421 -14.538  0.00  0.00    -0.042 C 
ATOM     20  H19 MOL d          -9.566 -29.810 -13.611  0.00  0.00     0.076 H 
ATOM     21  H20 MOL d          -9.254 -29.589 -15.367  0.00  0.00     0.076 H 
ATOM     22  CP  MOL d          -7.337 -31.685 -15.536  0.00  0.00    -0.062 C 
ATOM     23  H21 MOL d          -8.151 -31.790 -13.550  0.00  0.00     0.035 H 
ATOM     24  H22 MOL d          -9.359 -31.970 -14.866  0.00  0.00     0.035 H 
ATOM     25  CQ  MOL d          -6.114 -30.834 -15.133  0.00  0.00    -0.042 C 
ATOM     26  H1  MOL d          -7.068 -32.751 -15.519  0.00  0.00     0.033 H 
ATOM     27  H2  MOL d          -7.665 -31.405 -16.548  0.00  0.00     0.033 H 
ATOM     28  CR  MOL d          -6.428 -29.358 -15.047  0.00  0.00     0.085 C 
ATOM     29  H23 MOL d          -5.321 -30.982 -15.881  0.00  0.00     0.035 H 
ATOM     30  H24 MOL d          -5.759 -31.175 -14.149  0.00  0.00     0.035 H 
ATOM     31  H25 MOL d          -5.529 -28.828 -14.701  0.00  0.00     0.076 H 
ATOM     32  H26 MOL d          -6.702 -28.999 -16.050  0.00  0.00     0.076 H 
ATOM     33  H18 MOL d          -7.271 -29.345 -13.171  0.00  0.00     0.281 HD
ENDBRANCH   1  17
BRANCH   1  34
ATOM     34  CA  MOL d          -9.361 -27.124 -14.428  0.00  0.00    -0.022 A 
ATOM     35  CF  MOL d          -9.600 -26.715 -15.804  0.00  0.00    -0.074 A 
ATOM     36  CE  MOL d         -10.899 -26.384 -16.283  0.00  0.00    -0.082 A 
ATOM     37  H7  MOL d          -8.761 -26.662 -16.488  0.00  0.00     0.084 H 
ATOM     38  CD  MOL d         -12.005 -26.446 -15.456  0.00  0.00    -0.083 A 
ATOM     39  H6  MOL d         -11.023 -26.078 -17.315  0.00  0.00     0.083 H 
ATOM     40  CC  MOL d         -11.797 -26.844 -14.075  0.00  0.00    -0.082 A 
ATOM     41  H5  MOL d         -12.995 -26.205 -15.826  0.00  0.00     0.083 H 
ATOM     42  CB  MOL d         -10.491 -27.179 -13.571  0.00  0.00    -0.074 A 
ATOM     43  H4  MOL d         -12.649 -26.890 -13.405  0.00  0.00     0.083 H 
ATOM     44  H3  MOL d         -10.371 -27.474 -12.535  0.00  0.00     0.084 H 
ENDBRANCH   1  34
TORSDOF 2
ENDMDL
MODEL 2
REMARK VINA RESULT:      -9.4      1.065      3.823
REMARK  2 active torsions:
REMARK  status: ('A' for Active; 'I' for Inactive)
REMARK    1  A    between atoms: CG_8  and  CA_2 
REMARK    2  A    between atoms: NM_14  and  CG_8 
ROOT
ATOM      1  CG  MOL d          -9.730 -28.149 -14.387  0.00  0.00     0.154 C 
ATOM      2  CH  MOL d         -11.143 -27.939 -13.659  0.00  0.00    -0.029 C 
ATOM      3  CI  MOL d         -11.625 -26.533 -13.980  0.00  0.00    -0.062 C 
ATOM      4  CJ  MOL d         -12.000 -26.414 -15.473  0.00  0.00    -0.065 C 
ATOM      5  CK  MOL d         -10.811 -26.837 -16.358  0.00  0.00    -0.062 C 
ATOM      6  CL  MOL d         -10.212 -28.172 -15.893  0.00  0.00    -0.029 C 
ATOM      7  H8  MOL d         -11.025 -28.055 -12.571  0.00  0.00     0.037 H 
ATOM      8  H9  MOL d         -11.869 -28.678 -14.030  0.00  0.00     0.037 H 
ATOM      9  H10 MOL d         -10.824 -25.815 -13.750  0.00  0.00     0.033 H 
ATOM     10  H11 MOL d         -12.510 -26.305 -13.365  0.00  0.00     0.033 H 
ATOM     11  H12 MOL d         -12.267 -25.370 -15.698  0.00  0.00     0.033 H 
ATOM     12  H13 MOL d         -12.860 -27.066 -15.684  0.00  0.00     0.033 H 
ATOM     13  H14 MOL d         -10.035 -26.059 -16.309  0.00  0.00     0.033 H 
ATOM     14  H15 MOL d         -11.158 -26.943 -17.396  0.00  0.00     0.033 H 
ATOM     15  H16 MOL d         -10.975 -28.956 -16.004  0.00  0.00     0.037 H 
ATOM     16  H17 MOL d          -9.348 -28.408 -16.532  0.00  0.00     0.037 H 
ENDROOT
BRANCH   1  17
ATOM     17  NM  MOL d          -9.233 -29.612 -14.109  0.00  0.00    -0.058 N 
ATOM     18  CN  MOL d         -10.297 -30.721 -14.358  0.00  0.00     0.085 C 
ATOM     19  CO  MOL d          -9.757 -32.130 -14.056  0.00  0.00    -0.042 C 
ATOM     20  H19 MOL d         -11.165 -30.529 -13.710  0.00  0.00     0.076 H 
ATOM     21  H20 MOL d         -10.610 -30.681 -15.412  0.00  0.00     0.076 H 
ATOM     22  CP  MOL d          -8.464 -32.449 -14.807  0.00  0.00    -0.062 C 
ATOM     23  H21 MOL d          -9.562 -32.207 -12.976  0.00  0.00     0.035 H 
ATOM     24  H22 MOL d         -10.521 -32.867 -14.343  0.00  0.00     0.035 H 
ATOM     25  CQ  MOL d          -7.425 -31.357 -14.484  0.00  0.00    -0.042 C 
ATOM     26  H1  MOL d          -8.082 -33.430 -14.488  0.00  0.00     0.033 H 
ATOM     27  H2  MOL d          -8.659 -32.466 -15.890  0.00  0.00     0.033 H 
ATOM     28  CR  MOL d          -7.913 -29.965 -14.814  0.00  0.00     0.085 C 
ATOM     29  H23 MOL d          -6.512 -31.556 -15.067  0.00  0.00     0.035 H 
ATOM     30  H24 MOL d          -7.191 -31.401 -13.410  0.00  0.00     0.035 H 
ATOM     31  H25 MOL d          -7.145 -29.241 -14.504  0.00  0.00     0.076 H 
ATOM     32  H26 MOL d          -8.066 -29.895 -15.900  0.00  0.00     0.076 H 
ATOM     33  H18 MOL d          -9.036 -29.638 -13.121  0.00  0.00     0.281 HD
ENDBRANCH   1  17
BRANCH   1  34
ATOM     34  CA  MOL d          -8.634 -27.041 -14.014  0.00  0.00    -0.022 A 
ATOM     35  CF  MOL d          -8.207 -26.844 -12.637  0.00  0.00    -0.074 A 
ATOM     36  CE  MOL d          -7.219 -25.884 -12.278  0.00  0.00    -0.082 A 
ATOM     37  H7  MOL d          -8.656 -27.449 -11.858  0.00  0.00     0.084 H 
ATOM     38  CD  MOL d          -6.607 -25.093 -13.232  0.00  0.00    -0.083 A 
ATOM     39  H6  MOL d          -6.942 -25.770 -11.236  0.00  0.00     0.083 H 
ATOM     40  CC  MOL d          -7.017 -25.262 -14.616  0.00  0.00    -0.082 A 
ATOM     41  H5  MOL d          -5.847 -24.372 -12.958  0.00  0.00     0.083 H 
ATOM     42  CB  MOL d          -8.017 -26.224 -14.998  0.00  0.00    -0.074 A 
ATOM     43  H4  MOL d          -6.558 -24.646 -15.381  0.00  0.00     0.083 H 
ATOM     44  H3  MOL d          -8.299 -26.326 -16.040  0.00  0.00     0.084 H 
ENDBRANCH   1  34
TORSDOF 2
ENDMDL
MODEL 3
REMARK VINA RESULT:      -8.5      1.124      4.670
REMARK  2 active torsions:
REMARK  status: ('A' for Active; 'I' for Inactive)
REMARK    1  A    between atoms: CG_8  and  CA_2 
REMARK    2  A    between atoms: NM_14  and  CG_8 
ROOT
ATOM      1  CG  MOL d          -9.226 -27.219 -14.557  0.00  0.00     0.154 C 
ATOM      2  CH  MOL d          -9.582 -26.537 -15.964  0.00  0.00    -0.029 C 
ATOM      3  CI  MOL d         -10.683 -27.361 -16.613  0.00  0.00    -0.062 C 
ATOM      4  CJ  MOL d         -12.005 -27.214 -15.829  0.00  0.00    -0.065 C 
ATOM      5  CK  MOL d         -11.794 -27.589 -14.349  0.00  0.00    -0.062 C 
ATOM      6  CL  MOL d         -10.555 -26.894 -13.765  0.00  0.00    -0.029 C 
ATOM      7  H8  MOL d          -8.692 -26.526 -16.611  0.00  0.00     0.037 H 
ATOM      8  H9  MOL d          -9.930 -25.506 -15.803  0.00  0.00     0.037 H 
ATOM      9  H10 MOL d         -10.385 -28.420 -16.623  0.00  0.00     0.033 H 
ATOM     10  H11 MOL d         -10.835 -27.013 -17.646  0.00  0.00     0.033 H 
ATOM     11  H12 MOL d         -12.763 -27.881 -16.267  0.00  0.00     0.033 H 
ATOM     12  H13 MOL d         -12.351 -26.173 -15.893  0.00  0.00     0.033 H 
ATOM     13  H14 MOL d         -11.663 -28.679 -14.271  0.00  0.00     0.033 H 
ATOM     14  H15 MOL d         -12.679 -27.285 -13.772  0.00  0.00     0.033 H 
ATOM     15  H16 MOL d         -10.720 -25.807 -13.789  0.00  0.00     0.037 H 
ATOM     16  H17 MOL d         -10.429 -27.223 -12.722  0.00  0.00     0.037 H 
ENDROOT
BRANCH   1  17
ATOM     17  NM  MOL d          -8.122 -26.359 -13.846  0.00  0.00    -0.058 N 
ATOM     18  CN  MOL d          -7.354 -27.094 -12.708  0.00  0.00     0.085 C 
ATOM     19  CO  MOL d          -6.297 -26.198 -12.040  0.00  0.00    -0.042 C 
ATOM     20  H19 MOL d          -8.078 -27.416 -11.944  0.00  0.00     0.076 H 
ATOM     21  H20 MOL d          -6.853 -27.976 -13.133  0.00  0.00     0.076 H 
ATOM     22  CP  MOL d          -5.315 -25.584 -13.038  0.00  0.00    -0.062 C 
ATOM     23  H21 MOL d          -6.812 -25.384 -11.509  0.00  0.00     0.035 H 
ATOM     24  H22 MOL d          -5.730 -26.804 -11.318  0.00  0.00     0.035 H 
ATOM     25  CQ  MOL d          -6.118 -24.819 -14.111  0.00  0.00    -0.042 C 
ATOM     26  H1  MOL d          -4.640 -24.891 -12.516  0.00  0.00     0.033 H 
ATOM     27  H2  MOL d          -4.725 -26.381 -13.515  0.00  0.00     0.033 H 
ATOM     28  CR  MOL d          -7.134 -25.689 -14.815  0.00  0.00     0.085 C 
ATOM     29  H23 MOL d          -5.415 -24.423 -14.859  0.00  0.00     0.035 H 
ATOM     30  H24 MOL d          -6.646 -23.985 -13.626  0.00  0.00     0.035 H 
ATOM     31  H25 MOL d          -7.703 -25.064 -15.519  0.00  0.00     0.076 H 
ATOM     32  H26 MOL d          -6.600 -26.474 -15.370  0.00  0.00     0.076 H 
ATOM     33  H18 MOL d          -8.623 -25.608 -13.398  0.00  0.00     0.281 HD
ENDBRANCH   1  17
BRANCH   1  34
ATOM     34  CA  MOL d          -8.829 -28.768 -14.666  0.00  0.00    -0.022 A 
ATOM     35  CF  MOL d          -7.490 -29.172 -15.065  0.00  0.00    -0.074 A 
ATOM     36  CE  MOL d          -7.101 -30.539 -15.148  0.00  0.00    -0.082 A 
ATOM     37  H7  MOL d          -6.762 -28.406 -15.307  0.00  0.00     0.084 H 
ATOM     38  CD  MOL d          -7.986 -31.556 -14.841  0.00  0.00    -0.083 A 
ATOM     39  H6  MOL d          -6.093 -30.787 -15.459  0.00  0.00     0.083 H 
ATOM     40  CC  MOL d          -9.334 -31.184 -14.445  0.00  0.00    -0.082 A 
ATOM     41  H5  MOL d          -7.685 -32.595 -14.893  0.00  0.00     0.083 H 
ATOM     42  CB  MOL d          -9.746 -29.808 -14.358  0.00  0.00    -0.074 A 
ATOM     43  H4  MOL d         -10.048 -31.965 -14.208  0.00  0.00     0.083 H 
ATOM     44  H3  MOL d         -10.759 -29.565 -14.058  0.00  0.00     0.084 H 
ENDBRANCH   1  34
TORSDOF 2
ENDMDL
MODEL 4
REMARK VINA RESULT:      -8.3      1.237      4.652
REMARK  2 active torsions:
REMARK  status: ('A' for Active; 'I' for Inactive)
REMARK    1  A    between atoms: CG_8  and  CA_2 
REMARK    2  A    between atoms: NM_14  and  CG_8 
ROOT
ATOM      1  CG  MOL d          -9.416 -27.572 -14.438  0.00  0.00     0.154 C 
ATOM      2  CH  MOL d          -9.492 -26.892 -15.888  0.00  0.00    -0.029 C 
ATOM      3  CI  MOL d         -10.796 -27.331 -16.537  0.00  0.00    -0.062 C 
ATOM      4  CJ  MOL d         -12.004 -26.701 -15.810  0.00  0.00    -0.065 C 
ATOM      5  CK  MOL d         -11.960 -27.040 -14.307  0.00  0.00    -0.062 C 
ATOM      6  CL  MOL d         -10.570 -26.773 -13.711  0.00  0.00    -0.029 C 
ATOM      7  H8  MOL d          -8.640 -27.220 -16.501  0.00  0.00     0.037 H 
ATOM      8  H9  MOL d          -9.474 -25.796 -15.789  0.00  0.00     0.037 H 
ATOM      9  H10 MOL d         -10.874 -28.426 -16.486  0.00  0.00     0.033 H 
ATOM     10  H11 MOL d         -10.801 -27.011 -17.590  0.00  0.00     0.033 H 
ATOM     11  H12 MOL d         -12.935 -27.096 -16.244  0.00  0.00     0.033 H 
ATOM     12  H13 MOL d         -11.975 -25.609 -15.937  0.00  0.00     0.033 H 
ATOM     13  H14 MOL d         -12.209 -28.103 -14.173  0.00  0.00     0.033 H 
ATOM     14  H15 MOL d         -12.701 -26.422 -13.779  0.00  0.00     0.033 H 
ATOM     15  H16 MOL d         -10.356 -25.697 -13.793  0.00  0.00     0.037 H 
ATOM     16  H17 MOL d         -10.584 -27.065 -12.651  0.00  0.00     0.037 H 
ENDROOT
BRANCH   1  17
ATOM     17  NM  MOL d          -8.099 -27.097 -13.727  0.00  0.00    -0.058 N 
ATOM     18  CN  MOL d          -6.918 -26.775 -14.690  0.00  0.00     0.085 C 
ATOM     19  CO  MOL d          -5.653 -26.329 -13.936  0.00  0.00    -0.042 C 
ATOM     20  H19 MOL d          -6.682 -27.678 -15.273  0.00  0.00     0.076 H 
ATOM     21  H20 MOL d          -7.227 -25.969 -15.371  0.00  0.00     0.076 H 
ATOM     22  CP  MOL d          -5.904 -25.157 -12.987  0.00  0.00    -0.062 C 
ATOM     23  H21 MOL d          -5.275 -27.180 -13.351  0.00  0.00     0.035 H 
ATOM     24  H22 MOL d          -4.895 -26.026 -14.673  0.00  0.00     0.035 H 
ATOM     25  CQ  MOL d          -7.040 -25.544 -12.018  0.00  0.00    -0.042 C 
ATOM     26  H1  MOL d          -4.989 -24.939 -12.417  0.00  0.00     0.033 H 
ATOM     27  H2  MOL d          -6.197 -24.268 -13.564  0.00  0.00     0.033 H 
ATOM     28  CR  MOL d          -8.310 -25.944 -12.732  0.00  0.00     0.085 C 
ATOM     29  H23 MOL d          -7.257 -24.682 -11.369  0.00  0.00     0.035 H 
ATOM     30  H24 MOL d          -6.702 -26.391 -11.401  0.00  0.00     0.035 H 
ATOM     31  H25 MOL d          -9.050 -26.260 -11.981  0.00  0.00     0.076 H 
ATOM     32  H26 MOL d          -8.694 -25.072 -13.281  0.00  0.00     0.076 H 
ATOM     33  H18 MOL d          -7.798 -27.886 -13.178  0.00  0.00     0.281 HD
ENDBRANCH   1  17
BRANCH   1  34
ATOM     34  CA  MOL d          -9.567 -29.168 -14.458  0.00  0.00    -0.022 A 
ATOM     35  CF  MOL d          -8.403 -30.028 -14.604  0.00  0.00    -0.074 A 
ATOM     36  CE  MOL d          -8.503 -31.448 -14.602  0.00  0.00    -0.082 A 
ATOM     37  H7  MOL d          -7.426 -29.573 -14.718  0.00  0.00     0.084 H 
ATOM     38  CD  MOL d          -9.722 -32.081 -14.451  0.00  0.00    -0.083 A 
ATOM     39  H6  MOL d          -7.606 -32.044 -14.723  0.00  0.00     0.083 H 
ATOM     40  CC  MOL d         -10.904 -31.248 -14.309  0.00  0.00    -0.082 A 
ATOM     41  H5  MOL d          -9.794 -33.162 -14.438  0.00  0.00     0.083 H 
ATOM     42  CB  MOL d         -10.824 -29.811 -14.312  0.00  0.00    -0.074 A 
ATOM     43  H4  MOL d         -11.873 -31.722 -14.198  0.00  0.00     0.083 H 
ATOM     44  H3  MOL d         -11.726 -29.219 -14.202  0.00  0.00     0.084 H 
ENDBRANCH   1  34
TORSDOF 2
ENDMDL
MODEL 5
REMARK VINA RESULT:      -7.5      1.258      4.510
REMARK  2 active torsions:
REMARK  status: ('A' for Active; 'I' for Inactive)
REMARK    1  A    between atoms: CG_8  and  CA_2 
REMARK    2  A    between atoms: NM_14  and  CG_8 
ROOT
ATOM      1  CG  MOL d          -8.114 -29.069 -14.081  0.00  0.00     0.154 C 
ATOM      2  CH  MOL d          -8.302 -30.341 -13.123  0.00  0.00    -0.029 C 
ATOM      3  CI  MOL d          -8.974 -31.437 -13.936  0.00  0.00    -0.062 C 
ATOM      4  CJ  MOL d          -8.016 -31.976 -15.020  0.00  0.00    -0.065 C 
ATOM      5  CK  MOL d          -7.509 -30.823 -15.907  0.00  0.00    -0.062 C 
ATOM      6  CL  MOL d          -7.013 -29.640 -15.063  0.00  0.00    -0.029 C 
ATOM      7  H8  MOL d          -8.933 -30.072 -12.263  0.00  0.00     0.037 H 
ATOM      8  H9  MOL d          -7.321 -30.688 -12.765  0.00  0.00     0.037 H 
ATOM      9  H10 MOL d          -9.874 -31.029 -14.419  0.00  0.00     0.033 H 
ATOM     10  H11 MOL d          -9.261 -32.261 -13.264  0.00  0.00     0.033 H 
ATOM     11  H12 MOL d          -8.550 -32.708 -15.645  0.00  0.00     0.033 H 
ATOM     12  H13 MOL d          -7.158 -32.465 -14.535  0.00  0.00     0.033 H 
ATOM     13  H14 MOL d          -8.332 -30.481 -16.553  0.00  0.00     0.033 H 
ATOM     14  H15 MOL d          -6.681 -31.188 -16.531  0.00  0.00     0.033 H 
ATOM     15  H16 MOL d          -6.152 -29.973 -14.466  0.00  0.00     0.037 H 
ATOM     16  H17 MOL d          -6.699 -28.833 -15.742  0.00  0.00     0.037 H 
ENDROOT
BRANCH   1  17
ATOM     17  NM  MOL d          -7.378 -27.938 -13.278  0.00  0.00    -0.058 N 
ATOM     18  CN  MOL d          -6.067 -27.417 -13.937  0.00  0.00     0.085 C 
ATOM     19  CO  MOL d          -5.386 -26.322 -13.099  0.00  0.00    -0.042 C 
ATOM     20  H19 MOL d          -5.370 -28.260 -14.052  0.00  0.00     0.076 H 
ATOM     21  H20 MOL d          -6.310 -27.004 -14.928  0.00  0.00     0.076 H 
ATOM     22  CP  MOL d          -6.317 -25.156 -12.764  0.00  0.00    -0.062 C 
ATOM     23  H21 MOL d          -5.032 -26.769 -12.158  0.00  0.00     0.035 H 
ATOM     24  H22 MOL d          -4.526 -25.932 -13.664  0.00  0.00     0.035 H 
ATOM     25  CQ  MOL d          -7.571 -25.716 -12.062  0.00  0.00    -0.042 C 
ATOM     26  H1  MOL d          -5.802 -24.451 -12.096  0.00  0.00     0.033 H 
ATOM     27  H2  MOL d          -6.610 -24.639 -13.689  0.00  0.00     0.033 H 
ATOM     28  CR  MOL d          -8.287 -26.763 -12.885  0.00  0.00     0.085 C 
ATOM     29  H23 MOL d          -8.266 -24.884 -11.869  0.00  0.00     0.035 H 
ATOM     30  H24 MOL d          -7.267 -26.168 -11.106  0.00  0.00     0.035 H 
ATOM     31  H25 MOL d          -9.132 -27.153 -12.298  0.00  0.00     0.076 H 
ATOM     32  H26 MOL d          -8.666 -26.290 -13.802  0.00  0.00     0.076 H 
ATOM     33  H18 MOL d          -7.096 -28.372 -12.413  0.00  0.00     0.281 HD
ENDBRANCH   1  17
BRANCH   1  34
ATOM     34  CA  MOL d          -9.472 -28.560 -14.764  0.00  0.00    -0.022 A 
ATOM     35  CF  MOL d         -10.766 -29.050 -14.312  0.00  0.00    -0.074 A 
ATOM     36  CE  MOL d         -11.990 -28.600 -14.883  0.00  0.00    -0.082 A 
ATOM     37  H7  MOL d         -10.799 -29.782 -13.514  0.00  0.00     0.084 H 
ATOM     38  CD  MOL d         -12.005 -27.660 -15.897  0.00  0.00    -0.083 A 
ATOM     39  H6  MOL d         -12.927 -29.002 -14.516  0.00  0.00     0.083 H 
ATOM     40  CC  MOL d         -10.729 -27.158 -16.374  0.00  0.00    -0.082 A 
ATOM     41  H5  MOL d         -12.939 -27.311 -16.321  0.00  0.00     0.083 H 
ATOM     42  CB  MOL d          -9.480 -27.603 -15.812  0.00  0.00    -0.074 A 
ATOM     43  H4  MOL d         -10.716 -26.427 -17.175  0.00  0.00     0.083 H 
ATOM     44  H3  MOL d          -8.545 -27.206 -16.190  0.00  0.00     0.084 H 
ENDBRANCH   1  34
TORSDOF 2
ENDMDL
MODEL 6
REMARK VINA RESULT:      -7.3      1.594      3.999
REMARK  2 active torsions:
REMARK  status: ('A' for Active; 'I' for Inactive)
REMARK    1  A    between atoms: CG_8  and  CA_2 
REMARK    2  A    between atoms: NM_14  and  CG_8 
ROOT
ATOM      1  CG  MOL d         -10.273 -28.153 -14.302  0.00  0.00     0.154 C 
ATOM      2  CH  MOL d         -11.638 -27.454 -13.834  0.00  0.00    -0.029 C 
ATOM      3  CI  MOL d         -11.585 -25.997 -14.268  0.00  0.00    -0.062 C 
ATOM      4  CJ  MOL d         -11.665 -25.885 -15.806  0.00  0.00    -0.065 C 
ATOM      5  CK  MOL d         -10.554 -26.728 -16.462  0.00  0.00    -0.062 C 
ATOM      6  CL  MOL d         -10.496 -28.143 -15.867  0.00  0.00    -0.029 C 
ATOM      7  H8  MOL d         -11.734 -27.515 -12.739  0.00  0.00     0.037 H 
ATOM      8  H9  MOL d         -12.496 -27.955 -14.306  0.00  0.00     0.037 H 
ATOM      9  H10 MOL d         -10.641 -25.551 -13.921  0.00  0.00     0.033 H 
ATOM     10  H11 MOL d         -12.432 -25.456 -13.821  0.00  0.00     0.033 H 
ATOM     11  H12 MOL d         -11.543 -24.832 -16.100  0.00  0.00     0.033 H 
ATOM     12  H13 MOL d         -12.645 -26.250 -16.145  0.00  0.00     0.033 H 
ATOM     13  H14 MOL d          -9.586 -26.232 -16.299  0.00  0.00     0.033 H 
ATOM     14  H15 MOL d         -10.751 -26.802 -17.541  0.00  0.00     0.033 H 
ATOM     15  H16 MOL d         -11.445 -28.654 -16.088  0.00  0.00     0.037 H 
ATOM     16  H17 MOL d          -9.666 -28.687 -16.342  0.00  0.00     0.037 H 
ENDROOT
BRANCH   1  17
ATOM     17  NM  MOL d         -10.323 -29.671 -13.906  0.00  0.00    -0.058 N 
ATOM     18  CN  MOL d         -11.629 -30.411 -14.320  0.00  0.00     0.085 C 
ATOM     19  CO  MOL d         -11.626 -31.889 -13.894  0.00  0.00    -0.042 C 
ATOM     20  H19 MOL d         -12.485 -29.908 -13.846  0.00  0.00     0.076 H 
ATOM     21  H20 MOL d         -11.733 -30.359 -15.414  0.00  0.00     0.076 H 
ATOM     22  CP  MOL d         -10.398 -32.653 -14.390  0.00  0.00    -0.062 C 
ATOM     23  H21 MOL d         -11.648 -31.937 -12.795  0.00  0.00     0.035 H 
ATOM     24  H22 MOL d         -12.526 -32.373 -14.300  0.00  0.00     0.035 H 
ATOM     25  CQ  MOL d          -9.132 -31.916 -13.907  0.00  0.00    -0.042 C 
ATOM     26  H1  MOL d         -10.408 -33.675 -13.985  0.00  0.00     0.033 H 
ATOM     27  H2  MOL d         -10.405 -32.693 -15.489  0.00  0.00     0.033 H 
ATOM     28  CR  MOL d          -9.088 -30.471 -14.350  0.00  0.00     0.085 C 
ATOM     29  H23 MOL d          -8.248 -32.434 -14.309  0.00  0.00     0.035 H 
ATOM     30  H24 MOL d          -9.106 -31.946 -12.807  0.00  0.00     0.035 H 
ATOM     31  H25 MOL d          -8.191 -30.000 -13.922  0.00  0.00     0.076 H 
ATOM     32  H26 MOL d          -9.028 -30.443 -15.448  0.00  0.00     0.076 H 
ATOM     33  H18 MOL d         -10.311 -29.680 -12.898  0.00  0.00     0.281 HD
ENDBRANCH   1  17
BRANCH   1  34
ATOM     34  CA  MOL d          -8.950 -27.418 -13.773  0.00  0.00    -0.022 A 
ATOM     35  CF  MOL d          -7.664 -27.635 -14.420  0.00  0.00    -0.074 A 
ATOM     36  CE  MOL d          -6.476 -26.980 -13.988  0.00  0.00    -0.082 A 
ATOM     37  H7  MOL d          -7.609 -28.318 -15.259  0.00  0.00     0.084 H 
ATOM     38  CD  MOL d          -6.492 -26.091 -12.929  0.00  0.00    -0.083 A 
ATOM     39  H6  MOL d          -5.542 -27.182 -14.498  0.00  0.00     0.083 H 
ATOM     40  CC  MOL d          -7.760 -25.860 -12.259  0.00  0.00    -0.082 A 
ATOM     41  H5  MOL d          -5.589 -25.585 -12.610  0.00  0.00     0.083 H 
ATOM     42  CB  MOL d          -8.971 -26.515 -12.678  0.00  0.00    -0.074 A 
ATOM     43  H4  MOL d          -7.795 -25.174 -11.420  0.00  0.00     0.083 H 
ATOM     44  H3  MOL d          -9.901 -26.318 -12.157  0.00  0.00     0.084 H 
ENDBRANCH   1  34
TORSDOF 2
ENDMDL
