MODEL 1
REMARK VINA RESULT:      -7.9      0.000      0.000
REMARK  4 active torsions:
REMARK  status: ('A' for Active; 'I' for Inactive)
REMARK    1  A    between atoms: CA_2  and  N_1 
REMARK    2  A    between atoms: CA_2  and  CB_5 
REMARK    3  A    between atoms: CA_2  and  C_3 
REMARK    4  A    between atoms: CB_5  and  CG_6 
ROOT
ATOM      1  CG  TRP d         -27.490  -4.787 -21.891  0.00  0.00    -0.028 A 
ATOM      2  CD1 TRP d         -28.052  -5.740 -22.699  0.00  0.00    -0.015 A 
ATOM      3  CD2 TRP d         -28.342  -3.636 -21.976  0.00  0.00    -0.002 A 
ATOM      4  NE1 TRP d         -29.202  -5.256 -23.273  0.00  0.00    -0.365 N 
ATOM      5  CE2 TRP d         -29.412  -3.972 -22.845  0.00  0.00     0.042 A 
ATOM      6  CE3 TRP d         -28.315  -2.364 -21.388  0.00  0.00    -0.070 A 
ATOM      7  CZ2 TRP d         -30.439  -3.079 -23.158  0.00  0.00    -0.056 A 
ATOM      8  CZ3 TRP d         -29.340  -1.468 -21.698  0.00  0.00    -0.082 A 
ATOM      9  CH2 TRP d         -30.398  -1.839 -22.577  0.00  0.00    -0.081 A 
ATOM     10  H7  TRP d         -27.646  -6.737 -22.862  0.00  0.00     0.112 H 
ATOM     11  H8  TRP d         -29.810  -5.776 -23.922  0.00  0.00     0.165 HD
ATOM     12  H9  TRP d         -27.518  -2.082 -20.710  0.00  0.00     0.084 H 
ATOM     13  H10 TRP d         -31.239  -3.357 -23.835  0.00  0.00     0.086 H 
ATOM     14  H11 TRP d         -29.331  -0.475 -21.262  0.00  0.00     0.083 H 
ATOM     15  H12 TRP d         -31.185  -1.126 -22.790  0.00  0.00     0.083 H 
ENDROOT
BRANCH   1  16
ATOM     16  CB  TRP d         -26.258  -4.931 -21.069  0.00  0.00    -0.003 C 
ATOM     17  H5  TRP d         -26.006  -6.000 -21.017  0.00  0.00     0.044 H 
ATOM     18  H6  TRP d         -25.446  -4.387 -21.575  0.00  0.00     0.044 H 
BRANCH  16  19
ATOM     19  CA  TRP d         -26.361  -4.397 -19.630  0.00  0.00     0.186 C 
ATOM     20  H4  TRP d         -27.224  -3.717 -19.560  0.00  0.00     0.101 H 
BRANCH  19  21
ATOM     21  N   TRP d         -25.162  -3.647 -19.293  0.00  0.00    -0.065 N 
ATOM     22  H1  TRP d         -25.416  -2.829 -18.763  0.00  0.00     0.275 HD
ATOM     23  H2  TRP d         -24.692  -3.366 -20.140  0.00  0.00     0.275 HD
ATOM     24  H3  TRP d         -24.547  -4.226 -18.744  0.00  0.00     0.275 HD
ENDBRANCH  19  21
BRANCH  19  25
ATOM     25  C   TRP d         -26.598  -5.583 -18.687  0.00  0.00     0.204 C 
ATOM     26  O   TRP d         -27.638  -6.233 -18.709  0.00  0.00    -0.646 OA
ATOM     27  OXT TRP d         -25.738  -5.943 -17.882  0.00  0.00    -0.646 OA
ENDBRANCH  19  25
ENDBRANCH  16  19
ENDBRANCH   1  16
TORSDOF 4
ENDMDL
MODEL 2
REMARK VINA RESULT:      -7.8      1.622      1.929
REMARK  4 active torsions:
REMARK  status: ('A' for Active; 'I' for Inactive)
REMARK    1  A    between atoms: CA_2  and  N_1 
REMARK    2  A    between atoms: CA_2  and  CB_5 
REMARK    3  A    between atoms: CA_2  and  C_3 
REMARK    4  A    between atoms: CB_5  and  CG_6 
ROOT
ATOM      1  CG  TRP d         -27.314  -4.476 -21.312  0.00  0.00    -0.028 A 
ATOM      2  CD1 TRP d         -26.163  -4.212 -22.005  0.00  0.00    -0.015 A 
ATOM      3  CD2 TRP d         -28.315  -3.598 -21.847  0.00  0.00    -0.002 A 
ATOM      4  NE1 TRP d         -26.387  -3.233 -22.942  0.00  0.00    -0.365 N 
ATOM      5  CE2 TRP d         -27.698  -2.840 -22.876  0.00  0.00     0.042 A 
ATOM      6  CE3 TRP d         -29.674  -3.393 -21.572  0.00  0.00    -0.070 A 
ATOM      7  CZ2 TRP d         -28.384  -1.879 -23.621  0.00  0.00    -0.056 A 
ATOM      8  CZ3 TRP d         -30.364  -2.434 -22.314  0.00  0.00    -0.082 A 
ATOM      9  CH2 TRP d         -29.711  -1.689 -23.338  0.00  0.00    -0.081 A 
ATOM     10  H7  TRP d         -25.208  -4.707 -21.838  0.00  0.00     0.112 H 
ATOM     11  H8  TRP d         -25.682  -2.855 -23.591  0.00  0.00     0.165 HD
ATOM     12  H9  TRP d         -30.176  -3.966 -20.801  0.00  0.00     0.084 H 
ATOM     13  H10 TRP d         -27.886  -1.305 -24.394  0.00  0.00     0.086 H 
ATOM     14  H11 TRP d         -31.413  -2.252 -22.107  0.00  0.00     0.083 H 
ATOM     15  H12 TRP d         -30.276  -0.959 -23.905  0.00  0.00     0.083 H 
ENDROOT
BRANCH   1  16
ATOM     16  CB  TRP d         -27.495  -5.490 -20.237  0.00  0.00    -0.003 C 
ATOM     17  H5  TRP d         -28.530  -5.857 -20.287  0.00  0.00     0.044 H 
ATOM     18  H6  TRP d         -26.802  -6.321 -20.435  0.00  0.00     0.044 H 
BRANCH  16  19
ATOM     19  CA  TRP d         -27.237  -4.986 -18.807  0.00  0.00     0.186 C 
ATOM     20  H4  TRP d         -27.959  -5.457 -18.124  0.00  0.00     0.101 H 
BRANCH  19  21
ATOM     21  N   TRP d         -27.428  -3.546 -18.749  0.00  0.00    -0.065 N 
ATOM     22  H1  TRP d         -27.678  -3.203 -19.662  0.00  0.00     0.275 HD
ATOM     23  H2  TRP d         -26.573  -3.105 -18.447  0.00  0.00     0.275 HD
ATOM     24  H3  TRP d         -28.165  -3.331 -18.096  0.00  0.00     0.275 HD
ENDBRANCH  19  21
BRANCH  19  25
ATOM     25  C   TRP d         -25.824  -5.409 -18.389  0.00  0.00     0.204 C 
ATOM     26  O   TRP d         -24.822  -4.949 -18.928  0.00  0.00    -0.646 OA
ATOM     27  OXT TRP d         -25.640  -6.216 -17.478  0.00  0.00    -0.646 OA
ENDBRANCH  19  25
ENDBRANCH  16  19
ENDBRANCH   1  16
TORSDOF 4
ENDMDL
MODEL 3
REMARK VINA RESULT:      -6.6      2.676      4.923
REMARK  4 active torsions:
REMARK  status: ('A' for Active; 'I' for Inactive)
REMARK    1  A    between atoms: CA_2  and  N_1 
REMARK    2  A    between atoms: CA_2  and  CB_5 
REMARK    3  A    between atoms: CA_2  and  C_3 
REMARK    4  A    between atoms: CB_5  and  CG_6 
ROOT
ATOM      1  CG  TRP d         -27.649  -4.178 -22.563  0.00  0.00    -0.028 A 
ATOM      2  CD1 TRP d         -26.422  -3.599 -22.756  0.00  0.00    -0.015 A 
ATOM      3  CD2 TRP d         -27.574  -4.867 -21.308  0.00  0.00    -0.002 A 
ATOM      4  NE1 TRP d         -25.595  -3.878 -21.697  0.00  0.00    -0.365 N 
ATOM      5  CE2 TRP d         -26.272  -4.648 -20.788  0.00  0.00     0.042 A 
ATOM      6  CE3 TRP d         -28.484  -5.630 -20.564  0.00  0.00    -0.070 A 
ATOM      7  CZ2 TRP d         -25.847  -5.176 -19.567  0.00  0.00    -0.056 A 
ATOM      8  CZ3 TRP d         -28.064  -6.161 -19.343  0.00  0.00    -0.082 A 
ATOM      9  CH2 TRP d         -26.748  -5.922 -18.853  0.00  0.00    -0.081 A 
ATOM     10  H7  TRP d         -26.144  -3.004 -23.624  0.00  0.00     0.112 H 
ATOM     11  H8  TRP d         -24.620  -3.560 -21.601  0.00  0.00     0.165 HD
ATOM     12  H9  TRP d         -29.491  -5.805 -20.928  0.00  0.00     0.084 H 
ATOM     13  H10 TRP d         -24.843  -5.003 -19.199  0.00  0.00     0.086 H 
ATOM     14  H11 TRP d         -28.751  -6.764 -18.759  0.00  0.00     0.083 H 
ATOM     15  H12 TRP d         -26.454  -6.337 -17.897  0.00  0.00     0.083 H 
ENDROOT
BRANCH   1  16
ATOM     16  CB  TRP d         -28.829  -4.085 -23.465  0.00  0.00    -0.003 C 
ATOM     17  H5  TRP d         -28.509  -4.379 -24.476  0.00  0.00     0.044 H 
ATOM     18  H6  TRP d         -29.591  -4.792 -23.102  0.00  0.00     0.044 H 
BRANCH  16  19
ATOM     19  CA  TRP d         -29.478  -2.694 -23.557  0.00  0.00     0.186 C 
ATOM     20  H4  TRP d         -30.429  -2.776 -24.105  0.00  0.00     0.101 H 
BRANCH  19  21
ATOM     21  N   TRP d         -28.607  -1.790 -24.290  0.00  0.00    -0.065 N 
ATOM     22  H1  TRP d         -27.645  -2.027 -24.105  0.00  0.00     0.275 HD
ATOM     23  H2  TRP d         -28.782  -0.841 -23.995  0.00  0.00     0.275 HD
ATOM     24  H3  TRP d         -28.790  -1.873 -25.277  0.00  0.00     0.275 HD
ENDBRANCH  19  21
BRANCH  19  25
ATOM     25  C   TRP d         -29.776  -2.201 -22.136  0.00  0.00     0.204 C 
ATOM     26  O   TRP d         -29.071  -1.369 -21.575  0.00  0.00    -0.646 OA
ATOM     27  OXT TRP d         -30.754  -2.610 -21.509  0.00  0.00    -0.646 OA
ENDBRANCH  19  25
ENDBRANCH  16  19
ENDBRANCH   1  16
TORSDOF 4
ENDMDL
