MODEL 1
REMARK VINA RESULT:     -10.4      0.000      0.000
REMARK  13 active torsions:
REMARK  status: ('A' for Active; 'I' for Inactive)
REMARK    1  A    between atoms: C_1  and  CA_4 
REMARK       I    between atoms: NAV_21  and  C_1 
REMARK    2  A    between atoms: CAH_9  and  CAL_13 
REMARK    3  A    between atoms: CAL_13  and  CAT_20 
REMARK    4  A    between atoms: CAL_13  and  CBZ_50 
REMARK    5  A    between atoms: CAL_13  and  CCA_51 
REMARK    6  A    between atoms: CAR_18  and  CAS_19 
REMARK    7  A    between atoms: CAZ_24  and  CAR_18 
REMARK    8  A    between atoms: CAX_22  and  NAV_21 
REMARK    9  A    between atoms: CAX_22  and  CAY_23 
REMARK       I    between atoms: CAY_23  and  NBK_35 
REMARK   10  A    between atoms: NBK_35  and  SBM_37 
REMARK   11  A    between atoms: SBM_37  and  CBN_38 
REMARK   12  A    between atoms: CBV_46  and  CBX_48 
REMARK   13  A    between atoms: CBV_46  and  CBY_49 
ROOT
ATOM      1  N   SU3 d         -15.052  -9.797  13.457  0.00  0.00    -0.334 N 
ATOM      2  CA  SU3 d         -13.635  -9.809  13.903  0.00  0.00     0.094 C 
ATOM      3  CB  SU3 d         -12.915 -10.620  12.862  0.00  0.00    -0.011 C 
ATOM      4  CG  SU3 d         -13.970 -11.647  12.475  0.00  0.00     0.067 C 
ATOM      5  CAF SU3 d         -16.008  -9.060  14.002  0.00  0.00     0.244 C 
ATOM      6  OAG SU3 d         -15.702  -8.310  14.938  0.00  0.00    -0.271 OA
ATOM      7  CAH SU3 d         -17.432  -9.058  13.441  0.00  0.00     0.098 C 
ATOM      8  NAI SU3 d         -18.360  -9.328  14.549  0.00  0.00    -0.323 N 
ATOM      9  CAJ SU3 d         -18.870 -10.528  14.739  0.00  0.00     0.361 C 
ATOM     10  OAK SU3 d         -19.669 -10.623  15.828  0.00  0.00    -0.303 OA
ATOM     11  OAM SU3 d         -18.719 -11.474  13.967  0.00  0.00    -0.238 OA
ATOM     12  CAO SU3 d         -13.424 -13.667  13.627  0.00  0.00     0.371 C 
ATOM     13  OAP SU3 d         -12.492 -13.847  12.829  0.00  0.00    -0.238 OA
ATOM     14  NAQ SU3 d         -13.602 -14.487  14.630  0.00  0.00    -0.278 N 
ATOM     15  CBB SU3 d         -12.780 -15.644  15.009  0.00  0.00     0.000 A 
ATOM     16  CBC SU3 d         -13.394 -16.167  16.286  0.00  0.00    -0.008 A 
ATOM     17  CBD SU3 d         -14.527 -15.428  16.617  0.00  0.00    -0.002 A 
ATOM     18  CBE SU3 d         -14.720 -14.317  15.582  0.00  0.00     0.001 A 
ATOM     19  CBF SU3 d         -13.012 -17.231  17.088  0.00  0.00    -0.071 A 
ATOM     20  CBG SU3 d         -13.739 -17.549  18.217  0.00  0.00    -0.082 A 
ATOM     21  CBH SU3 d         -14.861 -16.811  18.544  0.00  0.00    -0.076 A 
ATOM     22  CBI SU3 d         -15.269 -15.734  17.763  0.00  0.00    -0.046 A 
ATOM     23  CBJ SU3 d         -16.563 -15.090  18.267  0.00  0.00    -0.040 C 
ATOM     24  CBS SU3 d         -16.556 -13.636  18.617  0.00  0.00    -0.061 C 
ATOM     25  CBT SU3 d         -18.035 -13.245  18.766  0.00  0.00    -0.064 C 
ATOM     26  CBU SU3 d         -18.633 -12.935  17.392  0.00  0.00    -0.057 C 
ATOM     27  CBV SU3 d         -20.061 -12.405  17.451  0.00  0.00    -0.025 C 
ATOM     28  CBW SU3 d         -20.334 -11.871  16.064  0.00  0.00     0.037 C 
ATOM     29  CD1 SU3 d         -15.234 -10.786  12.376  0.00  0.00     0.023 C 
ATOM     30  OD2 SU3 d         -14.263 -12.615  13.515  0.00  0.00    -0.296 OA
ATOM     31  H1  SU3 d         -13.518 -10.258  14.900  0.00  0.00     0.088 H 
ATOM     32  H2  SU3 d         -12.021 -11.104  13.281  0.00  0.00     0.040 H 
ATOM     33  H3  SU3 d         -12.627  -9.999  12.001  0.00  0.00     0.040 H 
ATOM     34  H4  SU3 d         -13.711 -12.151  11.532  0.00  0.00     0.086 H 
ATOM     35  H5  SU3 d         -17.518  -9.870  12.704  0.00  0.00     0.088 H 
ATOM     36  H6  SU3 d         -18.609  -8.586  15.172  0.00  0.00     0.165 HD
ATOM     37  H19 SU3 d         -11.914 -16.040  14.482  0.00  0.00     0.113 H 
ATOM     38  H20 SU3 d         -15.508 -13.566  15.554  0.00  0.00     0.113 H 
ATOM     39  H21 SU3 d         -12.137 -17.817  16.827  0.00  0.00     0.084 H 
ATOM     40  H22 SU3 d         -13.431 -18.376  18.846  0.00  0.00     0.083 H 
ATOM     41  H23 SU3 d         -15.434 -17.075  19.425  0.00  0.00     0.084 H 
ATOM     42  H24 SU3 d         -16.866 -15.638  19.172  0.00  0.00     0.040 H 
ATOM     43  H25 SU3 d         -17.321 -15.230  17.482  0.00  0.00     0.040 H 
ATOM     44  H32 SU3 d         -16.082 -13.050  17.816  0.00  0.00     0.033 H 
ATOM     45  H33 SU3 d         -16.017 -13.469  19.561  0.00  0.00     0.033 H 
ATOM     46  H34 SU3 d         -18.113 -12.355  19.407  0.00  0.00     0.033 H 
ATOM     47  H35 SU3 d         -18.588 -14.078  19.225  0.00  0.00     0.033 H 
ATOM     48  H36 SU3 d         -18.630 -13.859  16.795  0.00  0.00     0.034 H 
ATOM     49  H37 SU3 d         -18.002 -12.179  16.901  0.00  0.00     0.034 H 
ATOM     50  H38 SU3 d         -19.983 -12.605  15.324  0.00  0.00     0.076 H 
ATOM     51  H39 SU3 d         -21.418 -11.723  15.948  0.00  0.00     0.076 H 
ATOM     52  H52 SU3 d         -15.300 -10.292  11.396  0.00  0.00     0.068 H 
ATOM     53  H53 SU3 d         -16.137 -11.392  12.543  0.00  0.00     0.068 H 
ENDROOT
BRANCH   2  54
ATOM     54  C   SU3 d         -13.177  -8.353  13.911  0.00  0.00     0.241 C 
ATOM     55  O   SU3 d         -13.163  -7.671  12.884  0.00  0.00    -0.271 OA
ATOM     56  NAV SU3 d         -12.748  -7.913  15.094  0.00  0.00    -0.341 N 
ATOM     57  H15 SU3 d         -12.602  -8.581  15.824  0.00  0.00     0.163 HD
BRANCH  56  58
ATOM     58  CAX SU3 d         -12.483  -6.515  15.376  0.00  0.00     0.119 A 
ATOM     59  CAZ SU3 d         -13.783  -5.670  15.373  0.00  0.00    -0.018 A 
ATOM     60  CBA SU3 d         -13.045  -5.962  16.679  0.00  0.00    -0.027 A 
ATOM     61  H16 SU3 d         -14.751  -6.137  15.142  0.00  0.00     0.044 H 
ATOM     62  H17 SU3 d         -12.517  -5.151  17.202  0.00  0.00     0.038 H 
ATOM     63  H18 SU3 d         -13.489  -6.645  17.417  0.00  0.00     0.038 H 
BRANCH  58  64
ATOM     64  CAY SU3 d         -11.154  -5.909  14.955  0.00  0.00     0.259 C 
ATOM     65  NBK SU3 d         -10.513  -6.547  14.002  0.00  0.00    -0.252 N 
ATOM     66  H26 SU3 d         -10.867  -7.388  13.594  0.00  0.00     0.181 HD
ATOM     67  OBL SU3 d         -10.728  -4.937  15.573  0.00  0.00    -0.270 OA
BRANCH  65  68
ATOM     68  SBM SU3 d          -9.134  -5.892  13.541  0.00  0.00     0.237 S 
ATOM     69  OBO SU3 d          -9.375  -4.706  12.669  0.00  0.00    -0.205 OA
ATOM     70  OBP SU3 d          -8.227  -5.608  14.673  0.00  0.00    -0.205 OA
BRANCH  68  71
ATOM     71  CBN SU3 d          -8.353  -7.140  12.521  0.00  0.00     0.063 A 
ATOM     72  CBQ SU3 d          -7.041  -6.686  11.901  0.00  0.00    -0.046 A 
ATOM     73  CBR SU3 d          -7.042  -7.670  13.083  0.00  0.00    -0.046 A 
ATOM     74  H28 SU3 d          -6.691  -5.652  12.045  0.00  0.00     0.035 H 
ATOM     75  H29 SU3 d          -6.757  -7.032  10.896  0.00  0.00     0.035 H 
ATOM     76  H30 SU3 d          -6.760  -8.721  12.925  0.00  0.00     0.035 H 
ATOM     77  H31 SU3 d          -6.695  -7.342  14.073  0.00  0.00     0.035 H 
ATOM     78  H27 SU3 d          -9.075  -7.779  11.992  0.00  0.00     0.066 H 
ENDBRANCH  68  71
ENDBRANCH  65  68
ENDBRANCH  58  64
BRANCH  59  79
ATOM     79  CAR SU3 d         -13.751  -4.221  14.879  0.00  0.00    -0.062 C 
ATOM     80  H7  SU3 d         -13.830  -3.546  15.744  0.00  0.00     0.033 H 
ATOM     81  H8  SU3 d         -12.799  -4.041  14.359  0.00  0.00     0.033 H 
BRANCH  79  82
ATOM     82  CAS SU3 d         -14.909  -3.934  13.914  0.00  0.00    -0.076 C 
ATOM     83  H9  SU3 d         -15.374  -2.972  14.176  0.00  0.00     0.027 H 
ATOM     84  H10 SU3 d         -15.657  -4.736  13.991  0.00  0.00     0.027 H 
ATOM     85  H11 SU3 d         -14.525  -3.888  12.885  0.00  0.00     0.027 H 
ENDBRANCH  79  82
ENDBRANCH  59  79
ENDBRANCH  56  58
ENDBRANCH   2  54
BRANCH   7  86
ATOM     86  CAL SU3 d         -17.770  -7.735  12.729  0.00  0.00    -0.022 C 
BRANCH  86  87
ATOM     87  CAT SU3 d         -18.214  -6.621  13.695  0.00  0.00    -0.067 C 
ATOM     88  H12 SU3 d         -19.230  -6.834  14.057  0.00  0.00     0.028 H 
ATOM     89  H13 SU3 d         -18.207  -5.656  13.169  0.00  0.00     0.028 H 
ATOM     90  H14 SU3 d         -17.522  -6.579  14.549  0.00  0.00     0.028 H 
ENDBRANCH  86  87
BRANCH  86  91
ATOM     91  CBZ SU3 d         -16.557  -7.273  11.936  0.00  0.00    -0.067 C 
ATOM     92  H46 SU3 d         -15.655  -7.766  12.325  0.00  0.00     0.028 H 
ATOM     93  H47 SU3 d         -16.449  -6.182  12.034  0.00  0.00     0.028 H 
ATOM     94  H48 SU3 d         -16.690  -7.535  10.875  0.00  0.00     0.028 H 
ENDBRANCH  86  91
BRANCH  86  95
ATOM     95  CCA SU3 d         -18.920  -7.987  11.748  0.00  0.00    -0.067 C 
ATOM     96  H49 SU3 d         -19.870  -8.034  12.302  0.00  0.00     0.028 H 
ATOM     97  H50 SU3 d         -18.754  -8.940  11.225  0.00  0.00     0.028 H 
ATOM     98  H51 SU3 d         -18.962  -7.168  11.015  0.00  0.00     0.028 H 
ENDBRANCH  86  95
ENDBRANCH   7  86
BRANCH  27  99
ATOM     99  CBX SU3 d         -21.076 -13.521  17.724  0.00  0.00    -0.067 C 
ATOM    100  H40 SU3 d         -21.859 -13.501  16.951  0.00  0.00     0.028 H 
ATOM    101  H41 SU3 d         -21.533 -13.367  18.712  0.00  0.00     0.028 H 
ATOM    102  H42 SU3 d         -20.565 -14.494  17.703  0.00  0.00     0.028 H 
ENDBRANCH  27  99
BRANCH  27 103
ATOM    103  CBY SU3 d         -20.189 -11.300  18.514  0.00  0.00    -0.067 C 
ATOM    104  H43 SU3 d         -19.328 -10.619  18.441  0.00  0.00     0.028 H 
ATOM    105  H44 SU3 d         -20.212 -11.756  19.515  0.00  0.00     0.028 H 
ATOM    106  H45 SU3 d         -21.119 -10.737  18.347  0.00  0.00     0.028 H 
ENDBRANCH  27 103
TORSDOF 13
ENDMDL
MODEL 2
REMARK VINA RESULT:      -7.8      1.824      3.126
REMARK  13 active torsions:
REMARK  status: ('A' for Active; 'I' for Inactive)
REMARK    1  A    between atoms: C_1  and  CA_4 
REMARK       I    between atoms: NAV_21  and  C_1 
REMARK    2  A    between atoms: CAH_9  and  CAL_13 
REMARK    3  A    between atoms: CAL_13  and  CAT_20 
REMARK    4  A    between atoms: CAL_13  and  CBZ_50 
REMARK    5  A    between atoms: CAL_13  and  CCA_51 
REMARK    6  A    between atoms: CAR_18  and  CAS_19 
REMARK    7  A    between atoms: CAZ_24  and  CAR_18 
REMARK    8  A    between atoms: CAX_22  and  NAV_21 
REMARK    9  A    between atoms: CAX_22  and  CAY_23 
REMARK       I    between atoms: CAY_23  and  NBK_35 
REMARK   10  A    between atoms: NBK_35  and  SBM_37 
REMARK   11  A    between atoms: SBM_37  and  CBN_38 
REMARK   12  A    between atoms: CBV_46  and  CBX_48 
REMARK   13  A    between atoms: CBV_46  and  CBY_49 
ROOT
ATOM      1  N   SU3 d         -15.183 -10.330  13.311  0.00  0.00    -0.334 N 
ATOM      2  CA  SU3 d         -13.769 -10.310  13.766  0.00  0.00     0.094 C 
ATOM      3  CB  SU3 d         -13.053 -11.240  12.829  0.00  0.00    -0.011 C 
ATOM      4  CG  SU3 d         -14.119 -12.291  12.550  0.00  0.00     0.067 C 
ATOM      5  CAF SU3 d         -16.133  -9.524  13.761  0.00  0.00     0.244 C 
ATOM      6  OAG SU3 d         -15.823  -8.678  14.611  0.00  0.00    -0.271 OA
ATOM      7  CAH SU3 d         -17.553  -9.567  13.192  0.00  0.00     0.098 C 
ATOM      8  NAI SU3 d         -18.492  -9.701  14.316  0.00  0.00    -0.323 N 
ATOM      9  CAJ SU3 d         -19.019 -10.865  14.635  0.00  0.00     0.361 C 
ATOM     10  OAK SU3 d         -19.826 -10.828  15.721  0.00  0.00    -0.303 OA
ATOM     11  OAM SU3 d         -18.875 -11.893  13.974  0.00  0.00    -0.238 OA
ATOM     12  CAO SU3 d         -13.607 -14.176  13.925  0.00  0.00     0.371 C 
ATOM     13  OAP SU3 d         -12.673 -14.456  13.159  0.00  0.00    -0.238 OA
ATOM     14  NAQ SU3 d         -13.803 -14.877  15.011  0.00  0.00    -0.278 N 
ATOM     15  CBB SU3 d         -13.000 -15.994  15.524  0.00  0.00     0.000 A 
ATOM     16  CBC SU3 d         -13.629 -16.363  16.847  0.00  0.00    -0.008 A 
ATOM     17  CBD SU3 d         -14.754 -15.578  17.083  0.00  0.00    -0.002 A 
ATOM     18  CBE SU3 d         -14.925 -14.588  15.930  0.00  0.00     0.001 A 
ATOM     19  CBF SU3 d         -13.267 -17.336  17.765  0.00  0.00    -0.071 A 
ATOM     20  CBG SU3 d         -14.006 -17.517  18.917  0.00  0.00    -0.082 A 
ATOM     21  CBH SU3 d         -15.120 -16.733  19.150  0.00  0.00    -0.076 A 
ATOM     22  CBI SU3 d         -15.508 -15.746  18.250  0.00  0.00    -0.046 A 
ATOM     23  CBJ SU3 d         -16.797 -15.033  18.669  0.00  0.00    -0.040 C 
ATOM     24  CBS SU3 d         -16.773 -13.549  18.854  0.00  0.00    -0.061 C 
ATOM     25  CBT SU3 d         -18.247 -13.126  18.946  0.00  0.00    -0.064 C 
ATOM     26  CBU SU3 d         -18.832 -12.964  17.541  0.00  0.00    -0.057 C 
ATOM     27  CBV SU3 d         -20.253 -12.413  17.529  0.00  0.00    -0.025 C 
ATOM     28  CBW SU3 d         -20.510 -12.033  16.089  0.00  0.00     0.037 C 
ATOM     29  CD1 SU3 d         -15.371 -11.431  12.346  0.00  0.00     0.023 C 
ATOM     30  OD2 SU3 d         -14.432 -13.133  13.689  0.00  0.00    -0.296 OA
ATOM     31  H1  SU3 d         -13.665 -10.645  14.808  0.00  0.00     0.088 H 
ATOM     32  H2  SU3 d         -12.168 -11.686  13.307  0.00  0.00     0.040 H 
ATOM     33  H3  SU3 d         -12.751 -10.723  11.907  0.00  0.00     0.040 H 
ATOM     34  H4  SU3 d         -13.860 -12.901  11.672  0.00  0.00     0.086 H 
ATOM     35  H5  SU3 d         -17.645 -10.455  12.550  0.00  0.00     0.088 H 
ATOM     36  H6  SU3 d         -18.735  -8.890  14.850  0.00  0.00     0.165 HD
ATOM     37  H19 SU3 d         -12.135 -16.458  15.051  0.00  0.00     0.113 H 
ATOM     38  H20 SU3 d         -15.703 -13.834  15.811  0.00  0.00     0.113 H 
ATOM     39  H21 SU3 d         -12.398 -17.958  17.578  0.00  0.00     0.084 H 
ATOM     40  H22 SU3 d         -13.713 -18.273  19.637  0.00  0.00     0.083 H 
ATOM     41  H23 SU3 d         -15.702 -16.890  20.050  0.00  0.00     0.084 H 
ATOM     42  H24 SU3 d         -17.114 -15.473  19.626  0.00  0.00     0.040 H 
ATOM     43  H25 SU3 d         -17.551 -15.250  17.898  0.00  0.00     0.040 H 
ATOM     44  H32 SU3 d         -16.286 -13.062  17.996  0.00  0.00     0.033 H 
ATOM     45  H33 SU3 d         -16.238 -13.285  19.778  0.00  0.00     0.033 H 
ATOM     46  H34 SU3 d         -18.319 -12.168  19.483  0.00  0.00     0.033 H 
ATOM     47  H35 SU3 d         -18.815 -13.895  19.490  0.00  0.00     0.033 H 
ATOM     48  H36 SU3 d         -18.837 -13.948  17.051  0.00  0.00     0.034 H 
ATOM     49  H37 SU3 d         -18.188 -12.275  16.974  0.00  0.00     0.034 H 
ATOM     50  H38 SU3 d         -20.164 -12.850  15.438  0.00  0.00     0.076 H 
ATOM     51  H39 SU3 d         -21.591 -11.886  15.948  0.00  0.00     0.076 H 
ATOM     52  H52 SU3 d         -15.423 -11.049  11.315  0.00  0.00     0.068 H 
ATOM     53  H53 SU3 d         -16.283 -12.003  12.571  0.00  0.00     0.068 H 
ENDROOT
BRANCH   2  54
ATOM     54  C   SU3 d         -13.292  -8.867  13.616  0.00  0.00     0.241 C 
ATOM     55  O   SU3 d         -12.929  -8.199  14.587  0.00  0.00    -0.271 OA
ATOM     56  NAV SU3 d         -13.356  -8.388  12.375  0.00  0.00    -0.341 N 
ATOM     57  H15 SU3 d         -13.847  -8.921  11.685  0.00  0.00     0.163 HD
BRANCH  56  58
ATOM     58  CAX SU3 d         -12.750  -7.132  11.973  0.00  0.00     0.119 A 
ATOM     59  CAZ SU3 d         -11.202  -7.214  11.971  0.00  0.00    -0.018 A 
ATOM     60  CBA SU3 d         -11.980  -7.135  10.659  0.00  0.00    -0.027 A 
ATOM     61  H16 SU3 d         -10.692  -8.137  12.284  0.00  0.00     0.044 H 
ATOM     62  H17 SU3 d         -11.934  -6.220  10.050  0.00  0.00     0.038 H 
ATOM     63  H18 SU3 d         -12.029  -8.012   9.998  0.00  0.00     0.038 H 
BRANCH  58  64
ATOM     64  CAY SU3 d         -13.465  -5.827  12.282  0.00  0.00     0.259 C 
ATOM     65  NBK SU3 d         -14.081  -5.775  13.441  0.00  0.00    -0.252 N 
ATOM     66  H26 SU3 d         -14.095  -6.551  14.072  0.00  0.00     0.181 HD
ATOM     67  OBL SU3 d         -13.499  -4.955  11.418  0.00  0.00    -0.270 OA
BRANCH  65  68
ATOM     68  SBM SU3 d         -14.803  -4.394  13.777  0.00  0.00     0.237 S 
ATOM     69  OBO SU3 d         -14.324  -3.310  12.871  0.00  0.00    -0.205 OA
ATOM     70  OBP SU3 d         -16.276  -4.512  13.816  0.00  0.00    -0.205 OA
BRANCH  68  71
ATOM     71  CBN SU3 d         -14.250  -3.976  15.429  0.00  0.00     0.063 A 
ATOM     72  CBQ SU3 d         -14.118  -5.180  16.349  0.00  0.00    -0.046 A 
ATOM     73  CBR SU3 d         -12.864  -4.502  15.771  0.00  0.00    -0.046 A 
ATOM     74  H28 SU3 d         -14.416  -6.179  15.997  0.00  0.00     0.035 H 
ATOM     75  H29 SU3 d         -14.352  -5.084  17.419  0.00  0.00     0.035 H 
ATOM     76  H30 SU3 d         -12.200  -3.919  16.426  0.00  0.00     0.035 H 
ATOM     77  H31 SU3 d         -12.264  -5.014  15.004  0.00  0.00     0.035 H 
ATOM     78  H27 SU3 d         -14.616  -2.998  15.773  0.00  0.00     0.066 H 
ENDBRANCH  68  71
ENDBRANCH  65  68
ENDBRANCH  58  64
BRANCH  59  79
ATOM     79  CAR SU3 d         -10.372  -5.984  12.349  0.00  0.00    -0.062 C 
ATOM     80  H7  SU3 d          -9.510  -5.911  11.669  0.00  0.00     0.033 H 
ATOM     81  H8  SU3 d         -10.997  -5.085  12.248  0.00  0.00     0.033 H 
BRANCH  79  82
ATOM     82  CAS SU3 d          -9.861  -6.077  13.793  0.00  0.00    -0.076 C 
ATOM     83  H9  SU3 d          -9.876  -5.077  14.252  0.00  0.00     0.027 H 
ATOM     84  H10 SU3 d          -8.833  -6.466  13.794  0.00  0.00     0.027 H 
ATOM     85  H11 SU3 d         -10.510  -6.754  14.368  0.00  0.00     0.027 H 
ENDBRANCH  79  82
ENDBRANCH  59  79
ENDBRANCH  56  58
ENDBRANCH   2  54
BRANCH   7  86
ATOM     86  CAL SU3 d         -17.868  -8.328  12.334  0.00  0.00    -0.022 C 
BRANCH  86  87
ATOM     87  CAT SU3 d         -16.630  -7.753  11.621  0.00  0.00    -0.067 C 
ATOM     88  H12 SU3 d         -16.874  -6.766  11.202  0.00  0.00     0.028 H 
ATOM     89  H13 SU3 d         -16.327  -8.430  10.809  0.00  0.00     0.028 H 
ATOM     90  H14 SU3 d         -15.805  -7.652  12.341  0.00  0.00     0.028 H 
ENDBRANCH  86  87
BRANCH  86  91
ATOM     91  CBZ SU3 d         -18.929  -8.692  11.307  0.00  0.00    -0.067 C 
ATOM     92  H46 SU3 d         -18.443  -8.977  10.363  0.00  0.00     0.028 H 
ATOM     93  H47 SU3 d         -19.584  -7.824  11.133  0.00  0.00     0.028 H 
ATOM     94  H48 SU3 d         -19.528  -9.535  11.681  0.00  0.00     0.028 H 
ENDBRANCH  86  91
BRANCH  86  95
ATOM     95  CCA SU3 d         -18.432  -7.233  13.244  0.00  0.00    -0.067 C 
ATOM     96  H49 SU3 d         -19.381  -6.863  12.827  0.00  0.00     0.028 H 
ATOM     97  H50 SU3 d         -17.713  -6.403  13.310  0.00  0.00     0.028 H 
ATOM     98  H51 SU3 d         -18.609  -7.645  14.248  0.00  0.00     0.028 H 
ENDBRANCH  86  95
ENDBRANCH   7  86
BRANCH  27  99
ATOM     99  CBX SU3 d         -21.285 -13.478  17.916  0.00  0.00    -0.067 C 
ATOM    100  H40 SU3 d         -21.293 -14.274  17.156  0.00  0.00     0.028 H 
ATOM    101  H41 SU3 d         -22.282 -13.018  17.976  0.00  0.00     0.028 H 
ATOM    102  H42 SU3 d         -21.019 -13.907  18.893  0.00  0.00     0.028 H 
ENDBRANCH  27  99
BRANCH  27 103
ATOM    103  CBY SU3 d         -20.374 -11.194  18.461  0.00  0.00    -0.067 C 
ATOM    104  H43 SU3 d         -20.613 -11.535  19.480  0.00  0.00     0.028 H 
ATOM    105  H44 SU3 d         -21.175 -10.533  18.098  0.00  0.00     0.028 H 
ATOM    106  H45 SU3 d         -19.421 -10.645  18.472  0.00  0.00     0.028 H 
ENDBRANCH  27 103
TORSDOF 13
ENDMDL
