MODEL 1
REMARK VINA RESULT:      -7.2      0.000      0.000
REMARK  10 active torsions:
REMARK  status: ('A' for Active; 'I' for Inactive)
REMARK    1  A    between atoms: C2_2  and  C6_6 
REMARK    2  A    between atoms: C3_3  and  O20_16 
REMARK    3  A    between atoms: C5_5  and  C9_9 
REMARK    4  A    between atoms: C11_11  and  N29_21 
REMARK    5  A    between atoms: O20_16  and  C21_17 
REMARK    6  A    between atoms: C21_17  and  C22_18 
REMARK    7  A    between atoms: N29_21  and  C30_22 
REMARK    8  A    between atoms: N33_25  and  S46_28 
REMARK    9  A    between atoms: S46_28  and  C49_31 
REMARK   10  A    between atoms: C49_31  and  C50_32 
ROOT
ATOM      1  C30 MOL d          46.843   8.823   0.482  0.00  0.00     0.012 C 
ATOM      2  C31 MOL d          47.819   9.866   1.026  0.00  0.00    -0.031 C 
ATOM      3  C32 MOL d          47.151  10.932   1.863  0.00  0.00     0.007 C 
ATOM      4  N33 MOL d          46.011  11.436   1.096  0.00  0.00    -0.310 N 
ATOM      5  C34 MOL d          44.977  10.531   0.587  0.00  0.00     0.007 C 
ATOM      6  C35 MOL d          45.653   9.461  -0.231  0.00  0.00    -0.031 C 
ATOM      7  H8  MOL d          46.464   8.220   1.320  0.00  0.00     0.072 H 
ATOM      8  H9  MOL d          48.320  10.353   0.176  0.00  0.00     0.038 H 
ATOM      9  H10 MOL d          48.568   9.353   1.647  0.00  0.00     0.038 H 
ATOM     10  H11 MOL d          47.858  11.749   2.067  0.00  0.00     0.065 H 
ATOM     11  H12 MOL d          46.804  10.502   2.814  0.00  0.00     0.065 H 
ATOM     12  H13 MOL d          44.270  11.090  -0.043  0.00  0.00     0.065 H 
ATOM     13  H14 MOL d          44.437  10.073   1.428  0.00  0.00     0.065 H 
ATOM     14  H15 MOL d          44.917   8.676  -0.455  0.00  0.00     0.038 H 
ATOM     15  H16 MOL d          46.008   9.911  -1.169  0.00  0.00     0.038 H 
ENDROOT
BRANCH   1  16
ATOM     16  N29 MOL d          47.562   7.977  -0.422  0.00  0.00    -0.385 N 
ATOM     17  H7  MOL d          47.074   7.613  -1.252  0.00  0.00     0.160 HD
BRANCH  16  18
ATOM     18  C11 MOL d          48.863   7.634  -0.228  0.00  0.00     0.029 A 
ATOM     19  C10 MOL d          49.076   6.796   0.913  0.00  0.00    -0.046 A 
ATOM     20  C9  MOL d          50.432   6.373   1.228  0.00  0.00    -0.015 A 
ATOM     21  H1  MOL d          48.243   6.482   1.530  0.00  0.00     0.088 H 
ATOM     22  C14 MOL d          51.544   6.759   0.368  0.00  0.00    -0.072 A 
ATOM     23  C13 MOL d          51.347   7.610  -0.770  0.00  0.00    -0.080 A 
ATOM     24  H4  MOL d          52.540   6.396   0.592  0.00  0.00     0.084 H 
ATOM     25  C12 MOL d          49.991   8.038  -1.066  0.00  0.00    -0.058 A 
ATOM     26  H3  MOL d          52.181   7.924  -1.388  0.00  0.00     0.083 H 
ATOM     27  H2  MOL d          49.810   8.671  -1.928  0.00  0.00     0.086 H 
BRANCH  20  28
ATOM     28  C5  MOL d          50.743   5.570   2.428  0.00  0.00     0.036 A 
ATOM     29  S1  MOL d          51.472   6.364   3.875  0.00  0.00    -0.078 SA
ATOM     30  C2  MOL d          51.478   4.836   4.806  0.00  0.00     0.117 A 
ATOM     31  C3  MOL d          50.979   3.854   4.073  0.00  0.00     0.112 A 
ATOM     32  C4  MOL d          50.525   4.284   2.742  0.00  0.00     0.064 A 
ATOM     33 BR19 MOL d          49.590   3.047   1.710  0.00  0.00    -0.047 Br
BRANCH  30  34
ATOM     34  C6  MOL d          52.104   4.793   6.109  0.00  0.00     0.219 C 
ATOM     35  O7  MOL d          51.276   4.955   7.031  0.00  0.00    -0.643 OA
ATOM     36  O8  MOL d          53.329   4.626   6.295  0.00  0.00    -0.643 OA
ENDBRANCH  30  34
BRANCH  31  37
ATOM     37  O20 MOL d          50.844   2.634   4.572  0.00  0.00    -0.338 OA
BRANCH  37  38
ATOM     38  C21 MOL d          49.615   2.362   5.214  0.00  0.00     0.106 C 
ATOM     39  H5  MOL d          48.989   1.714   4.583  0.00  0.00     0.091 H 
ATOM     40  H6  MOL d          49.078   3.299   5.424  0.00  0.00     0.091 H 
BRANCH  38  41
ATOM     41  C22 MOL d          49.955   1.681   6.464  0.00  0.00     0.198 C 
ATOM     42  O25 MOL d          48.989   1.345   7.174  0.00  0.00    -0.646 OA
ATOM     43  O26 MOL d          51.155   1.471   6.756  0.00  0.00    -0.646 OA
ENDBRANCH  38  41
ENDBRANCH  37  38
ENDBRANCH  31  37
ENDBRANCH  20  28
ENDBRANCH  16  18
ENDBRANCH   1  16
BRANCH   4  44
ATOM     44  S46 MOL d          45.521  13.059   1.307  0.00  0.00     0.232 S 
ATOM     45  O47 MOL d          44.093  13.009   1.528  0.00  0.00    -0.205 OA
ATOM     46  O48 MOL d          46.049  13.789   0.170  0.00  0.00    -0.205 OA
BRANCH  44  47
ATOM     47  C49 MOL d          46.291  13.465   2.890  0.00  0.00     0.070 C 
ATOM     48  H17 MOL d          47.326  13.094   2.904  0.00  0.00     0.066 H 
ATOM     49  H18 MOL d          45.723  12.999   3.708  0.00  0.00     0.066 H 
BRANCH  47  50
ATOM     50  C50 MOL d          46.287  14.955   3.059  0.00  0.00    -0.043 A 
ATOM     51  C53 MOL d          47.582  15.593   3.190  0.00  0.00    -0.076 A 
ATOM     52  C54 MOL d          47.609  17.039   3.241  0.00  0.00    -0.082 A 
ATOM     53  H19 MOL d          48.494  15.010   3.247  0.00  0.00     0.084 H 
ATOM     54  C55 MOL d          46.355  17.789   3.204  0.00  0.00    -0.083 A 
ATOM     55  H20 MOL d          48.555  17.564   3.308  0.00  0.00     0.083 H 
ATOM     56  C56 MOL d          45.067  17.135   3.059  0.00  0.00    -0.082 A 
ATOM     57  H21 MOL d          46.388  18.869   3.286  0.00  0.00     0.083 H 
ATOM     58  C57 MOL d          45.017  15.685   2.993  0.00  0.00    -0.076 A 
ATOM     59  H22 MOL d          44.156  17.721   3.002  0.00  0.00     0.083 H 
ATOM     60  H23 MOL d          44.074  15.160   2.899  0.00  0.00     0.084 H 
ENDBRANCH  47  50
ENDBRANCH  44  47
ENDBRANCH   4  44
TORSDOF 10
ENDMDL
MODEL 2
REMARK VINA RESULT:      -6.9      1.417      2.307
REMARK  10 active torsions:
REMARK  status: ('A' for Active; 'I' for Inactive)
REMARK    1  A    between atoms: C2_2  and  C6_6 
REMARK    2  A    between atoms: C3_3  and  O20_16 
REMARK    3  A    between atoms: C5_5  and  C9_9 
REMARK    4  A    between atoms: C11_11  and  N29_21 
REMARK    5  A    between atoms: O20_16  and  C21_17 
REMARK    6  A    between atoms: C21_17  and  C22_18 
REMARK    7  A    between atoms: N29_21  and  C30_22 
REMARK    8  A    between atoms: N33_25  and  S46_28 
REMARK    9  A    between atoms: S46_28  and  C49_31 
REMARK   10  A    between atoms: C49_31  and  C50_32 
ROOT
ATOM      1  C30 MOL d          46.973   8.571   0.575  0.00  0.00     0.012 C 
ATOM      2  C31 MOL d          47.938   9.664   1.037  0.00  0.00    -0.031 C 
ATOM      3  C32 MOL d          47.257  10.787   1.786  0.00  0.00     0.007 C 
ATOM      4  N33 MOL d          46.115  11.217   0.977  0.00  0.00    -0.310 N 
ATOM      5  C34 MOL d          45.091  10.265   0.540  0.00  0.00     0.007 C 
ATOM      6  C35 MOL d          45.780   9.140  -0.189  0.00  0.00    -0.031 C 
ATOM      7  H8  MOL d          46.597   8.033   1.458  0.00  0.00     0.072 H 
ATOM      8  H9  MOL d          48.436  10.086   0.153  0.00  0.00     0.038 H 
ATOM      9  H10 MOL d          48.690   9.209   1.699  0.00  0.00     0.038 H 
ATOM     10  H11 MOL d          47.955  11.624   1.925  0.00  0.00     0.065 H 
ATOM     11  H12 MOL d          46.911  10.430   2.766  0.00  0.00     0.065 H 
ATOM     12  H13 MOL d          44.380  10.765  -0.134  0.00  0.00     0.065 H 
ATOM     13  H14 MOL d          44.552   9.869   1.413  0.00  0.00     0.065 H 
ATOM     14  H15 MOL d          45.052   8.332  -0.352  0.00  0.00     0.038 H 
ATOM     15  H16 MOL d          46.133   9.516  -1.159  0.00  0.00     0.038 H 
ENDROOT
BRANCH   1  16
ATOM     16  N29 MOL d          47.703   7.663  -0.256  0.00  0.00    -0.385 N 
ATOM     17  H7  MOL d          47.284   7.364  -1.148  0.00  0.00     0.160 HD
BRANCH  16  18
ATOM     18  C11 MOL d          48.928   7.179   0.084  0.00  0.00     0.029 A 
ATOM     19  C10 MOL d          48.914   6.332   1.238  0.00  0.00    -0.046 A 
ATOM     20  C9  MOL d          50.169   5.763   1.704  0.00  0.00    -0.015 A 
ATOM     21  H1  MOL d          47.986   6.118   1.754  0.00  0.00     0.088 H 
ATOM     22  C14 MOL d          51.408   6.016   0.978  0.00  0.00    -0.072 A 
ATOM     23  C13 MOL d          51.439   6.874  -0.171  0.00  0.00    -0.080 A 
ATOM     24  H4  MOL d          52.325   5.545   1.314  0.00  0.00     0.084 H 
ATOM     25  C12 MOL d          50.181   7.448  -0.618  0.00  0.00    -0.058 A 
ATOM     26  H3  MOL d          52.368   7.088  -0.687  0.00  0.00     0.083 H 
ATOM     27  H2  MOL d          50.172   8.089  -1.492  0.00  0.00     0.086 H 
BRANCH  20  28
ATOM     28  C5  MOL d          50.249   4.941   2.927  0.00  0.00     0.036 A 
ATOM     29  S1  MOL d          49.411   3.343   2.992  0.00  0.00    -0.078 SA
ATOM     30  C2  MOL d          50.004   3.013   4.647  0.00  0.00     0.117 A 
ATOM     31  C3  MOL d          50.748   4.019   5.075  0.00  0.00     0.112 A 
ATOM     32  C4  MOL d          50.919   5.090   4.081  0.00  0.00     0.064 A 
ATOM     33 BR19 MOL d          52.135   6.445   4.474  0.00  0.00    -0.047 Br
BRANCH  30  34
ATOM     34  C6  MOL d          49.537   1.840   5.355  0.00  0.00     0.219 C 
ATOM     35  O7  MOL d          49.577   0.816   4.640  0.00  0.00    -0.643 OA
ATOM     36  O8  MOL d          49.131   1.848   6.538  0.00  0.00    -0.643 OA
ENDBRANCH  30  34
BRANCH  31  37
ATOM     37  O20 MOL d          51.332   3.976   6.263  0.00  0.00    -0.338 OA
BRANCH  37  38
ATOM     38  C21 MOL d          52.732   3.787   6.256  0.00  0.00     0.106 C 
ATOM     39  H5  MOL d          53.176   4.180   7.182  0.00  0.00     0.091 H 
ATOM     40  H6  MOL d          53.182   4.294   5.390  0.00  0.00     0.091 H 
BRANCH  38  41
ATOM     41  C22 MOL d          52.943   2.342   6.165  0.00  0.00     0.198 C 
ATOM     42  O25 MOL d          52.652   1.689   7.184  0.00  0.00    -0.646 OA
ATOM     43  O26 MOL d          53.389   1.840   5.107  0.00  0.00    -0.646 OA
ENDBRANCH  38  41
ENDBRANCH  37  38
ENDBRANCH  31  37
ENDBRANCH  20  28
ENDBRANCH  16  18
ENDBRANCH   1  16
BRANCH   4  44
ATOM     44  S46 MOL d          45.608  12.846   1.058  0.00  0.00     0.232 S 
ATOM     45  O47 MOL d          44.182  12.800   1.284  0.00  0.00    -0.205 OA
ATOM     46  O48 MOL d          46.129  13.488  -0.135  0.00  0.00    -0.205 OA
BRANCH  44  47
ATOM     47  C49 MOL d          46.375  13.387   2.602  0.00  0.00     0.070 C 
ATOM     48  H17 MOL d          47.428  13.067   2.624  0.00  0.00     0.066 H 
ATOM     49  H18 MOL d          45.840  12.945   3.455  0.00  0.00     0.066 H 
BRANCH  47  50
ATOM     50  C50 MOL d          46.300  14.882   2.680  0.00  0.00    -0.043 A 
ATOM     51  C53 MOL d          45.035  15.485   2.308  0.00  0.00    -0.076 A 
ATOM     52  C54 MOL d          44.904  16.915   2.483  0.00  0.00    -0.082 A 
ATOM     53  H19 MOL d          44.220  14.888   1.915  0.00  0.00     0.084 H 
ATOM     54  C55 MOL d          46.039  17.693   2.976  0.00  0.00    -0.083 A 
ATOM     55  H20 MOL d          43.968  17.409   2.249  0.00  0.00     0.083 H 
ATOM     56  C56 MOL d          47.295  17.072   3.356  0.00  0.00    -0.082 A 
ATOM     57  H21 MOL d          45.939  18.769   3.061  0.00  0.00     0.083 H 
ATOM     58  C57 MOL d          47.445  15.635   3.201  0.00  0.00    -0.076 A 
ATOM     59  H22 MOL d          48.108  17.671   3.750  0.00  0.00     0.083 H 
ATOM     60  H23 MOL d          48.371  15.137   3.461  0.00  0.00     0.084 H 
ENDBRANCH  47  50
ENDBRANCH  44  47
ENDBRANCH   4  44
TORSDOF 10
ENDMDL
MODEL 3
REMARK VINA RESULT:      -6.8      1.610      2.112
REMARK  10 active torsions:
REMARK  status: ('A' for Active; 'I' for Inactive)
REMARK    1  A    between atoms: C2_2  and  C6_6 
REMARK    2  A    between atoms: C3_3  and  O20_16 
REMARK    3  A    between atoms: C5_5  and  C9_9 
REMARK    4  A    between atoms: C11_11  and  N29_21 
REMARK    5  A    between atoms: O20_16  and  C21_17 
REMARK    6  A    between atoms: C21_17  and  C22_18 
REMARK    7  A    between atoms: N29_21  and  C30_22 
REMARK    8  A    between atoms: N33_25  and  S46_28 
REMARK    9  A    between atoms: S46_28  and  C49_31 
REMARK   10  A    between atoms: C49_31  and  C50_32 
ROOT
ATOM      1  C30 MOL d          47.564   8.741   0.262  0.00  0.00     0.012 C 
ATOM      2  C31 MOL d          47.945   9.586   1.478  0.00  0.00    -0.031 C 
ATOM      3  C32 MOL d          46.813  10.450   1.986  0.00  0.00     0.007 C 
ATOM      4  N33 MOL d          46.264  11.167   0.834  0.00  0.00    -0.310 N 
ATOM      5  C34 MOL d          45.802  10.451  -0.357  0.00  0.00     0.007 C 
ATOM      6  C35 MOL d          46.929   9.579  -0.846  0.00  0.00    -0.031 C 
ATOM      7  H8  MOL d          46.842   7.973   0.575  0.00  0.00     0.072 H 
ATOM      8  H9  MOL d          48.785  10.239   1.201  0.00  0.00     0.038 H 
ATOM      9  H10 MOL d          48.258   8.910   2.288  0.00  0.00     0.038 H 
ATOM     10  H11 MOL d          47.191  11.166   2.730  0.00  0.00     0.065 H 
ATOM     11  H12 MOL d          46.036   9.821   2.443  0.00  0.00     0.065 H 
ATOM     12  H13 MOL d          45.522  11.172  -1.140  0.00  0.00     0.065 H 
ATOM     13  H14 MOL d          44.931   9.829  -0.104  0.00  0.00     0.065 H 
ATOM     14  H15 MOL d          46.536   8.899  -1.616  0.00  0.00     0.038 H 
ATOM     15  H16 MOL d          47.704  10.222  -1.286  0.00  0.00     0.038 H 
ENDROOT
BRANCH   1  16
ATOM     16  N29 MOL d          48.751   8.105  -0.221  0.00  0.00    -0.385 N 
ATOM     17  H7  MOL d          49.464   8.680  -0.691  0.00  0.00     0.160 HD
BRANCH  16  18
ATOM     18  C11 MOL d          48.976   6.771  -0.084  0.00  0.00     0.029 A 
ATOM     19  C10 MOL d          49.630   6.418   1.139  0.00  0.00    -0.046 A 
ATOM     20  C9  MOL d          49.933   5.018   1.392  0.00  0.00    -0.015 A 
ATOM     21  H1  MOL d          49.895   7.179   1.863  0.00  0.00     0.088 H 
ATOM     22  C14 MOL d          49.533   3.991   0.437  0.00  0.00    -0.072 A 
ATOM     23  C13 MOL d          48.890   4.332  -0.799  0.00  0.00    -0.080 A 
ATOM     24  H4  MOL d          49.726   2.950   0.665  0.00  0.00     0.084 H 
ATOM     25  C12 MOL d          48.606   5.735  -1.047  0.00  0.00    -0.058 A 
ATOM     26  H3  MOL d          48.625   3.570  -1.523  0.00  0.00     0.083 H 
ATOM     27  H2  MOL d          48.108   6.021  -1.967  0.00  0.00     0.086 H 
BRANCH  20  28
ATOM     28  C5  MOL d          50.671   4.581   2.594  0.00  0.00     0.036 A 
ATOM     29  S1  MOL d          49.931   4.789   4.227  0.00  0.00    -0.078 SA
ATOM     30  C2  MOL d          51.329   4.027   5.043  0.00  0.00     0.117 A 
ATOM     31  C3  MOL d          52.237   3.668   4.151  0.00  0.00     0.112 A 
ATOM     32  C4  MOL d          51.842   3.946   2.762  0.00  0.00     0.064 A 
ATOM     33 BR19 MOL d          52.927   3.274   1.406  0.00  0.00    -0.047 Br
BRANCH  30  34
ATOM     34  C6  MOL d          51.390   4.004   6.488  0.00  0.00     0.219 C 
ATOM     35  O7  MOL d          50.836   2.990   6.964  0.00  0.00    -0.643 OA
ATOM     36  O8  MOL d          51.923   4.897   7.183  0.00  0.00    -0.643 OA
ENDBRANCH  30  34
BRANCH  31  37
ATOM     37  O20 MOL d          53.344   3.042   4.522  0.00  0.00    -0.338 OA
BRANCH  37  38
ATOM     38  C21 MOL d          53.412   1.667   4.204  0.00  0.00     0.106 C 
ATOM     39  H5  MOL d          54.426   1.402   3.871  0.00  0.00     0.091 H 
ATOM     40  H6  MOL d          52.691   1.423   3.411  0.00  0.00     0.091 H 
BRANCH  38  41
ATOM     41  C22 MOL d          53.077   0.951   5.435  0.00  0.00     0.198 C 
ATOM     42  O25 MOL d          53.851   1.133   6.392  0.00  0.00    -0.646 OA
ATOM     43  O26 MOL d          52.065   0.214   5.474  0.00  0.00    -0.646 OA
ENDBRANCH  38  41
ENDBRANCH  37  38
ENDBRANCH  31  37
ENDBRANCH  20  28
ENDBRANCH  16  18
ENDBRANCH   1  16
BRANCH   4  44
ATOM     44  S46 MOL d          45.575  12.712   1.071  0.00  0.00     0.232 S 
ATOM     45  O47 MOL d          44.209  12.471   1.475  0.00  0.00    -0.205 OA
ATOM     46  O48 MOL d          45.846  13.462  -0.141  0.00  0.00    -0.205 OA
BRANCH  44  47
ATOM     47  C49 MOL d          46.470  13.287   2.531  0.00  0.00     0.070 C 
ATOM     48  H17 MOL d          47.532  13.009   2.448  0.00  0.00     0.066 H 
ATOM     49  H18 MOL d          46.041  12.826   3.433  0.00  0.00     0.066 H 
BRANCH  47  50
ATOM     50  C50 MOL d          46.344  14.778   2.617  0.00  0.00    -0.043 A 
ATOM     51  C53 MOL d          45.059  15.339   2.252  0.00  0.00    -0.076 A 
ATOM     52  C54 MOL d          44.879  16.763   2.434  0.00  0.00    -0.082 A 
ATOM     53  H19 MOL d          44.264  14.717   1.857  0.00  0.00     0.084 H 
ATOM     54  C55 MOL d          45.988  17.576   2.930  0.00  0.00    -0.083 A 
ATOM     55  H20 MOL d          43.926  17.226   2.205  0.00  0.00     0.083 H 
ATOM     56  C56 MOL d          47.265  16.997   3.305  0.00  0.00    -0.082 A 
ATOM     57  H21 MOL d          45.852  18.648   3.021  0.00  0.00     0.083 H 
ATOM     58  C57 MOL d          47.464  15.567   3.141  0.00  0.00    -0.076 A 
ATOM     59  H22 MOL d          48.058  17.621   3.700  0.00  0.00     0.083 H 
ATOM     60  H23 MOL d          48.407  15.099   3.397  0.00  0.00     0.084 H 
ENDBRANCH  47  50
ENDBRANCH  44  47
ENDBRANCH   4  44
TORSDOF 10
ENDMDL
MODEL 4
REMARK VINA RESULT:      -6.6      1.863      3.044
REMARK  10 active torsions:
REMARK  status: ('A' for Active; 'I' for Inactive)
REMARK    1  A    between atoms: C2_2  and  C6_6 
REMARK    2  A    between atoms: C3_3  and  O20_16 
REMARK    3  A    between atoms: C5_5  and  C9_9 
REMARK    4  A    between atoms: C11_11  and  N29_21 
REMARK    5  A    between atoms: O20_16  and  C21_17 
REMARK    6  A    between atoms: C21_17  and  C22_18 
REMARK    7  A    between atoms: N29_21  and  C30_22 
REMARK    8  A    between atoms: N33_25  and  S46_28 
REMARK    9  A    between atoms: S46_28  and  C49_31 
REMARK   10  A    between atoms: C49_31  and  C50_32 
ROOT
ATOM      1  C30 MOL d          49.895   9.745   0.291  0.00  0.00     0.012 C 
ATOM      2  C31 MOL d          49.433  10.328  -1.044  0.00  0.00    -0.031 C 
ATOM      3  C32 MOL d          48.480  11.491  -0.893  0.00  0.00     0.007 C 
ATOM      4  N33 MOL d          47.432  11.076   0.040  0.00  0.00    -0.310 N 
ATOM      5  C34 MOL d          47.760  10.569   1.375  0.00  0.00     0.007 C 
ATOM      6  C35 MOL d          48.724   9.422   1.217  0.00  0.00    -0.031 C 
ATOM      7  H8  MOL d          50.543  10.478   0.794  0.00  0.00     0.072 H 
ATOM      8  H9  MOL d          48.927   9.535  -1.615  0.00  0.00     0.038 H 
ATOM      9  H10 MOL d          50.318  10.671  -1.600  0.00  0.00     0.038 H 
ATOM     10  H11 MOL d          48.038  11.744  -1.867  0.00  0.00     0.065 H 
ATOM     11  H12 MOL d          49.015  12.365  -0.494  0.00  0.00     0.065 H 
ATOM     12  H13 MOL d          46.845  10.220   1.877  0.00  0.00     0.065 H 
ATOM     13  H14 MOL d          48.225  11.367   1.973  0.00  0.00     0.065 H 
ATOM     14  H15 MOL d          49.122   9.161   2.208  0.00  0.00     0.038 H 
ATOM     15  H16 MOL d          48.178   8.562   0.803  0.00  0.00     0.038 H 
ENDROOT
BRANCH   1  16
ATOM     16  N29 MOL d          50.648   8.559   0.017  0.00  0.00    -0.385 N 
ATOM     17  H7  MOL d          51.657   8.646  -0.166  0.00  0.00     0.160 HD
BRANCH  16  18
ATOM     18  C11 MOL d          50.084   7.322  -0.010  0.00  0.00     0.029 A 
ATOM     19  C10 MOL d          50.398   6.518   1.132  0.00  0.00    -0.046 A 
ATOM     20  C9  MOL d          49.859   5.170   1.209  0.00  0.00    -0.015 A 
ATOM     21  H1  MOL d          51.026   6.907   1.925  0.00  0.00     0.088 H 
ATOM     22  C14 MOL d          48.976   4.666   0.163  0.00  0.00    -0.072 A 
ATOM     23  C13 MOL d          48.665   5.456  -0.994  0.00  0.00    -0.080 A 
ATOM     24  H4  MOL d          48.547   3.676   0.261  0.00  0.00     0.084 H 
ATOM     25  C12 MOL d          49.221   6.796  -1.066  0.00  0.00    -0.058 A 
ATOM     26  H3  MOL d          48.036   5.066  -1.787  0.00  0.00     0.083 H 
ATOM     27  H2  MOL d          48.991   7.420  -1.922  0.00  0.00     0.086 H 
BRANCH  20  28
ATOM     28  C5  MOL d          50.196   4.253   2.317  0.00  0.00     0.036 A 
ATOM     29  S1  MOL d          48.972   3.063   2.902  0.00  0.00    -0.078 SA
ATOM     30  C2  MOL d          50.102   2.377   4.107  0.00  0.00     0.117 A 
ATOM     31  C3  MOL d          51.266   3.002   4.049  0.00  0.00     0.112 A 
ATOM     32  C4  MOL d          51.328   4.036   3.004  0.00  0.00     0.064 A 
ATOM     33 BR19 MOL d          52.983   4.819   2.664  0.00  0.00    -0.047 Br
BRANCH  30  34
ATOM     34  C6  MOL d          49.630   1.384   5.048  0.00  0.00     0.219 C 
ATOM     35  O7  MOL d          50.091   0.249   4.799  0.00  0.00    -0.643 OA
ATOM     36  O8  MOL d          48.846   1.626   5.991  0.00  0.00    -0.643 OA
ENDBRANCH  30  34
BRANCH  31  37
ATOM     37  O20 MOL d          52.276   2.633   4.823  0.00  0.00    -0.338 OA
BRANCH  37  38
ATOM     38  C21 MOL d          52.137   2.922   6.199  0.00  0.00     0.106 C 
ATOM     39  H5  MOL d          52.799   2.276   6.794  0.00  0.00     0.091 H 
ATOM     40  H6  MOL d          51.095   2.772   6.517  0.00  0.00     0.091 H 
BRANCH  38  41
ATOM     41  C22 MOL d          52.519   4.326   6.357  0.00  0.00     0.198 C 
ATOM     42  O25 MOL d          51.603   5.100   6.690  0.00  0.00    -0.646 OA
ATOM     43  O26 MOL d          53.705   4.677   6.160  0.00  0.00    -0.646 OA
ENDBRANCH  38  41
ENDBRANCH  37  38
ENDBRANCH  31  37
ENDBRANCH  20  28
ENDBRANCH  16  18
ENDBRANCH   1  16
BRANCH   4  44
ATOM     44  S46 MOL d          45.865  11.735  -0.125  0.00  0.00     0.232 S 
ATOM     45  O47 MOL d          45.044  10.663  -0.640  0.00  0.00    -0.205 OA
ATOM     46  O48 MOL d          46.022  12.955  -0.895  0.00  0.00    -0.205 OA
BRANCH  44  47
ATOM     47  C49 MOL d          45.394  11.985   1.601  0.00  0.00     0.070 C 
ATOM     48  H17 MOL d          46.035  11.372   2.252  0.00  0.00     0.066 H 
ATOM     49  H18 MOL d          44.343  11.695   1.744  0.00  0.00     0.066 H 
BRANCH  47  50
ATOM     50  C50 MOL d          45.568  13.435   1.942  0.00  0.00    -0.043 A 
ATOM     51  C53 MOL d          44.483  14.320   1.566  0.00  0.00    -0.076 A 
ATOM     52  C54 MOL d          44.579  15.702   1.985  0.00  0.00    -0.082 A 
ATOM     53  H19 MOL d          43.636  13.962   0.994  0.00  0.00     0.084 H 
ATOM     54  C55 MOL d          45.758  16.158   2.720  0.00  0.00    -0.083 A 
ATOM     55  H20 MOL d          43.779  16.397   1.756  0.00  0.00     0.083 H 
ATOM     56  C56 MOL d          46.829  15.255   3.100  0.00  0.00    -0.082 A 
ATOM     57  H21 MOL d          45.834  17.205   2.989  0.00  0.00     0.083 H 
ATOM     58  C57 MOL d          46.748  13.860   2.700  0.00  0.00    -0.076 A 
ATOM     59  H22 MOL d          47.675  15.616   3.673  0.00  0.00     0.083 H 
ATOM     60  H23 MOL d          47.534  13.159   2.954  0.00  0.00     0.084 H 
ENDBRANCH  47  50
ENDBRANCH  44  47
ENDBRANCH   4  44
TORSDOF 10
ENDMDL
MODEL 5
REMARK VINA RESULT:      -6.6      3.151     11.148
REMARK  10 active torsions:
REMARK  status: ('A' for Active; 'I' for Inactive)
REMARK    1  A    between atoms: C2_2  and  C6_6 
REMARK    2  A    between atoms: C3_3  and  O20_16 
REMARK    3  A    between atoms: C5_5  and  C9_9 
REMARK    4  A    between atoms: C11_11  and  N29_21 
REMARK    5  A    between atoms: O20_16  and  C21_17 
REMARK    6  A    between atoms: C21_17  and  C22_18 
REMARK    7  A    between atoms: N29_21  and  C30_22 
REMARK    8  A    between atoms: N33_25  and  S46_28 
REMARK    9  A    between atoms: S46_28  and  C49_31 
REMARK   10  A    between atoms: C49_31  and  C50_32 
ROOT
ATOM      1  C30 MOL d          49.057   7.808   3.357  0.00  0.00     0.012 C 
ATOM      2  C31 MOL d          48.554   6.538   4.045  0.00  0.00    -0.031 C 
ATOM      3  C32 MOL d          49.385   6.136   5.241  0.00  0.00     0.007 C 
ATOM      4  N33 MOL d          50.786   6.143   4.819  0.00  0.00    -0.310 N 
ATOM      5  C34 MOL d          51.392   7.331   4.213  0.00  0.00     0.007 C 
ATOM      6  C35 MOL d          50.547   7.737   3.033  0.00  0.00    -0.031 C 
ATOM      7  H8  MOL d          48.886   8.665   4.025  0.00  0.00     0.072 H 
ATOM      8  H9  MOL d          48.571   5.716   3.315  0.00  0.00     0.038 H 
ATOM      9  H10 MOL d          47.520   6.709   4.380  0.00  0.00     0.038 H 
ATOM     10  H11 MOL d          49.098   5.129   5.577  0.00  0.00     0.065 H 
ATOM     11  H12 MOL d          49.235   6.853   6.062  0.00  0.00     0.065 H 
ATOM     12  H13 MOL d          52.414   7.100   3.878  0.00  0.00     0.065 H 
ATOM     13  H14 MOL d          51.423   8.149   4.948  0.00  0.00     0.065 H 
ATOM     14  H15 MOL d          50.879   8.728   2.691  0.00  0.00     0.038 H 
ATOM     15  H16 MOL d          50.696   7.003   2.229  0.00  0.00     0.038 H 
ENDROOT
BRANCH   1  16
ATOM     16  N29 MOL d          48.300   7.987   2.156  0.00  0.00    -0.385 N 
ATOM     17  H7  MOL d          47.714   7.210   1.820  0.00  0.00     0.160 HD
BRANCH  16  18
ATOM     18  C11 MOL d          48.323   9.143   1.439  0.00  0.00     0.029 A 
ATOM     19  C10 MOL d          47.594  10.214   2.048  0.00  0.00    -0.046 A 
ATOM     20  C9  MOL d          47.539  11.498   1.367  0.00  0.00    -0.015 A 
ATOM     21  H1  MOL d          47.093  10.071   2.997  0.00  0.00     0.088 H 
ATOM     22  C14 MOL d          48.254  11.700   0.112  0.00  0.00    -0.072 A 
ATOM     23  C13 MOL d          48.976  10.631  -0.515  0.00  0.00    -0.080 A 
ATOM     24  H4  MOL d          48.239  12.677  -0.356  0.00  0.00     0.084 H 
ATOM     25  C12 MOL d          49.012   9.349   0.167  0.00  0.00    -0.058 A 
ATOM     26  H3  MOL d          49.477  10.775  -1.466  0.00  0.00     0.083 H 
ATOM     27  H2  MOL d          49.562   8.527  -0.277  0.00  0.00     0.086 H 
BRANCH  20  28
ATOM     28  C5  MOL d          46.747  12.629   1.892  0.00  0.00     0.036 A 
ATOM     29  S1  MOL d          47.322  13.528   3.348  0.00  0.00    -0.078 SA
ATOM     30  C2  MOL d          45.942  14.664   3.286  0.00  0.00     0.117 A 
ATOM     31  C3  MOL d          45.152  14.368   2.268  0.00  0.00     0.112 A 
ATOM     32  C4  MOL d          45.635  13.240   1.455  0.00  0.00     0.064 A 
ATOM     33 BR19 MOL d          44.740  12.880  -0.137  0.00  0.00    -0.047 Br
BRANCH  30  34
ATOM     34  C6  MOL d          45.761  15.630   4.348  0.00  0.00     0.219 C 
ATOM     35  O7  MOL d          46.782  16.328   4.525  0.00  0.00    -0.643 OA
ATOM     36  O8  MOL d          44.712  15.747   5.020  0.00  0.00    -0.643 OA
ENDBRANCH  30  34
BRANCH  31  37
ATOM     37  O20 MOL d          44.084  15.104   1.998  0.00  0.00    -0.338 OA
BRANCH  37  38
ATOM     38  C21 MOL d          44.109  15.800   0.769  0.00  0.00     0.106 C 
ATOM     39  H5  MOL d          43.196  15.589   0.192  0.00  0.00     0.091 H 
ATOM     40  H6  MOL d          44.990  15.506   0.181  0.00  0.00     0.091 H 
BRANCH  38  41
ATOM     41  C22 MOL d          44.177  17.221   1.111  0.00  0.00     0.198 C 
ATOM     42  O25 MOL d          44.610  17.971   0.216  0.00  0.00    -0.646 OA
ATOM     43  O26 MOL d          43.811  17.610   2.244  0.00  0.00    -0.646 OA
ENDBRANCH  38  41
ENDBRANCH  37  38
ENDBRANCH  31  37
ENDBRANCH  20  28
ENDBRANCH  16  18
ENDBRANCH   1  16
BRANCH   4  44
ATOM     44  S46 MOL d          51.882   5.064   5.562  0.00  0.00     0.232 S 
ATOM     45  O47 MOL d          51.443   4.946   6.934  0.00  0.00    -0.205 OA
ATOM     46  O48 MOL d          53.209   5.576   5.272  0.00  0.00    -0.205 OA
BRANCH  44  47
ATOM     47  C49 MOL d          51.475   3.510   4.736  0.00  0.00     0.070 C 
ATOM     48  H17 MOL d          50.474   3.176   5.048  0.00  0.00     0.066 H 
ATOM     49  H18 MOL d          52.217   2.743   5.004  0.00  0.00     0.066 H 
BRANCH  47  50
ATOM     50  C50 MOL d          51.493   3.733   3.254  0.00  0.00    -0.043 A 
ATOM     51  C53 MOL d          50.224   3.596   2.565  0.00  0.00    -0.076 A 
ATOM     52  C54 MOL d          50.197   3.917   1.155  0.00  0.00    -0.082 A 
ATOM     53  H19 MOL d          49.333   3.268   3.086  0.00  0.00     0.084 H 
ATOM     54  C55 MOL d          51.428   4.317   0.477  0.00  0.00    -0.083 A 
ATOM     55  H20 MOL d          49.266   3.861   0.602  0.00  0.00     0.083 H 
ATOM     56  C56 MOL d          52.688   4.461   1.184  0.00  0.00    -0.082 A 
ATOM     57  H21 MOL d          51.400   4.512  -0.589  0.00  0.00     0.083 H 
ATOM     58  C57 MOL d          52.737   4.157   2.604  0.00  0.00    -0.076 A 
ATOM     59  H22 MOL d          53.578   4.791   0.660  0.00  0.00     0.083 H 
ATOM     60  H23 MOL d          53.661   4.240   3.163  0.00  0.00     0.084 H 
ENDBRANCH  47  50
ENDBRANCH  44  47
ENDBRANCH   4  44
TORSDOF 10
ENDMDL
MODEL 6
REMARK VINA RESULT:      -5.8      2.052      2.721
REMARK  10 active torsions:
REMARK  status: ('A' for Active; 'I' for Inactive)
REMARK    1  A    between atoms: C2_2  and  C6_6 
REMARK    2  A    between atoms: C3_3  and  O20_16 
REMARK    3  A    between atoms: C5_5  and  C9_9 
REMARK    4  A    between atoms: C11_11  and  N29_21 
REMARK    5  A    between atoms: O20_16  and  C21_17 
REMARK    6  A    between atoms: C21_17  and  C22_18 
REMARK    7  A    between atoms: N29_21  and  C30_22 
REMARK    8  A    between atoms: N33_25  and  S46_28 
REMARK    9  A    between atoms: S46_28  and  C49_31 
REMARK   10  A    between atoms: C49_31  and  C50_32 
ROOT
ATOM      1  C30 MOL d          48.779   9.798   0.386  0.00  0.00     0.012 C 
ATOM      2  C31 MOL d          48.904  11.160  -0.298  0.00  0.00    -0.031 C 
ATOM      3  C32 MOL d          47.877  12.164   0.174  0.00  0.00     0.007 C 
ATOM      4  N33 MOL d          46.568  11.512   0.105  0.00  0.00    -0.310 N 
ATOM      5  C34 MOL d          46.317  10.238   0.783  0.00  0.00     0.007 C 
ATOM      6  C35 MOL d          47.356   9.249   0.322  0.00  0.00    -0.031 C 
ATOM      7  H8  MOL d          49.064   9.904   1.443  0.00  0.00     0.072 H 
ATOM      8  H9  MOL d          48.782  11.019  -1.382  0.00  0.00     0.038 H 
ATOM      9  H10 MOL d          49.907  11.564  -0.092  0.00  0.00     0.038 H 
ATOM     10  H11 MOL d          47.890  13.050  -0.477  0.00  0.00     0.065 H 
ATOM     11  H12 MOL d          48.093  12.465   1.209  0.00  0.00     0.065 H 
ATOM     12  H13 MOL d          45.313   9.870   0.527  0.00  0.00     0.065 H 
ATOM     13  H14 MOL d          46.391  10.375   1.872  0.00  0.00     0.065 H 
ATOM     14  H15 MOL d          47.297   8.356   0.962  0.00  0.00     0.038 H 
ATOM     15  H16 MOL d          47.135   8.970  -0.718  0.00  0.00     0.038 H 
ENDROOT
BRANCH   1  16
ATOM     16  N29 MOL d          49.685   8.897  -0.260  0.00  0.00    -0.385 N 
ATOM     17  H7  MOL d          50.458   9.288  -0.816  0.00  0.00     0.160 HD
BRANCH  16  18
ATOM     18  C11 MOL d          49.565   7.546  -0.167  0.00  0.00     0.029 A 
ATOM     19  C10 MOL d          50.413   6.958   0.825  0.00  0.00    -0.046 A 
ATOM     20  C9  MOL d          50.380   5.515   1.008  0.00  0.00    -0.015 A 
ATOM     21  H1  MOL d          51.067   7.575   1.429  0.00  0.00     0.088 H 
ATOM     22  C14 MOL d          49.464   4.693   0.226  0.00  0.00    -0.072 A 
ATOM     23  C13 MOL d          48.619   5.267  -0.781  0.00  0.00    -0.080 A 
ATOM     24  H4  MOL d          49.420   3.625   0.409  0.00  0.00     0.084 H 
ATOM     25  C12 MOL d          48.672   6.708  -0.965  0.00  0.00    -0.058 A 
ATOM     26  H3  MOL d          47.965   4.649  -1.385  0.00  0.00     0.083 H 
ATOM     27  H2  MOL d          48.035   7.171  -1.710  0.00  0.00     0.086 H 
BRANCH  20  28
ATOM     28  C5  MOL d          51.275   4.825   1.958  0.00  0.00     0.036 A 
ATOM     29  S1  MOL d          51.912   3.184   1.561  0.00  0.00    -0.078 SA
ATOM     30  C2  MOL d          52.866   3.105   3.073  0.00  0.00     0.117 A 
ATOM     31  C3  MOL d          52.698   4.211   3.777  0.00  0.00     0.112 A 
ATOM     32  C4  MOL d          51.829   5.201   3.121  0.00  0.00     0.064 A 
ATOM     33 BR19 MOL d          51.706   6.888   3.899  0.00  0.00    -0.047 Br
BRANCH  30  34
ATOM     34  C6  MOL d          53.560   1.883   3.418  0.00  0.00     0.219 C 
ATOM     35  O7  MOL d          53.884   1.227   2.405  0.00  0.00    -0.643 OA
ATOM     36  O8  MOL d          53.801   1.519   4.590  0.00  0.00    -0.643 OA
ENDBRANCH  30  34
BRANCH  31  37
ATOM     37  O20 MOL d          53.344   4.395   4.919  0.00  0.00    -0.338 OA
BRANCH  37  38
ATOM     38  C21 MOL d          52.950   3.565   5.992  0.00  0.00     0.106 C 
ATOM     39  H5  MOL d          53.687   3.618   6.807  0.00  0.00     0.091 H 
ATOM     40  H6  MOL d          52.854   2.523   5.653  0.00  0.00     0.091 H 
BRANCH  38  41
ATOM     41  C22 MOL d          51.655   4.075   6.443  0.00  0.00     0.198 C 
ATOM     42  O25 MOL d          51.684   5.162   7.048  0.00  0.00    -0.646 OA
ATOM     43  O26 MOL d          50.611   3.423   6.210  0.00  0.00    -0.646 OA
ENDBRANCH  38  41
ENDBRANCH  37  38
ENDBRANCH  31  37
ENDBRANCH  20  28
ENDBRANCH  16  18
ENDBRANCH   1  16
BRANCH   4  44
ATOM     44  S46 MOL d          45.182  12.462  -0.199  0.00  0.00     0.232 S 
ATOM     45  O47 MOL d          44.258  11.594  -0.892  0.00  0.00    -0.205 OA
ATOM     46  O48 MOL d          45.659  13.671  -0.846  0.00  0.00    -0.205 OA
BRANCH  44  47
ATOM     47  C49 MOL d          44.537  12.704   1.471  0.00  0.00     0.070 C 
ATOM     48  H17 MOL d          44.906  11.903   2.130  0.00  0.00     0.066 H 
ATOM     49  H18 MOL d          43.438  12.683   1.450  0.00  0.00     0.066 H 
BRANCH  47  50
ATOM     50  C50 MOL d          45.006  14.033   1.982  0.00  0.00    -0.043 A 
ATOM     51  C53 MOL d          46.266  14.040   2.700  0.00  0.00    -0.076 A 
ATOM     52  C54 MOL d          46.793  15.326   3.104  0.00  0.00    -0.082 A 
ATOM     53  H19 MOL d          46.791  13.119   2.926  0.00  0.00     0.084 H 
ATOM     54  C55 MOL d          46.035  16.543   2.817  0.00  0.00    -0.083 A 
ATOM     55  H20 MOL d          47.746  15.387   3.616  0.00  0.00     0.083 H 
ATOM     56  C56 MOL d          44.782  16.519   2.085  0.00  0.00    -0.082 A 
ATOM     57  H21 MOL d          46.423  17.494   3.164  0.00  0.00     0.083 H 
ATOM     58  C57 MOL d          44.240  15.240   1.659  0.00  0.00    -0.076 A 
ATOM     59  H22 MOL d          44.260  17.442   1.860  0.00  0.00     0.083 H 
ATOM     60  H23 MOL d          43.301  15.181   1.122  0.00  0.00     0.084 H 
ENDBRANCH  47  50
ENDBRANCH  44  47
ENDBRANCH   4  44
TORSDOF 10
ENDMDL
MODEL 7
REMARK VINA RESULT:      -5.6      3.253     10.016
REMARK  10 active torsions:
REMARK  status: ('A' for Active; 'I' for Inactive)
REMARK    1  A    between atoms: C2_2  and  C6_6 
REMARK    2  A    between atoms: C3_3  and  O20_16 
REMARK    3  A    between atoms: C5_5  and  C9_9 
REMARK    4  A    between atoms: C11_11  and  N29_21 
REMARK    5  A    between atoms: O20_16  and  C21_17 
REMARK    6  A    between atoms: C21_17  and  C22_18 
REMARK    7  A    between atoms: N29_21  and  C30_22 
REMARK    8  A    between atoms: N33_25  and  S46_28 
REMARK    9  A    between atoms: S46_28  and  C49_31 
REMARK   10  A    between atoms: C49_31  and  C50_32 
ROOT
ATOM      1  C30 MOL d          48.615   2.311   3.403  0.00  0.00     0.012 C 
ATOM      2  C31 MOL d          49.750   1.439   2.864  0.00  0.00    -0.031 C 
ATOM      3  C32 MOL d          50.648   0.888   3.948  0.00  0.00     0.007 C 
ATOM      4  N33 MOL d          51.032   2.010   4.806  0.00  0.00    -0.310 N 
ATOM      5  C34 MOL d          50.023   2.868   5.432  0.00  0.00     0.007 C 
ATOM      6  C35 MOL d          49.121   3.398   4.348  0.00  0.00    -0.031 C 
ATOM      7  H8  MOL d          47.908   1.674   3.953  0.00  0.00     0.072 H 
ATOM      8  H9  MOL d          50.360   2.046   2.179  0.00  0.00     0.038 H 
ATOM      9  H10 MOL d          49.310   0.595   2.313  0.00  0.00     0.038 H 
ATOM     10  H11 MOL d          51.543   0.434   3.499  0.00  0.00     0.065 H 
ATOM     11  H12 MOL d          50.108   0.132   4.536  0.00  0.00     0.065 H 
ATOM     12  H13 MOL d          50.515   3.705   5.950  0.00  0.00     0.065 H 
ATOM     13  H14 MOL d          49.435   2.285   6.155  0.00  0.00     0.065 H 
ATOM     14  H15 MOL d          48.254   3.883   4.821  0.00  0.00     0.038 H 
ATOM     15  H16 MOL d          49.680   4.140   3.760  0.00  0.00     0.038 H 
ENDROOT
BRANCH   1  16
ATOM     16  N29 MOL d          47.946   2.903   2.284  0.00  0.00    -0.385 N 
ATOM     17  H7  MOL d          46.950   2.690   2.135  0.00  0.00     0.160 HD
BRANCH  16  18
ATOM     18  C11 MOL d          48.573   3.737   1.412  0.00  0.00     0.029 A 
ATOM     19  C10 MOL d          48.214   5.114   1.570  0.00  0.00    -0.046 A 
ATOM     20  C9  MOL d          48.814   6.099   0.684  0.00  0.00    -0.015 A 
ATOM     21  H1  MOL d          47.509   5.416   2.335  0.00  0.00     0.088 H 
ATOM     22  C14 MOL d          49.797   5.694  -0.314  0.00  0.00    -0.072 A 
ATOM     23  C13 MOL d          50.155   4.316  -0.492  0.00  0.00    -0.080 A 
ATOM     24  H4  MOL d          50.268   6.449  -0.933  0.00  0.00     0.084 H 
ATOM     25  C12 MOL d          49.539   3.340   0.390  0.00  0.00    -0.058 A 
ATOM     26  H3  MOL d          50.861   4.014  -1.258  0.00  0.00     0.083 H 
ATOM     27  H2  MOL d          49.801   2.292   0.286  0.00  0.00     0.086 H 
BRANCH  20  28
ATOM     28  C5  MOL d          48.441   7.527   0.734  0.00  0.00     0.036 A 
ATOM     29  S1  MOL d          47.640   8.297  -0.689  0.00  0.00    -0.078 SA
ATOM     30  C2  MOL d          47.496   9.872   0.147  0.00  0.00     0.117 A 
ATOM     31  C3  MOL d          48.008   9.791   1.363  0.00  0.00     0.112 A 
ATOM     32  C4  MOL d          48.504   8.449   1.707  0.00  0.00     0.064 A 
ATOM     33 BR19 MOL d          49.029   8.150   3.468  0.00  0.00    -0.047 Br
BRANCH  30  34
ATOM     34  C6  MOL d          47.003  11.024  -0.576  0.00  0.00     0.219 C 
ATOM     35  O7  MOL d          47.932  11.701  -1.066  0.00  0.00    -0.643 OA
ATOM     36  O8  MOL d          45.792  11.316  -0.691  0.00  0.00    -0.643 OA
ENDBRANCH  30  34
BRANCH  31  37
ATOM     37  O20 MOL d          47.974  10.829   2.186  0.00  0.00    -0.338 OA
BRANCH  37  38
ATOM     38  C21 MOL d          46.688  11.271   2.570  0.00  0.00     0.106 C 
ATOM     39  H5  MOL d          46.392  10.803   3.521  0.00  0.00     0.091 H 
ATOM     40  H6  MOL d          45.951  11.020   1.793  0.00  0.00     0.091 H 
BRANCH  38  41
ATOM     41  C22 MOL d          46.790  12.722   2.726  0.00  0.00     0.198 C 
ATOM     42  O25 MOL d          46.366  13.179   3.804  0.00  0.00    -0.646 OA
ATOM     43  O26 MOL d          47.280  13.417   1.808  0.00  0.00    -0.646 OA
ENDBRANCH  38  41
ENDBRANCH  37  38
ENDBRANCH  31  37
ENDBRANCH  20  28
ENDBRANCH  16  18
ENDBRANCH   1  16
BRANCH   4  44
ATOM     44  S46 MOL d          52.548   1.972   5.592  0.00  0.00     0.232 S 
ATOM     45  O47 MOL d          52.913   0.576   5.666  0.00  0.00    -0.205 OA
ATOM     46  O48 MOL d          52.386   2.740   6.813  0.00  0.00    -0.205 OA
BRANCH  44  47
ATOM     47  C49 MOL d          53.617   2.738   4.353  0.00  0.00     0.070 C 
ATOM     48  H17 MOL d          53.706   2.075   3.480  0.00  0.00     0.066 H 
ATOM     49  H18 MOL d          54.614   2.914   4.783  0.00  0.00     0.066 H 
BRANCH  47  50
ATOM     50  C50 MOL d          53.010   4.044   3.935  0.00  0.00    -0.043 A 
ATOM     51  C53 MOL d          52.876   5.053   4.967  0.00  0.00    -0.076 A 
ATOM     52  C54 MOL d          52.398   6.358   4.563  0.00  0.00    -0.082 A 
ATOM     53  H19 MOL d          53.124   4.839   6.000  0.00  0.00     0.084 H 
ATOM     54  C55 MOL d          52.035   6.596   3.168  0.00  0.00    -0.083 A 
ATOM     55  H20 MOL d          52.310   7.155   5.292  0.00  0.00     0.083 H 
ATOM     56  C56 MOL d          52.187   5.579   2.144  0.00  0.00    -0.082 A 
ATOM     57  H21 MOL d          51.638   7.566   2.889  0.00  0.00     0.083 H 
ATOM     58  C57 MOL d          52.677   4.265   2.525  0.00  0.00    -0.076 A 
ATOM     59  H22 MOL d          51.940   5.797   1.111  0.00  0.00     0.083 H 
ATOM     60  H23 MOL d          52.792   3.476   1.791  0.00  0.00     0.084 H 
ENDBRANCH  47  50
ENDBRANCH  44  47
ENDBRANCH   4  44
TORSDOF 10
ENDMDL
MODEL 8
REMARK VINA RESULT:      -5.5      2.955     11.426
REMARK  10 active torsions:
REMARK  status: ('A' for Active; 'I' for Inactive)
REMARK    1  A    between atoms: C2_2  and  C6_6 
REMARK    2  A    between atoms: C3_3  and  O20_16 
REMARK    3  A    between atoms: C5_5  and  C9_9 
REMARK    4  A    between atoms: C11_11  and  N29_21 
REMARK    5  A    between atoms: O20_16  and  C21_17 
REMARK    6  A    between atoms: C21_17  and  C22_18 
REMARK    7  A    between atoms: N29_21  and  C30_22 
REMARK    8  A    between atoms: N33_25  and  S46_28 
REMARK    9  A    between atoms: S46_28  and  C49_31 
REMARK   10  A    between atoms: C49_31  and  C50_32 
ROOT
ATOM      1  C30 MOL d          49.373   7.248   3.479  0.00  0.00     0.012 C 
ATOM      2  C31 MOL d          49.152   6.016   4.358  0.00  0.00    -0.031 C 
ATOM      3  C32 MOL d          50.389   5.591   5.116  0.00  0.00     0.007 C 
ATOM      4  N33 MOL d          51.487   5.521   4.151  0.00  0.00    -0.310 N 
ATOM      5  C34 MOL d          51.832   6.668   3.307  0.00  0.00     0.007 C 
ATOM      6  C35 MOL d          50.591   7.097   2.570  0.00  0.00    -0.031 C 
ATOM      7  H8  MOL d          49.530   8.123   4.127  0.00  0.00     0.072 H 
ATOM      8  H9  MOL d          48.833   5.183   3.716  0.00  0.00     0.038 H 
ATOM      9  H10 MOL d          48.358   6.244   5.085  0.00  0.00     0.038 H 
ATOM     10  H11 MOL d          50.228   4.605   5.575  0.00  0.00     0.065 H 
ATOM     11  H12 MOL d          50.622   6.327   5.899  0.00  0.00     0.065 H 
ATOM     12  H13 MOL d          52.612   6.380   2.587  0.00  0.00     0.065 H 
ATOM     13  H14 MOL d          52.198   7.495   3.934  0.00  0.00     0.065 H 
ATOM     14  H15 MOL d          50.788   8.065   2.086  0.00  0.00     0.038 H 
ATOM     15  H16 MOL d          50.362   6.344   1.802  0.00  0.00     0.038 H 
ENDROOT
BRANCH   1  16
ATOM     16  N29 MOL d          48.193   7.446   2.694  0.00  0.00    -0.385 N 
ATOM     17  H7  MOL d          47.401   6.801   2.821  0.00  0.00     0.160 HD
BRANCH  16  18
ATOM     18  C11 MOL d          48.076   8.452   1.787  0.00  0.00     0.029 A 
ATOM     19  C10 MOL d          47.507   9.650   2.323  0.00  0.00    -0.046 A 
ATOM     20  C9  MOL d          47.322  10.793   1.443  0.00  0.00    -0.015 A 
ATOM     21  H1  MOL d          47.218   9.705   3.366  0.00  0.00     0.088 H 
ATOM     22  C14 MOL d          47.754  10.731   0.052  0.00  0.00    -0.072 A 
ATOM     23  C13 MOL d          48.313   9.531  -0.503  0.00  0.00    -0.080 A 
ATOM     24  H4  MOL d          47.651  11.608  -0.577  0.00  0.00     0.084 H 
ATOM     25  C12 MOL d          48.479   8.392   0.383  0.00  0.00    -0.058 A 
ATOM     26  H3  MOL d          48.601   9.477  -1.547  0.00  0.00     0.083 H 
ATOM     27  H2  MOL d          48.912   7.477  -0.006  0.00  0.00     0.086 H 
BRANCH  20  28
ATOM     28  C5  MOL d          46.675  12.039   1.901  0.00  0.00     0.036 A 
ATOM     29  S1  MOL d          47.451  13.032   3.193  0.00  0.00    -0.078 SA
ATOM     30  C2  MOL d          46.165  14.273   3.120  0.00  0.00     0.117 A 
ATOM     31  C3  MOL d          45.264  13.942   2.211  0.00  0.00     0.112 A 
ATOM     32  C4  MOL d          45.578  12.697   1.494  0.00  0.00     0.064 A 
ATOM     33 BR19 MOL d          44.514  12.251   0.032  0.00  0.00    -0.047 Br
BRANCH  30  34
ATOM     34  C6  MOL d          46.160  15.356   4.078  0.00  0.00     0.219 C 
ATOM     35  O7  MOL d          46.983  16.248   3.781  0.00  0.00    -0.643 OA
ATOM     36  O8  MOL d          45.428  15.395   5.092  0.00  0.00    -0.643 OA
ENDBRANCH  30  34
BRANCH  31  37
ATOM     37  O20 MOL d          44.236  14.737   1.951  0.00  0.00    -0.338 OA
BRANCH  37  38
ATOM     38  C21 MOL d          44.478  15.773   1.021  0.00  0.00     0.106 C 
ATOM     39  H5  MOL d          43.748  15.727   0.199  0.00  0.00     0.091 H 
ATOM     40  H6  MOL d          45.495  15.689   0.611  0.00  0.00     0.091 H 
BRANCH  38  41
ATOM     41  C22 MOL d          44.331  17.025   1.764  0.00  0.00     0.198 C 
ATOM     42  O25 MOL d          45.046  17.968   1.378  0.00  0.00    -0.646 OA
ATOM     43  O26 MOL d          43.523  17.095   2.718  0.00  0.00    -0.646 OA
ENDBRANCH  38  41
ENDBRANCH  37  38
ENDBRANCH  31  37
ENDBRANCH  20  28
ENDBRANCH  16  18
ENDBRANCH   1  16
BRANCH   4  44
ATOM     44  S46 MOL d          52.750   4.400   4.411  0.00  0.00     0.232 S 
ATOM     45  O47 MOL d          52.902   4.311   5.845  0.00  0.00    -0.205 OA
ATOM     46  O48 MOL d          53.861   4.852   3.595  0.00  0.00    -0.205 OA
BRANCH  44  47
ATOM     47  C49 MOL d          51.984   2.860   3.859  0.00  0.00     0.070 C 
ATOM     48  H17 MOL d          52.753   2.080   3.755  0.00  0.00     0.066 H 
ATOM     49  H18 MOL d          51.491   3.019   2.888  0.00  0.00     0.066 H 
BRANCH  47  50
ATOM     50  C50 MOL d          50.969   2.435   4.876  0.00  0.00    -0.043 A 
ATOM     51  C53 MOL d          49.618   2.225   4.392  0.00  0.00    -0.076 A 
ATOM     52  C54 MOL d          48.648   1.706   5.332  0.00  0.00    -0.082 A 
ATOM     53  H19 MOL d          49.347   2.447   3.367  0.00  0.00     0.084 H 
ATOM     54  C55 MOL d          49.042   1.458   6.718  0.00  0.00    -0.083 A 
ATOM     55  H20 MOL d          47.633   1.503   5.011  0.00  0.00     0.083 H 
ATOM     56  C56 MOL d          50.402   1.661   7.184  0.00  0.00    -0.082 A 
ATOM     57  H21 MOL d          48.294   1.110   7.420  0.00  0.00     0.083 H 
ATOM     58  C57 MOL d          51.396   2.169   6.253  0.00  0.00    -0.076 A 
ATOM     59  H22 MOL d          50.671   1.437   8.209  0.00  0.00     0.083 H 
ATOM     60  H23 MOL d          52.418   2.346   6.567  0.00  0.00     0.084 H 
ENDBRANCH  47  50
ENDBRANCH  44  47
ENDBRANCH   4  44
TORSDOF 10
ENDMDL
MODEL 9
REMARK VINA RESULT:      -5.1      3.699     10.017
REMARK  10 active torsions:
REMARK  status: ('A' for Active; 'I' for Inactive)
REMARK    1  A    between atoms: C2_2  and  C6_6 
REMARK    2  A    between atoms: C3_3  and  O20_16 
REMARK    3  A    between atoms: C5_5  and  C9_9 
REMARK    4  A    between atoms: C11_11  and  N29_21 
REMARK    5  A    between atoms: O20_16  and  C21_17 
REMARK    6  A    between atoms: C21_17  and  C22_18 
REMARK    7  A    between atoms: N29_21  and  C30_22 
REMARK    8  A    between atoms: N33_25  and  S46_28 
REMARK    9  A    between atoms: S46_28  and  C49_31 
REMARK   10  A    between atoms: C49_31  and  C50_32 
ROOT
ATOM      1  C30 MOL d          48.762   2.343   3.614  0.00  0.00     0.012 C 
ATOM      2  C31 MOL d          50.091   2.199   2.870  0.00  0.00    -0.031 C 
ATOM      3  C32 MOL d          51.127   1.414   3.641  0.00  0.00     0.007 C 
ATOM      4  N33 MOL d          51.188   1.982   4.989  0.00  0.00    -0.310 N 
ATOM      5  C34 MOL d          49.986   2.101   5.818  0.00  0.00     0.007 C 
ATOM      6  C35 MOL d          48.951   2.868   5.036  0.00  0.00    -0.031 C 
ATOM      7  H8  MOL d          48.277   1.358   3.669  0.00  0.00     0.072 H 
ATOM      8  H9  MOL d          50.490   3.204   2.672  0.00  0.00     0.038 H 
ATOM      9  H10 MOL d          49.902   1.685   1.916  0.00  0.00     0.038 H 
ATOM     10  H11 MOL d          52.107   1.503   3.151  0.00  0.00     0.065 H 
ATOM     11  H12 MOL d          50.837   0.355   3.691  0.00  0.00     0.065 H 
ATOM     12  H13 MOL d          50.225   2.640   6.747  0.00  0.00     0.065 H 
ATOM     13  H14 MOL d          49.601   1.100   6.064  0.00  0.00     0.065 H 
ATOM     14  H15 MOL d          47.990   2.798   5.565  0.00  0.00     0.038 H 
ATOM     15  H16 MOL d          49.264   3.921   4.981  0.00  0.00     0.038 H 
ENDROOT
BRANCH   1  16
ATOM     16  N29 MOL d          47.933   3.237   2.865  0.00  0.00    -0.385 N 
ATOM     17  H7  MOL d          47.043   3.549   3.278  0.00  0.00     0.160 HD
BRANCH  16  18
ATOM     18  C11 MOL d          48.273   3.692   1.630  0.00  0.00     0.029 A 
ATOM     19  C10 MOL d          48.580   5.090   1.594  0.00  0.00    -0.046 A 
ATOM     20  C9  MOL d          48.948   5.693   0.323  0.00  0.00    -0.015 A 
ATOM     21  H1  MOL d          48.539   5.688   2.497  0.00  0.00     0.088 H 
ATOM     22  C14 MOL d          49.048   4.876  -0.881  0.00  0.00    -0.072 A 
ATOM     23  C13 MOL d          48.729   3.478  -0.862  0.00  0.00    -0.080 A 
ATOM     24  H4  MOL d          49.369   5.335  -1.809  0.00  0.00     0.084 H 
ATOM     25  C12 MOL d          48.349   2.890   0.411  0.00  0.00    -0.058 A 
ATOM     26  H3  MOL d          48.770   2.880  -1.766  0.00  0.00     0.083 H 
ATOM     27  H2  MOL d          48.116   1.832   0.458  0.00  0.00     0.086 H 
BRANCH  20  28
ATOM     28  C5  MOL d          49.207   7.141   0.188  0.00  0.00     0.036 A 
ATOM     29  S1  MOL d          50.667   7.713  -0.706  0.00  0.00    -0.078 SA
ATOM     30  C2  MOL d          50.236   9.432  -0.465  0.00  0.00     0.117 A 
ATOM     31  C3  MOL d          49.109   9.528   0.221  0.00  0.00     0.112 A 
ATOM     32  C4  MOL d          48.508   8.227   0.552  0.00  0.00     0.064 A 
ATOM     33 BR19 MOL d          46.805   8.232   1.306  0.00  0.00    -0.047 Br
BRANCH  30  34
ATOM     34  C6  MOL d          51.155  10.467  -0.885  0.00  0.00     0.219 C 
ATOM     35  O7  MOL d          52.311  10.024  -1.057  0.00  0.00    -0.643 OA
ATOM     36  O8  MOL d          50.838  11.666  -1.048  0.00  0.00    -0.643 OA
ENDBRANCH  30  34
BRANCH  31  37
ATOM     37  O20 MOL d          48.571  10.710   0.483  0.00  0.00    -0.338 OA
BRANCH  37  38
ATOM     38  C21 MOL d          47.387  11.019  -0.223  0.00  0.00     0.106 C 
ATOM     39  H5  MOL d          46.778  10.114  -0.363  0.00  0.00     0.091 H 
ATOM     40  H6  MOL d          47.629  11.453  -1.204  0.00  0.00     0.091 H 
BRANCH  38  41
ATOM     41  C22 MOL d          46.669  11.993   0.601  0.00  0.00     0.198 C 
ATOM     42  O25 MOL d          45.471  12.166   0.308  0.00  0.00    -0.646 OA
ATOM     43  O26 MOL d          47.263  12.587   1.529  0.00  0.00    -0.646 OA
ENDBRANCH  38  41
ENDBRANCH  37  38
ENDBRANCH  31  37
ENDBRANCH  20  28
ENDBRANCH  16  18
ENDBRANCH   1  16
BRANCH   4  44
ATOM     44  S46 MOL d          52.664   1.927   5.847  0.00  0.00     0.232 S 
ATOM     45  O47 MOL d          53.638   1.412   4.912  0.00  0.00    -0.205 OA
ATOM     46  O48 MOL d          52.388   1.203   7.074  0.00  0.00    -0.205 OA
BRANCH  44  47
ATOM     47  C49 MOL d          53.017   3.685   6.070  0.00  0.00     0.070 C 
ATOM     48  H17 MOL d          54.069   3.817   6.362  0.00  0.00     0.066 H 
ATOM     49  H18 MOL d          52.365   4.097   6.855  0.00  0.00     0.066 H 
BRANCH  47  50
ATOM     50  C50 MOL d          52.759   4.396   4.776  0.00  0.00    -0.043 A 
ATOM     51  C53 MOL d          51.733   5.420   4.796  0.00  0.00    -0.076 A 
ATOM     52  C54 MOL d          51.545   6.196   3.589  0.00  0.00    -0.082 A 
ATOM     53  H19 MOL d          51.130   5.596   5.678  0.00  0.00     0.084 H 
ATOM     54  C55 MOL d          52.349   5.900   2.404  0.00  0.00    -0.083 A 
ATOM     55  H20 MOL d          50.812   6.993   3.563  0.00  0.00     0.083 H 
ATOM     56  C56 MOL d          53.382   4.881   2.405  0.00  0.00    -0.082 A 
ATOM     57  H21 MOL d          52.167   6.462   1.495  0.00  0.00     0.083 H 
ATOM     58  C57 MOL d          53.596   4.097   3.610  0.00  0.00    -0.076 A 
ATOM     59  H22 MOL d          53.984   4.707   1.521  0.00  0.00     0.083 H 
ATOM     60  H23 MOL d          54.349   3.319   3.646  0.00  0.00     0.084 H 
ENDBRANCH  47  50
ENDBRANCH  44  47
ENDBRANCH   4  44
TORSDOF 10
ENDMDL
