MODEL 1
REMARK VINA RESULT:      -5.8      0.000      0.000
REMARK  2 active torsions:
REMARK  status: ('A' for Active; 'I' for Inactive)
REMARK    1  A    between atoms: OAH_8  and  CAA_1 
REMARK    2  A    between atoms: OAH_8  and  CAI_9 
ROOT
ATOM      1  CAB BZ3 d          14.883  10.461  -0.099  0.00  0.00    -0.022 A 
ATOM      2  CAC BZ3 d          14.523   9.717  -4.610  0.00  0.00    -0.049 A 
ATOM      3  CAD BZ3 d          13.580  10.287  -0.545  0.00  0.00    -0.056 A 
ATOM      4  CAE BZ3 d          15.495   9.944  -3.635  0.00  0.00    -0.054 A 
ATOM      5  CAF BZ3 d          12.785   9.854  -2.923  0.00  0.00    -0.039 A 
ATOM      6  NAG BZ3 d          15.752  10.352  -1.144  0.00  0.00    -0.365 N 
ATOM      7  CAI BZ3 d          13.177   9.662  -4.253  0.00  0.00     0.069 A 
ATOM      8  CAJ BZ3 d          13.759  10.078  -1.945  0.00  0.00    -0.005 A 
ATOM      9  CAK BZ3 d          15.091  10.128  -2.303  0.00  0.00     0.042 A 
ATOM     10  H4  BZ3 d          15.170  10.656   0.933  0.00  0.00     0.111 H 
ATOM     11  H5  BZ3 d          14.814   9.583  -5.645  0.00  0.00     0.087 H 
ATOM     12  H6  BZ3 d          12.655  10.306   0.029  0.00  0.00     0.086 H 
ATOM     13  H7  BZ3 d          16.546   9.978  -3.901  0.00  0.00     0.087 H 
ATOM     14  H8  BZ3 d          11.735   9.828  -2.653  0.00  0.00     0.089 H 
ATOM     15  H9  BZ3 d          16.776  10.429  -1.062  0.00  0.00     0.165 HD
ENDROOT
BRANCH   7  16
ATOM     16  OAH BZ3 d          12.235   9.443  -5.231  0.00  0.00    -0.356 OA
BRANCH  16  17
ATOM     17  CAA BZ3 d          10.839   9.550  -4.943  0.00  0.00     0.010 C 
ATOM     18  H1  BZ3 d          10.392  10.329  -5.578  0.00  0.00     0.066 H 
ATOM     19  H2  BZ3 d          10.703   9.815  -3.885  0.00  0.00     0.066 H 
ATOM     20  H3  BZ3 d          10.348   8.587  -5.146  0.00  0.00     0.066 H 
ENDBRANCH  16  17
ENDBRANCH   7  16
TORSDOF 2
ENDMDL
MODEL 2
REMARK VINA RESULT:      -5.8      2.538      4.539
REMARK  2 active torsions:
REMARK  status: ('A' for Active; 'I' for Inactive)
REMARK    1  A    between atoms: OAH_8  and  CAA_1 
REMARK    2  A    between atoms: OAH_8  and  CAI_9 
ROOT
ATOM      1  CAB BZ3 d          12.292   9.209  -4.587  0.00  0.00    -0.022 A 
ATOM      2  CAC BZ3 d          14.356  10.755  -0.796  0.00  0.00    -0.049 A 
ATOM      3  CAD BZ3 d          13.678   9.127  -4.620  0.00  0.00    -0.056 A 
ATOM      4  CAE BZ3 d          13.076  10.582  -1.325  0.00  0.00    -0.054 A 
ATOM      5  CAF BZ3 d          15.329   9.836  -2.819  0.00  0.00    -0.039 A 
ATOM      6  NAG BZ3 d          11.884   9.732  -3.397  0.00  0.00    -0.365 N 
ATOM      7  CAI BZ3 d          15.475  10.374  -1.535  0.00  0.00     0.069 A 
ATOM      8  CAJ BZ3 d          14.047   9.660  -3.349  0.00  0.00    -0.005 A 
ATOM      9  CAK BZ3 d          12.943  10.036  -2.611  0.00  0.00     0.042 A 
ATOM     10  H4  BZ3 d          11.628   8.899  -5.393  0.00  0.00     0.111 H 
ATOM     11  H5  BZ3 d          14.481  11.185   0.191  0.00  0.00     0.087 H 
ATOM     12  H6  BZ3 d          14.320   8.751  -5.415  0.00  0.00     0.086 H 
ATOM     13  H7  BZ3 d          12.200  10.866  -0.753  0.00  0.00     0.087 H 
ATOM     14  H8  BZ3 d          16.203   9.557  -3.397  0.00  0.00     0.089 H 
ATOM     15  H9  BZ3 d          10.899   9.878  -3.130  0.00  0.00     0.165 HD
ENDROOT
BRANCH   7  16
ATOM     16  OAH BZ3 d          16.726  10.559  -0.995  0.00  0.00    -0.356 OA
BRANCH  16  17
ATOM     17  CAA BZ3 d          16.886  11.086   0.324  0.00  0.00     0.010 C 
ATOM     18  H1  BZ3 d          17.861  11.590   0.402  0.00  0.00     0.066 H 
ATOM     19  H2  BZ3 d          16.836  10.266   1.055  0.00  0.00     0.066 H 
ATOM     20  H3  BZ3 d          16.083  11.810   0.530  0.00  0.00     0.066 H 
ENDBRANCH  16  17
ENDBRANCH   7  16
TORSDOF 2
ENDMDL
MODEL 3
REMARK VINA RESULT:      -3.4      2.349      3.807
REMARK  2 active torsions:
REMARK  status: ('A' for Active; 'I' for Inactive)
REMARK    1  A    between atoms: OAH_8  and  CAA_1 
REMARK    2  A    between atoms: OAH_8  and  CAI_9 
ROOT
ATOM      1  CAB BZ3 d          14.705   9.671  -5.635  0.00  0.00    -0.022 A 
ATOM      2  CAC BZ3 d          15.768  10.344  -1.226  0.00  0.00    -0.049 A 
ATOM      3  CAD BZ3 d          13.609   9.691  -4.783  0.00  0.00    -0.056 A 
ATOM      4  CAE BZ3 d          16.385  10.236  -2.473  0.00  0.00    -0.054 A 
ATOM      5  CAF BZ3 d          13.597  10.017  -2.259  0.00  0.00    -0.039 A 
ATOM      6  NAG BZ3 d          15.851   9.874  -4.926  0.00  0.00    -0.365 N 
ATOM      7  CAI BZ3 d          14.381  10.245  -1.122  0.00  0.00     0.069 A 
ATOM      8  CAJ BZ3 d          14.215   9.911  -3.510  0.00  0.00    -0.005 A 
ATOM      9  CAK BZ3 d          15.588  10.014  -3.607  0.00  0.00     0.042 A 
ATOM     10  H4  BZ3 d          14.656   9.516  -6.713  0.00  0.00     0.111 H 
ATOM     11  H5  BZ3 d          16.367  10.505  -0.337  0.00  0.00     0.087 H 
ATOM     12  H6  BZ3 d          12.554   9.569  -5.024  0.00  0.00     0.086 H 
ATOM     13  H7  BZ3 d          17.461  10.322  -2.565  0.00  0.00     0.087 H 
ATOM     14  H8  BZ3 d          12.521   9.923  -2.171  0.00  0.00     0.089 H 
ATOM     15  H9  BZ3 d          16.794   9.916  -5.341  0.00  0.00     0.165 HD
ENDROOT
BRANCH   7  16
ATOM     16  OAH BZ3 d          13.796  10.348   0.118  0.00  0.00    -0.356 OA
BRANCH  16  17
ATOM     17  CAA BZ3 d          12.438   9.951   0.324  0.00  0.00     0.010 C 
ATOM     18  H1  BZ3 d          12.020  10.503   1.178  0.00  0.00     0.066 H 
ATOM     19  H2  BZ3 d          12.400   8.871   0.530  0.00  0.00     0.066 H 
ATOM     20  H3  BZ3 d          11.850  10.172  -0.579  0.00  0.00     0.066 H 
ENDBRANCH  16  17
ENDBRANCH   7  16
TORSDOF 2
ENDMDL
MODEL 4
REMARK VINA RESULT:      -2.9      2.268      4.047
REMARK  2 active torsions:
REMARK  status: ('A' for Active; 'I' for Inactive)
REMARK    1  A    between atoms: OAH_8  and  CAA_1 
REMARK    2  A    between atoms: OAH_8  and  CAI_9 
ROOT
ATOM      1  CAB BZ3 d          15.624   9.701  -5.804  0.00  0.00    -0.022 A 
ATOM      2  CAC BZ3 d          12.213   9.647  -2.741  0.00  0.00    -0.049 A 
ATOM      3  CAD BZ3 d          16.047   9.677  -4.482  0.00  0.00    -0.056 A 
ATOM      4  CAE BZ3 d          12.414   9.667  -4.122  0.00  0.00    -0.054 A 
ATOM      5  CAF BZ3 d          14.612   9.646  -2.381  0.00  0.00    -0.039 A 
ATOM      6  NAG BZ3 d          14.262   9.691  -5.858  0.00  0.00    -0.365 N 
ATOM      7  CAI BZ3 d          13.307   9.626  -1.877  0.00  0.00     0.069 A 
ATOM      8  CAJ BZ3 d          14.814   9.664  -3.765  0.00  0.00    -0.005 A 
ATOM      9  CAK BZ3 d          13.727   9.681  -4.616  0.00  0.00     0.042 A 
ATOM     10  H4  BZ3 d          16.284   9.725  -6.671  0.00  0.00     0.111 H 
ATOM     11  H5  BZ3 d          11.206   9.647  -2.339  0.00  0.00     0.087 H 
ATOM     12  H6  BZ3 d          17.064   9.671  -4.091  0.00  0.00     0.086 H 
ATOM     13  H7  BZ3 d          11.569   9.673  -4.801  0.00  0.00     0.087 H 
ATOM     14  H8  BZ3 d          15.459   9.648  -1.705  0.00  0.00     0.089 H 
ATOM     15  H9  BZ3 d          13.713   9.690  -6.730  0.00  0.00     0.165 HD
ENDROOT
BRANCH   7  16
ATOM     16  OAH BZ3 d          13.085   9.612  -0.520  0.00  0.00    -0.356 OA
BRANCH  16  17
ATOM     17  CAA BZ3 d          13.630  10.630   0.323  0.00  0.00     0.010 C 
ATOM     18  H1  BZ3 d          14.020  11.451  -0.297  0.00  0.00     0.066 H 
ATOM     19  H2  BZ3 d          14.446  10.207   0.928  0.00  0.00     0.066 H 
ATOM     20  H3  BZ3 d          12.843  11.016   0.988  0.00  0.00     0.066 H 
ENDBRANCH  16  17
ENDBRANCH   7  16
TORSDOF 2
ENDMDL
