MODEL 1
REMARK VINA RESULT:      -9.6      0.000      0.000
REMARK  6 active torsions:
REMARK  status: ('A' for Active; 'I' for Inactive)
REMARK    1  A    between atoms: C1_1  and  N1_2 
REMARK    2  A    between atoms: C14_5  and  C8_8 
REMARK    3  A    between atoms: C13_6  and  O3_28 
REMARK    4  A    between atoms: C2_11  and  C21_21 
REMARK    5  A    between atoms: C5_16  and  O5_17 
REMARK    6  A    between atoms: C7_19  and  O7_20 
ROOT
ATOM      1  C8  CPB d          39.178  37.374  30.794  0.00  0.00     0.017 A 
ATOM      2  C9  CPB d          38.452  36.228  30.429  0.00  0.00     0.102 A 
ATOM      3  O1  CPB d          38.681  35.679  29.190  0.00  0.00    -0.308 OA
ATOM      4  C2  CPB d          38.018  34.535  28.824  0.00  0.00     0.091 A 
ATOM      5  C3  CPB d          37.094  33.949  29.688  0.00  0.00    -0.000 A 
ATOM      6  C4  CPB d          36.828  34.515  30.931  0.00  0.00     0.190 A 
ATOM      7  O4  CPB d          36.005  33.983  31.680  0.00  0.00    -0.287 OA
ATOM      8  C10 CPB d          37.519  35.667  31.313  0.00  0.00     0.082 A 
ATOM      9  C5  CPB d          37.329  36.235  32.578  0.00  0.00     0.085 A 
ATOM     10  C6  CPB d          38.043  37.369  32.940  0.00  0.00    -0.017 A 
ATOM     11  C7  CPB d          38.957  37.943  32.058  0.00  0.00     0.077 A 
ATOM     12  H13 CPB d          36.576  33.041  29.386  0.00  0.00     0.094 H 
ATOM     13  H15 CPB d          37.887  37.812  33.917  0.00  0.00     0.092 H 
ENDROOT
BRANCH   1  14
ATOM     14  C14 CPB d          40.182  37.950  29.750  0.00  0.00     0.005 C 
ATOM     15  C15 CPB d          39.965  39.453  29.518  0.00  0.00    -0.033 C 
ATOM     16  C16 CPB d          40.951  39.974  28.457  0.00  0.00     0.084 C 
ATOM     17  H7  CPB d          38.935  39.622  29.171  0.00  0.00     0.036 H 
ATOM     18  H8  CPB d          40.127  39.994  30.462  0.00  0.00     0.036 H 
ATOM     19  N1  CPB d          42.346  39.651  28.839  0.00  0.00    -0.072 N 
ATOM     20  H5  CPB d          40.723  39.504  27.490  0.00  0.00     0.076 H 
ATOM     21  H6  CPB d          40.844  41.065  28.368  0.00  0.00     0.076 H 
ATOM     22  C12 CPB d          42.559  38.189  28.937  0.00  0.00     0.107 C 
ATOM     23  H4  CPB d          42.549  40.073  29.732  0.00  0.00     0.279 HD
ATOM     24  C13 CPB d          41.666  37.625  30.048  0.00  0.00     0.066 C 
ATOM     25  H11 CPB d          43.613  37.985  29.174  0.00  0.00     0.080 H 
ATOM     26  H12 CPB d          42.299  37.714  27.980  0.00  0.00     0.080 H 
ATOM     27  H10 CPB d          41.791  36.533  30.105  0.00  0.00     0.086 H 
ATOM     28  H9  CPB d          39.948  37.450  28.798  0.00  0.00     0.051 H 
BRANCH  19  29
ATOM     29  C1  CPB d          43.254  40.199  27.817  0.00  0.00     0.066 C 
ATOM     30  H1  CPB d          43.934  39.407  27.469  0.00  0.00     0.068 H 
ATOM     31  H2  CPB d          43.841  41.022  28.251  0.00  0.00     0.068 H 
ATOM     32  H3  CPB d          42.666  40.576  26.967  0.00  0.00     0.068 H 
ENDBRANCH  19  29
BRANCH  24  33
ATOM     33  O3  CPB d          42.073  38.215  31.281  0.00  0.00    -0.393 OA
ATOM     34  H21 CPB d          42.946  38.577  31.185  0.00  0.00     0.210 HD
ENDBRANCH  24  33
ENDBRANCH   1  14
BRANCH  11  35
ATOM     35  O7  CPB d          39.618  39.051  32.484  0.00  0.00    -0.360 OA
ATOM     36  H16 CPB d          39.447  39.770  31.887  0.00  0.00     0.217 HD
ENDBRANCH  11  35
BRANCH   4  37
ATOM     37  C21 CPB d          38.289  33.933  27.587  0.00  0.00     0.020 A 
ATOM     38  C22 CPB d          38.824  34.636  26.492  0.00  0.00     0.047 A 
ATOM     39 CL1  CPB d          39.168  36.328  26.570  0.00  0.00    -0.083 Cl
ATOM     40  C23 CPB d          39.087  33.980  25.289  0.00  0.00    -0.061 A 
ATOM     41  C24 CPB d          38.825  32.616  25.172  0.00  0.00    -0.081 A 
ATOM     42  H17 CPB d          39.494  34.530  24.448  0.00  0.00     0.086 H 
ATOM     43  C25 CPB d          38.304  31.909  26.255  0.00  0.00    -0.082 A 
ATOM     44  H18 CPB d          39.027  32.105  24.238  0.00  0.00     0.083 H 
ATOM     45  C26 CPB d          38.042  32.558  27.454  0.00  0.00    -0.069 A 
ATOM     46  H19 CPB d          38.103  30.848  26.161  0.00  0.00     0.083 H 
ATOM     47  H20 CPB d          37.643  31.999  28.293  0.00  0.00     0.085 H 
ENDBRANCH   4  37
BRANCH   9  48
ATOM     48  O5  CPB d          36.447  35.709  33.474  0.00  0.00    -0.360 OA
ATOM     49  H14 CPB d          36.915  35.435  34.254  0.00  0.00     0.217 HD
ENDBRANCH   9  48
TORSDOF 6
ENDMDL
MODEL 2
REMARK VINA RESULT:      -8.8      2.436      5.697
REMARK  6 active torsions:
REMARK  status: ('A' for Active; 'I' for Inactive)
REMARK    1  A    between atoms: C1_1  and  N1_2 
REMARK    2  A    between atoms: C14_5  and  C8_8 
REMARK    3  A    between atoms: C13_6  and  O3_28 
REMARK    4  A    between atoms: C2_11  and  C21_21 
REMARK    5  A    between atoms: C5_16  and  O5_17 
REMARK    6  A    between atoms: C7_19  and  O7_20 
ROOT
ATOM      1  C8  CPB d          38.997  35.795  28.593  0.00  0.00     0.017 A 
ATOM      2  C9  CPB d          38.579  36.101  29.899  0.00  0.00     0.102 A 
ATOM      3  O1  CPB d          39.094  37.223  30.502  0.00  0.00    -0.308 OA
ATOM      4  C2  CPB d          38.671  37.570  31.759  0.00  0.00     0.091 A 
ATOM      5  C3  CPB d          37.749  36.774  32.438  0.00  0.00    -0.000 A 
ATOM      6  C4  CPB d          37.246  35.616  31.852  0.00  0.00     0.190 A 
ATOM      7  O4  CPB d          36.434  34.924  32.468  0.00  0.00    -0.287 OA
ATOM      8  C10 CPB d          37.660  35.275  30.563  0.00  0.00     0.082 A 
ATOM      9  C5  CPB d          37.134  34.154  29.910  0.00  0.00     0.085 A 
ATOM     10  C6  CPB d          37.548  33.848  28.622  0.00  0.00    -0.017 A 
ATOM     11  C7  CPB d          38.476  34.653  27.964  0.00  0.00     0.077 A 
ATOM     12  H13 CPB d          37.420  37.061  33.435  0.00  0.00     0.094 H 
ATOM     13  H15 CPB d          37.146  32.974  28.122  0.00  0.00     0.092 H 
ENDROOT
BRANCH   1  14
ATOM     14  C14 CPB d          40.036  36.750  27.930  0.00  0.00     0.005 C 
ATOM     15  C15 CPB d          41.308  36.001  27.502  0.00  0.00    -0.033 C 
ATOM     16  C16 CPB d          42.319  36.984  26.885  0.00  0.00     0.084 C 
ATOM     17  H7  CPB d          41.759  35.520  28.382  0.00  0.00     0.036 H 
ATOM     18  H8  CPB d          41.045  35.235  26.759  0.00  0.00     0.036 H 
ATOM     19  N1  CPB d          41.699  37.739  25.771  0.00  0.00    -0.072 N 
ATOM     20  H5  CPB d          42.654  37.691  27.658  0.00  0.00     0.076 H 
ATOM     21  H6  CPB d          43.184  36.422  26.503  0.00  0.00     0.076 H 
ATOM     22  C12 CPB d          40.548  38.548  26.236  0.00  0.00     0.107 C 
ATOM     23  H4  CPB d          41.381  37.089  25.069  0.00  0.00     0.279 HD
ATOM     24  C13 CPB d          39.463  37.611  26.778  0.00  0.00     0.066 C 
ATOM     25  H11 CPB d          40.144  39.131  25.395  0.00  0.00     0.080 H 
ATOM     26  H12 CPB d          40.876  39.231  27.033  0.00  0.00     0.080 H 
ATOM     27  H10 CPB d          38.618  38.205  27.158  0.00  0.00     0.086 H 
ATOM     28  H9  CPB d          40.339  37.458  28.716  0.00  0.00     0.051 H 
BRANCH  19  29
ATOM     29  C1  CPB d          42.710  38.638  25.189  0.00  0.00     0.066 C 
ATOM     30  H1  CPB d          43.232  39.174  25.996  0.00  0.00     0.068 H 
ATOM     31  H2  CPB d          42.217  39.364  24.525  0.00  0.00     0.068 H 
ATOM     32  H3  CPB d          43.437  38.048  24.612  0.00  0.00     0.068 H 
ENDBRANCH  19  29
BRANCH  24  33
ATOM     33  O3  CPB d          39.018  36.784  25.705  0.00  0.00    -0.393 OA
ATOM     34  H21 CPB d          38.794  37.328  24.959  0.00  0.00     0.210 HD
ENDBRANCH  24  33
ENDBRANCH   1  14
BRANCH  11  35
ATOM     35  O7  CPB d          38.831  34.290  26.704  0.00  0.00    -0.360 OA
ATOM     36  H16 CPB d          38.634  33.369  26.574  0.00  0.00     0.217 HD
ENDBRANCH  11  35
BRANCH   4  37
ATOM     37  C21 CPB d          39.144  38.747  32.359  0.00  0.00     0.020 A 
ATOM     38  C22 CPB d          39.027  40.014  31.761  0.00  0.00     0.047 A 
ATOM     39 CL1  CPB d          38.309  40.228  30.203  0.00  0.00    -0.083 Cl
ATOM     40  C23 CPB d          39.503  41.152  32.412  0.00  0.00    -0.061 A 
ATOM     41  C24 CPB d          40.094  41.035  33.669  0.00  0.00    -0.081 A 
ATOM     42  H17 CPB d          39.414  42.125  31.942  0.00  0.00     0.086 H 
ATOM     43  C25 CPB d          40.205  39.784  34.274  0.00  0.00    -0.082 A 
ATOM     44  H18 CPB d          40.466  41.917  34.176  0.00  0.00     0.083 H 
ATOM     45  C26 CPB d          39.732  38.649  33.629  0.00  0.00    -0.069 A 
ATOM     46  H19 CPB d          40.664  39.696  35.253  0.00  0.00     0.083 H 
ATOM     47  H20 CPB d          39.817  37.681  34.111  0.00  0.00     0.085 H 
ENDBRANCH   4  37
BRANCH   9  48
ATOM     48  O5  CPB d          36.224  33.337  30.512  0.00  0.00    -0.360 OA
ATOM     49  H14 CPB d          35.462  33.845  30.762  0.00  0.00     0.217 HD
ENDBRANCH   9  48
TORSDOF 6
ENDMDL
MODEL 3
REMARK VINA RESULT:      -8.4      1.662      2.267
REMARK  6 active torsions:
REMARK  status: ('A' for Active; 'I' for Inactive)
REMARK    1  A    between atoms: C1_1  and  N1_2 
REMARK    2  A    between atoms: C14_5  and  C8_8 
REMARK    3  A    between atoms: C13_6  and  O3_28 
REMARK    4  A    between atoms: C2_11  and  C21_21 
REMARK    5  A    between atoms: C5_16  and  O5_17 
REMARK    6  A    between atoms: C7_19  and  O7_20 
ROOT
ATOM      1  C8  CPB d          39.914  37.910  30.321  0.00  0.00     0.017 A 
ATOM      2  C9  CPB d          39.066  36.802  30.155  0.00  0.00     0.102 A 
ATOM      3  O1  CPB d          39.122  36.112  28.967  0.00  0.00    -0.308 OA
ATOM      4  C2  CPB d          38.338  35.001  28.794  0.00  0.00     0.091 A 
ATOM      5  C3  CPB d          37.464  34.590  29.799  0.00  0.00    -0.000 A 
ATOM      6  C4  CPB d          37.373  35.301  30.992  0.00  0.00     0.190 A 
ATOM      7  O4  CPB d          36.593  34.924  31.869  0.00  0.00    -0.287 OA
ATOM      8  C10 CPB d          38.188  36.419  31.179  0.00  0.00     0.082 A 
ATOM      9  C5  CPB d          38.176  37.128  32.386  0.00  0.00     0.085 A 
ATOM     10  C6  CPB d          39.010  38.224  32.551  0.00  0.00    -0.017 A 
ATOM     11  C7  CPB d          39.870  38.622  31.530  0.00  0.00     0.077 A 
ATOM     12  H13 CPB d          36.848  33.706  29.650  0.00  0.00     0.094 H 
ATOM     13  H15 CPB d          38.992  38.777  33.484  0.00  0.00     0.092 H 
ENDROOT
BRANCH   1  14
ATOM     14  C14 CPB d          40.848  38.285  29.129  0.00  0.00     0.005 C 
ATOM     15  C15 CPB d          41.550  37.049  28.544  0.00  0.00    -0.033 C 
ATOM     16  C16 CPB d          42.486  37.466  27.395  0.00  0.00     0.084 C 
ATOM     17  H7  CPB d          42.139  36.558  29.333  0.00  0.00     0.036 H 
ATOM     18  H8  CPB d          40.794  36.348  28.162  0.00  0.00     0.036 H 
ATOM     19  N1  CPB d          41.743  38.238  26.372  0.00  0.00    -0.072 N 
ATOM     20  H5  CPB d          43.298  38.087  27.798  0.00  0.00     0.076 H 
ATOM     21  H6  CPB d          42.910  36.564  26.929  0.00  0.00     0.076 H 
ATOM     22  C12 CPB d          41.178  39.486  26.936  0.00  0.00     0.107 C 
ATOM     23  H4  CPB d          40.991  37.670  26.013  0.00  0.00     0.279 HD
ATOM     24  C13 CPB d          40.163  39.130  28.027  0.00  0.00     0.066 C 
ATOM     25  H11 CPB d          40.677  40.056  26.140  0.00  0.00     0.080 H 
ATOM     26  H12 CPB d          41.987  40.093  27.369  0.00  0.00     0.080 H 
ATOM     27  H10 CPB d          39.765  40.052  28.477  0.00  0.00     0.086 H 
ATOM     28  H9  CPB d          41.638  38.921  29.553  0.00  0.00     0.051 H 
BRANCH  19  29
ATOM     29  C1  CPB d          42.666  38.583  25.278  0.00  0.00     0.066 C 
ATOM     30  H1  CPB d          42.141  38.501  24.315  0.00  0.00     0.068 H 
ATOM     31  H2  CPB d          43.522  37.891  25.289  0.00  0.00     0.068 H 
ATOM     32  H3  CPB d          43.026  39.613  25.413  0.00  0.00     0.068 H 
ENDBRANCH  19  29
BRANCH  24  33
ATOM     33  O3  CPB d          39.101  38.399  27.419  0.00  0.00    -0.393 OA
ATOM     34  H21 CPB d          39.412  37.536  27.173  0.00  0.00     0.210 HD
ENDBRANCH  24  33
ENDBRANCH   1  14
BRANCH  11  35
ATOM     35  O7  CPB d          40.657  39.704  31.767  0.00  0.00    -0.360 OA
ATOM     36  H16 CPB d          40.389  40.420  31.203  0.00  0.00     0.217 HD
ENDBRANCH  11  35
BRANCH   4  37
ATOM     37  C21 CPB d          38.431  34.254  27.610  0.00  0.00     0.020 A 
ATOM     38  C22 CPB d          38.089  32.891  27.534  0.00  0.00     0.047 A 
ATOM     39 CL1  CPB d          37.548  32.004  28.915  0.00  0.00    -0.083 Cl
ATOM     40  C23 CPB d          38.188  32.202  26.325  0.00  0.00    -0.061 A 
ATOM     41  C24 CPB d          38.621  32.869  25.180  0.00  0.00    -0.081 A 
ATOM     42  H17 CPB d          37.927  31.151  26.275  0.00  0.00     0.086 H 
ATOM     43  C25 CPB d          38.953  34.223  25.245  0.00  0.00    -0.082 A 
ATOM     44  H18 CPB d          38.700  32.336  24.240  0.00  0.00     0.083 H 
ATOM     45  C26 CPB d          38.856  34.912  26.446  0.00  0.00    -0.069 A 
ATOM     46  H19 CPB d          39.289  34.739  24.352  0.00  0.00     0.083 H 
ATOM     47  H20 CPB d          39.109  35.965  26.485  0.00  0.00     0.085 H 
ENDBRANCH   4  37
BRANCH   9  48
ATOM     48  O5  CPB d          37.352  36.777  33.413  0.00  0.00    -0.360 OA
ATOM     49  H14 CPB d          37.350  37.467  34.066  0.00  0.00     0.217 HD
ENDBRANCH   9  48
TORSDOF 6
ENDMDL
MODEL 4
REMARK VINA RESULT:      -8.3      2.109      5.335
REMARK  6 active torsions:
REMARK  status: ('A' for Active; 'I' for Inactive)
REMARK    1  A    between atoms: C1_1  and  N1_2 
REMARK    2  A    between atoms: C14_5  and  C8_8 
REMARK    3  A    between atoms: C13_6  and  O3_28 
REMARK    4  A    between atoms: C2_11  and  C21_21 
REMARK    5  A    between atoms: C5_16  and  O5_17 
REMARK    6  A    between atoms: C7_19  and  O7_20 
ROOT
ATOM      1  C8  CPB d          39.018  35.667  28.407  0.00  0.00     0.017 A 
ATOM      2  C9  CPB d          38.627  36.008  29.713  0.00  0.00     0.102 A 
ATOM      3  O1  CPB d          39.182  37.126  30.288  0.00  0.00    -0.308 OA
ATOM      4  C2  CPB d          38.786  37.507  31.545  0.00  0.00     0.091 A 
ATOM      5  C3  CPB d          37.852  36.749  32.250  0.00  0.00    -0.000 A 
ATOM      6  C4  CPB d          37.309  35.596  31.692  0.00  0.00     0.190 A 
ATOM      7  O4  CPB d          36.485  34.938  32.331  0.00  0.00    -0.287 OA
ATOM      8  C10 CPB d          37.694  35.220  30.403  0.00  0.00     0.082 A 
ATOM      9  C5  CPB d          37.128  34.104  29.777  0.00  0.00     0.085 A 
ATOM     10  C6  CPB d          37.515  33.763  28.490  0.00  0.00    -0.017 A 
ATOM     11  C7  CPB d          38.456  34.530  27.806  0.00  0.00     0.077 A 
ATOM     12  H13 CPB d          37.545  37.063  33.246  0.00  0.00     0.094 H 
ATOM     13  H15 CPB d          37.082  32.893  28.011  0.00  0.00     0.092 H 
ENDROOT
BRANCH   1  14
ATOM     14  C14 CPB d          40.074  36.581  27.713  0.00  0.00     0.005 C 
ATOM     15  C15 CPB d          39.750  38.072  27.902  0.00  0.00    -0.033 C 
ATOM     16  C16 CPB d          40.795  38.937  27.174  0.00  0.00     0.084 C 
ATOM     17  H7  CPB d          38.753  38.282  27.488  0.00  0.00     0.036 H 
ATOM     18  H8  CPB d          39.761  38.313  28.974  0.00  0.00     0.036 H 
ATOM     19  N1  CPB d          42.164  38.589  27.623  0.00  0.00    -0.072 N 
ATOM     20  H5  CPB d          40.715  38.766  26.091  0.00  0.00     0.076 H 
ATOM     21  H6  CPB d          40.602  39.998  27.393  0.00  0.00     0.076 H 
ATOM     22  C12 CPB d          42.493  37.177  27.320  0.00  0.00     0.107 C 
ATOM     23  H4  CPB d          42.231  38.735  28.619  0.00  0.00     0.279 HD
ATOM     24  C13 CPB d          41.540  36.261  28.094  0.00  0.00     0.066 C 
ATOM     25  H11 CPB d          43.530  36.968  27.621  0.00  0.00     0.080 H 
ATOM     26  H12 CPB d          42.381  36.997  26.240  0.00  0.00     0.080 H 
ATOM     27  H10 CPB d          41.754  35.211  27.847  0.00  0.00     0.086 H 
ATOM     28  H9  CPB d          39.989  36.377  26.636  0.00  0.00     0.051 H 
BRANCH  19  29
ATOM     29  C1  CPB d          43.125  39.464  26.931  0.00  0.00     0.066 C 
ATOM     30  H1  CPB d          44.004  39.623  27.572  0.00  0.00     0.068 H 
ATOM     31  H2  CPB d          42.649  40.432  26.714  0.00  0.00     0.068 H 
ATOM     32  H3  CPB d          43.439  38.991  25.989  0.00  0.00     0.068 H 
ENDBRANCH  19  29
BRANCH  24  33
ATOM     33  O3  CPB d          41.757  36.476  29.487  0.00  0.00    -0.393 OA
ATOM     34  H21 CPB d          41.023  36.959  29.850  0.00  0.00     0.210 HD
ENDBRANCH  24  33
ENDBRANCH   1  14
BRANCH  11  35
ATOM     35  O7  CPB d          38.783  34.135  26.548  0.00  0.00    -0.360 OA
ATOM     36  H16 CPB d          38.353  34.701  25.917  0.00  0.00     0.217 HD
ENDBRANCH  11  35
BRANCH   4  37
ATOM     37  C21 CPB d          39.301  38.680  32.118  0.00  0.00     0.020 A 
ATOM     38  C22 CPB d          39.049  39.962  31.597  0.00  0.00     0.047 A 
ATOM     39 CL1  CPB d          38.099  40.202  30.173  0.00  0.00    -0.083 Cl
ATOM     40  C23 CPB d          39.575  41.095  32.218  0.00  0.00    -0.061 A 
ATOM     41  C24 CPB d          40.351  40.957  33.368  0.00  0.00    -0.081 A 
ATOM     42  H17 CPB d          39.382  42.079  31.808  0.00  0.00     0.086 H 
ATOM     43  C25 CPB d          40.598  39.690  33.896  0.00  0.00    -0.082 A 
ATOM     44  H18 CPB d          40.763  41.835  33.851  0.00  0.00     0.083 H 
ATOM     45  C26 CPB d          40.075  38.560  33.281  0.00  0.00    -0.069 A 
ATOM     46  H19 CPB d          41.201  39.587  34.791  0.00  0.00     0.083 H 
ATOM     47  H20 CPB d          40.266  37.580  33.703  0.00  0.00     0.085 H 
ENDBRANCH   4  37
BRANCH   9  48
ATOM     48  O5  CPB d          36.204  33.323  30.406  0.00  0.00    -0.360 OA
ATOM     49  H14 CPB d          35.434  33.843  30.602  0.00  0.00     0.217 HD
ENDBRANCH   9  48
TORSDOF 6
ENDMDL
MODEL 5
REMARK VINA RESULT:      -8.2      2.252      3.794
REMARK  6 active torsions:
REMARK  status: ('A' for Active; 'I' for Inactive)
REMARK    1  A    between atoms: C1_1  and  N1_2 
REMARK    2  A    between atoms: C14_5  and  C8_8 
REMARK    3  A    between atoms: C13_6  and  O3_28 
REMARK    4  A    between atoms: C2_11  and  C21_21 
REMARK    5  A    between atoms: C5_16  and  O5_17 
REMARK    6  A    between atoms: C7_19  and  O7_20 
ROOT
ATOM      1  C8  CPB d          38.405  36.984  31.613  0.00  0.00     0.017 A 
ATOM      2  C9  CPB d          38.604  36.414  30.344  0.00  0.00     0.102 A 
ATOM      3  O1  CPB d          39.513  37.005  29.499  0.00  0.00    -0.308 OA
ATOM      4  C2  CPB d          39.760  36.445  28.272  0.00  0.00     0.091 A 
ATOM      5  C3  CPB d          39.070  35.303  27.867  0.00  0.00    -0.000 A 
ATOM      6  C4  CPB d          38.121  34.716  28.699  0.00  0.00     0.190 A 
ATOM      7  O4  CPB d          37.520  33.708  28.323  0.00  0.00    -0.287 OA
ATOM      8  C10 CPB d          37.886  35.273  29.958  0.00  0.00     0.082 A 
ATOM      9  C5  CPB d          36.988  34.681  30.853  0.00  0.00     0.085 A 
ATOM     10  C6  CPB d          36.787  35.244  32.105  0.00  0.00    -0.017 A 
ATOM     11  C7  CPB d          37.482  36.390  32.486  0.00  0.00     0.077 A 
ATOM     12  H13 CPB d          39.275  34.867  26.891  0.00  0.00     0.094 H 
ATOM     13  H15 CPB d          36.084  34.788  32.792  0.00  0.00     0.092 H 
ENDROOT
BRANCH   1  14
ATOM     14  C14 CPB d          39.226  38.265  31.960  0.00  0.00     0.005 C 
ATOM     15  C15 CPB d          40.712  38.103  31.604  0.00  0.00    -0.033 C 
ATOM     16  C16 CPB d          41.491  39.373  31.993  0.00  0.00     0.084 C 
ATOM     17  H7  CPB d          41.125  37.242  32.149  0.00  0.00     0.036 H 
ATOM     18  H8  CPB d          40.810  37.934  30.522  0.00  0.00     0.036 H 
ATOM     19  N1  CPB d          40.881  40.571  31.369  0.00  0.00    -0.072 N 
ATOM     20  H5  CPB d          41.473  39.487  33.087  0.00  0.00     0.076 H 
ATOM     21  H6  CPB d          42.532  39.278  31.651  0.00  0.00     0.076 H 
ATOM     22  C12 CPB d          39.485  40.770  31.824  0.00  0.00     0.107 C 
ATOM     23  H4  CPB d          40.887  40.459  30.367  0.00  0.00     0.279 HD
ATOM     24  C13 CPB d          38.637  39.574  31.381  0.00  0.00     0.066 C 
ATOM     25  H11 CPB d          39.081  41.692  31.380  0.00  0.00     0.080 H 
ATOM     26  H12 CPB d          39.464  40.851  32.921  0.00  0.00     0.080 H 
ATOM     27  H10 CPB d          37.606  39.696  31.745  0.00  0.00     0.086 H 
ATOM     28  H9  CPB d          39.176  38.368  33.054  0.00  0.00     0.051 H 
BRANCH  19  29
ATOM     29  C1  CPB d          41.678  41.753  31.738  0.00  0.00     0.066 C 
ATOM     30  H1  CPB d          41.021  42.510  32.192  0.00  0.00     0.068 H 
ATOM     31  H2  CPB d          42.152  42.171  30.838  0.00  0.00     0.068 H 
ATOM     32  H3  CPB d          42.454  41.461  32.461  0.00  0.00     0.068 H 
ENDBRANCH  19  29
BRANCH  24  33
ATOM     33  O3  CPB d          38.636  39.538  29.955  0.00  0.00    -0.393 OA
ATOM     34  H21 CPB d          39.318  40.112  29.625  0.00  0.00     0.210 HD
ENDBRANCH  24  33
ENDBRANCH   1  14
BRANCH  11  35
ATOM     35  O7  CPB d          37.233  36.881  33.728  0.00  0.00    -0.360 OA
ATOM     36  H16 CPB d          38.002  37.343  34.045  0.00  0.00     0.217 HD
ENDBRANCH  11  35
BRANCH   4  37
ATOM     37  C21 CPB d          40.730  37.004  27.427  0.00  0.00     0.020 A 
ATOM     38  C22 CPB d          42.112  36.867  27.650  0.00  0.00     0.047 A 
ATOM     39 CL1  CPB d          42.739  36.015  29.016  0.00  0.00    -0.083 Cl
ATOM     40  C23 CPB d          43.031  37.433  26.766  0.00  0.00    -0.061 A 
ATOM     41  C24 CPB d          42.579  38.133  25.650  0.00  0.00    -0.081 A 
ATOM     42  H17 CPB d          44.095  37.328  26.947  0.00  0.00     0.086 H 
ATOM     43  C25 CPB d          41.210  38.265  25.415  0.00  0.00    -0.082 A 
ATOM     44  H18 CPB d          43.291  38.575  24.963  0.00  0.00     0.083 H 
ATOM     45  C26 CPB d          40.292  37.703  26.292  0.00  0.00    -0.069 A 
ATOM     46  H19 CPB d          40.862  38.809  24.545  0.00  0.00     0.083 H 
ATOM     47  H20 CPB d          39.230  37.805  26.099  0.00  0.00     0.085 H 
ENDBRANCH   4  37
BRANCH   9  48
ATOM     48  O5  CPB d          36.286  33.559  30.525  0.00  0.00    -0.360 OA
ATOM     49  H14 CPB d          36.442  32.887  31.177  0.00  0.00     0.217 HD
ENDBRANCH   9  48
TORSDOF 6
ENDMDL
MODEL 6
REMARK VINA RESULT:      -7.5      1.624      2.328
REMARK  6 active torsions:
REMARK  status: ('A' for Active; 'I' for Inactive)
REMARK    1  A    between atoms: C1_1  and  N1_2 
REMARK    2  A    between atoms: C14_5  and  C8_8 
REMARK    3  A    between atoms: C13_6  and  O3_28 
REMARK    4  A    between atoms: C2_11  and  C21_21 
REMARK    5  A    between atoms: C5_16  and  O5_17 
REMARK    6  A    between atoms: C7_19  and  O7_20 
ROOT
ATOM      1  C8  CPB d          40.994  38.126  30.638  0.00  0.00     0.017 A 
ATOM      2  C9  CPB d          39.877  37.274  30.597  0.00  0.00     0.102 A 
ATOM      3  O1  CPB d          39.700  36.484  29.486  0.00  0.00    -0.308 OA
ATOM      4  C2  CPB d          38.643  35.611  29.439  0.00  0.00     0.091 A 
ATOM      5  C3  CPB d          37.734  35.547  30.493  0.00  0.00    -0.000 A 
ATOM      6  C4  CPB d          37.882  36.366  31.608  0.00  0.00     0.190 A 
ATOM      7  O4  CPB d          37.067  36.297  32.530  0.00  0.00    -0.287 OA
ATOM      8  C10 CPB d          38.971  37.239  31.668  0.00  0.00     0.082 A 
ATOM      9  C5  CPB d          39.196  38.037  32.795  0.00  0.00     0.085 A 
ATOM     10  C6  CPB d          40.296  38.881  32.836  0.00  0.00    -0.017 A 
ATOM     11  C7  CPB d          41.189  38.935  31.767  0.00  0.00     0.077 A 
ATOM     12  H13 CPB d          36.900  34.849  30.444  0.00  0.00     0.094 H 
ATOM     13  H15 CPB d          40.463  39.504  33.707  0.00  0.00     0.092 H 
ENDROOT
BRANCH   1  14
ATOM     14  C14 CPB d          41.943  38.122  29.400  0.00  0.00     0.005 C 
ATOM     15  C15 CPB d          41.964  36.754  28.701  0.00  0.00    -0.033 C 
ATOM     16  C16 CPB d          42.937  36.782  27.509  0.00  0.00     0.084 C 
ATOM     17  H7  CPB d          42.289  35.985  29.417  0.00  0.00     0.036 H 
ATOM     18  H8  CPB d          40.953  36.515  28.340  0.00  0.00     0.036 H 
ATOM     19  N1  CPB d          42.598  37.890  26.585  0.00  0.00    -0.072 N 
ATOM     20  H5  CPB d          43.962  36.924  27.882  0.00  0.00     0.076 H 
ATOM     21  H6  CPB d          42.874  35.828  26.966  0.00  0.00     0.076 H 
ATOM     22  C12 CPB d          42.703  39.208  27.254  0.00  0.00     0.107 C 
ATOM     23  H4  CPB d          41.653  37.765  26.254  0.00  0.00     0.279 HD
ATOM     24  C13 CPB d          41.686  39.274  28.398  0.00  0.00     0.066 C 
ATOM     25  H11 CPB d          42.492  40.007  26.528  0.00  0.00     0.080 H 
ATOM     26  H12 CPB d          43.719  39.336  27.657  0.00  0.00     0.080 H 
ATOM     27  H10 CPB d          41.782  40.236  28.923  0.00  0.00     0.086 H 
ATOM     28  H9  CPB d          42.956  38.286  29.797  0.00  0.00     0.051 H 
BRANCH  19  29
ATOM     29  C1  CPB d          43.529  37.857  25.445  0.00  0.00     0.066 C 
ATOM     30  H1  CPB d          44.564  37.876  25.816  0.00  0.00     0.068 H 
ATOM     31  H2  CPB d          43.353  38.733  24.802  0.00  0.00     0.068 H 
ATOM     32  H3  CPB d          43.365  36.937  24.864  0.00  0.00     0.068 H 
ENDBRANCH  19  29
BRANCH  24  33
ATOM     33  O3  CPB d          40.381  39.167  27.833  0.00  0.00    -0.393 OA
ATOM     34  H21 CPB d          40.447  38.835  26.946  0.00  0.00     0.210 HD
ENDBRANCH  24  33
ENDBRANCH   1  14
BRANCH  11  35
ATOM     35  O7  CPB d          42.243  39.785  31.881  0.00  0.00    -0.360 OA
ATOM     36  H16 CPB d          42.144  40.307  32.670  0.00  0.00     0.217 HD
ENDBRANCH  11  35
BRANCH   4  37
ATOM     37  C21 CPB d          38.487  34.757  28.337  0.00  0.00     0.020 A 
ATOM     38  C22 CPB d          38.676  35.178  27.008  0.00  0.00     0.047 A 
ATOM     39 CL1  CPB d          39.092  36.808  26.613  0.00  0.00    -0.083 Cl
ATOM     40  C23 CPB d          38.522  34.279  25.952  0.00  0.00    -0.061 A 
ATOM     41  C24 CPB d          38.185  32.953  26.214  0.00  0.00    -0.081 A 
ATOM     42  H17 CPB d          38.665  34.612  24.930  0.00  0.00     0.086 H 
ATOM     43  C25 CPB d          38.004  32.525  27.529  0.00  0.00    -0.082 A 
ATOM     44  H18 CPB d          38.062  32.253  25.395  0.00  0.00     0.083 H 
ATOM     45  C26 CPB d          38.158  33.416  28.583  0.00  0.00    -0.069 A 
ATOM     46  H19 CPB d          37.743  31.492  27.730  0.00  0.00     0.083 H 
ATOM     47  H20 CPB d          38.022  33.073  29.603  0.00  0.00     0.085 H 
ENDBRANCH   4  37
BRANCH   9  48
ATOM     48  O5  CPB d          38.351  38.018  33.865  0.00  0.00    -0.360 OA
ATOM     49  H14 CPB d          38.839  37.789  34.647  0.00  0.00     0.217 HD
ENDBRANCH   9  48
TORSDOF 6
ENDMDL
MODEL 7
REMARK VINA RESULT:      -7.0      2.801      6.497
REMARK  6 active torsions:
REMARK  status: ('A' for Active; 'I' for Inactive)
REMARK    1  A    between atoms: C1_1  and  N1_2 
REMARK    2  A    between atoms: C14_5  and  C8_8 
REMARK    3  A    between atoms: C13_6  and  O3_28 
REMARK    4  A    between atoms: C2_11  and  C21_21 
REMARK    5  A    between atoms: C5_16  and  O5_17 
REMARK    6  A    between atoms: C7_19  and  O7_20 
ROOT
ATOM      1  C8  CPB d          40.201  37.045  27.580  0.00  0.00     0.017 A 
ATOM      2  C9  CPB d          39.777  37.656  28.771  0.00  0.00     0.102 A 
ATOM      3  O1  CPB d          39.017  36.918  29.648  0.00  0.00    -0.308 OA
ATOM      4  C2  CPB d          38.626  37.475  30.838  0.00  0.00     0.091 A 
ATOM      5  C3  CPB d          38.966  38.792  31.146  0.00  0.00    -0.000 A 
ATOM      6  C4  CPB d          39.705  39.560  30.252  0.00  0.00     0.190 A 
ATOM      7  O4  CPB d          39.995  40.723  30.541  0.00  0.00    -0.287 OA
ATOM      8  C10 CPB d          40.123  38.986  29.049  0.00  0.00     0.082 A 
ATOM      9  C5  CPB d          40.921  39.700  28.148  0.00  0.00     0.085 A 
ATOM     10  C6  CPB d          41.338  39.100  26.969  0.00  0.00    -0.017 A 
ATOM     11  C7  CPB d          40.980  37.785  26.677  0.00  0.00     0.077 A 
ATOM     12  H13 CPB d          38.651  39.222  32.095  0.00  0.00     0.094 H 
ATOM     13  H15 CPB d          41.948  39.659  26.268  0.00  0.00     0.092 H 
ENDROOT
BRANCH   1  14
ATOM     14  C14 CPB d          39.758  35.570  27.333  0.00  0.00     0.005 C 
ATOM     15  C15 CPB d          38.610  35.155  28.267  0.00  0.00    -0.033 C 
ATOM     16  C16 CPB d          38.227  33.686  28.016  0.00  0.00     0.084 C 
ATOM     17  H7  CPB d          38.931  35.274  29.312  0.00  0.00     0.036 H 
ATOM     18  H8  CPB d          37.737  35.796  28.076  0.00  0.00     0.036 H 
ATOM     19  N1  CPB d          37.907  33.468  26.586  0.00  0.00    -0.072 N 
ATOM     20  H5  CPB d          39.069  33.039  28.301  0.00  0.00     0.076 H 
ATOM     21  H6  CPB d          37.347  33.432  28.626  0.00  0.00     0.076 H 
ATOM     22  C12 CPB d          39.070  33.759  25.717  0.00  0.00     0.107 C 
ATOM     23  H4  CPB d          37.142  34.071  26.324  0.00  0.00     0.279 HD
ATOM     24  C13 CPB d          39.441  35.240  25.854  0.00  0.00     0.066 C 
ATOM     25  H11 CPB d          38.813  33.541  24.670  0.00  0.00     0.080 H 
ATOM     26  H12 CPB d          39.924  33.136  26.023  0.00  0.00     0.080 H 
ATOM     27  H10 CPB d          40.327  35.458  25.239  0.00  0.00     0.086 H 
ATOM     28  H9  CPB d          40.622  34.945  27.605  0.00  0.00     0.051 H 
BRANCH  19  29
ATOM     29  C1  CPB d          37.512  32.061  26.399  0.00  0.00     0.066 C 
ATOM     30  H1  CPB d          38.142  31.603  25.624  0.00  0.00     0.068 H 
ATOM     31  H2  CPB d          36.457  32.015  26.090  0.00  0.00     0.068 H 
ATOM     32  H3  CPB d          37.640  31.516  27.346  0.00  0.00     0.068 H 
ENDBRANCH  19  29
BRANCH  24  33
ATOM     33  O3  CPB d          38.338  36.015  25.391  0.00  0.00    -0.393 OA
ATOM     34  H21 CPB d          37.640  35.987  26.035  0.00  0.00     0.210 HD
ENDBRANCH  24  33
ENDBRANCH   1  14
BRANCH  11  35
ATOM     35  O7  CPB d          41.428  37.266  25.505  0.00  0.00    -0.360 OA
ATOM     36  H16 CPB d          40.814  37.477  24.811  0.00  0.00     0.217 HD
ENDBRANCH  11  35
BRANCH   4  37
ATOM     37  C21 CPB d          37.902  36.712  31.766  0.00  0.00     0.020 A 
ATOM     38  C22 CPB d          37.887  36.992  33.145  0.00  0.00     0.047 A 
ATOM     39 CL1  CPB d          38.793  38.299  33.823  0.00  0.00    -0.083 Cl
ATOM     40  C23 CPB d          37.136  36.207  34.019  0.00  0.00    -0.061 A 
ATOM     41  C24 CPB d          36.389  35.139  33.524  0.00  0.00    -0.081 A 
ATOM     42  H17 CPB d          37.133  36.426  35.081  0.00  0.00     0.086 H 
ATOM     43  C25 CPB d          36.391  34.860  32.158  0.00  0.00    -0.082 A 
ATOM     44  H18 CPB d          35.807  34.527  34.202  0.00  0.00     0.083 H 
ATOM     45  C26 CPB d          37.136  35.640  31.284  0.00  0.00    -0.069 A 
ATOM     46  H19 CPB d          35.808  34.029  31.776  0.00  0.00     0.083 H 
ATOM     47  H20 CPB d          37.126  35.419  30.223  0.00  0.00     0.085 H 
ENDBRANCH   4  37
BRANCH   9  48
ATOM     48  O5  CPB d          41.296  40.988  28.390  0.00  0.00    -0.360 OA
ATOM     49  H14 CPB d          40.877  41.563  27.760  0.00  0.00     0.217 HD
ENDBRANCH   9  48
TORSDOF 6
ENDMDL
