MODEL 1
REMARK VINA RESULT:      -9.8      0.000      0.000
REMARK  7 active torsions:
REMARK  status: ('A' for Active; 'I' for Inactive)
REMARK    1  A    between atoms: C8_9  and  C4_10 
REMARK    2  A    between atoms: C1_11  and  C7_12 
REMARK    3  A    between atoms: C2_16  and  C6_18 
REMARK    4  A    between atoms: C14_20  and  C26_21 
REMARK    5  A    between atoms: C26_21  and  C27_22 
REMARK    6  A    between atoms: C13_23  and  O25_24 
REMARK    7  A    between atoms: C9_26  and  O24_27 
ROOT
ATOM      1  C4  MOL d           0.142  34.324  -4.850  0.00  0.00     0.041 A 
ATOM      2  C1  MOL d           0.160  34.324  -6.239  0.00  0.00     0.140 A 
ATOM      3  N5  MOL d          -0.553  33.279  -6.655  0.00  0.00    -0.270 N 
ATOM      4  C2  MOL d          -0.612  33.202  -4.523  0.00  0.00     0.103 A 
ATOM      5  N3  MOL d          -0.989  32.652  -5.681  0.00  0.00    -0.173 NA
ATOM      6  H6  MOL d          -0.718  33.030  -7.642  0.00  0.00     0.189 HD
ENDROOT
BRANCH   4   7
ATOM      7  C6  MOL d          -0.773  32.706  -3.230  0.00  0.00     0.029 A 
ATOM      8  C10 MOL d           0.317  32.258  -2.483  0.00  0.00    -0.059 A 
ATOM      9  C14 MOL d           0.160  31.826  -1.168  0.00  0.00    -0.024 A 
ATOM     10  H7  MOL d           1.303  32.245  -2.934  0.00  0.00     0.086 H 
ATOM     11  C13 MOL d          -1.098  31.871  -0.575  0.00  0.00     0.074 A 
ATOM     12  C11 MOL d          -2.199  32.287  -1.320  0.00  0.00    -0.018 A 
ATOM     13  C9  MOL d          -2.035  32.693  -2.645  0.00  0.00     0.081 A 
ATOM     14  H14 MOL d          -3.185  32.295  -0.870  0.00  0.00     0.092 H 
BRANCH   9  15
ATOM     15  C26 MOL d           1.356  31.209  -0.438  0.00  0.00    -0.042 C 
ATOM     16  H8  MOL d           1.022  30.801   0.528  0.00  0.00     0.039 H 
ATOM     17  H9  MOL d           2.116  31.985  -0.265  0.00  0.00     0.039 H 
BRANCH  15  18
ATOM     18  C27 MOL d           1.963  30.084  -1.281  0.00  0.00    -0.073 C 
ATOM     19  H10 MOL d           1.698  30.234  -2.338  0.00  0.00     0.028 H 
ATOM     20  H11 MOL d           1.568  29.116  -0.939  0.00  0.00     0.028 H 
ATOM     21  H12 MOL d           3.057  30.092  -1.172  0.00  0.00     0.028 H 
ENDBRANCH  15  18
ENDBRANCH   9  15
BRANCH  11  22
ATOM     22  O25 MOL d          -1.201  31.666   0.769  0.00  0.00    -0.360 OA
ATOM     23  H13 MOL d          -0.479  31.122   1.062  0.00  0.00     0.217 HD
ENDBRANCH  11  22
BRANCH  13  24
ATOM     24  O24 MOL d          -3.114  33.070  -3.377  0.00  0.00    -0.360 OA
ATOM     25  H15 MOL d          -2.843  33.691  -4.042  0.00  0.00     0.217 HD
ENDBRANCH  13  24
ENDBRANCH   4   7
BRANCH   1  26
ATOM     26  C8  MOL d           0.709  35.248  -3.972  0.00  0.00    -0.018 A 
ATOM     27  C15 MOL d           2.016  35.046  -3.539  0.00  0.00    -0.037 A 
ATOM     28  C12 MOL d           2.561  35.930  -2.614  0.00  0.00     0.105 A 
ATOM     29  H1  MOL d           2.600  34.214  -3.917  0.00  0.00     0.089 H 
ATOM     30  O17 MOL d           3.789  35.964  -2.016  0.00  0.00    -0.323 OA
ATOM     31  C16 MOL d           1.814  37.007  -2.138  0.00  0.00     0.105 A 
ATOM     32  C19 MOL d           3.804  37.063  -1.191  0.00  0.00     0.115 A 
ATOM     33  O18 MOL d           2.595  37.708  -1.263  0.00  0.00    -0.323 OA
ATOM     34  H2  MOL d           4.604  37.748  -1.509  0.00  0.00     0.118 H 
ATOM     35  H3  MOL d           3.987  36.740  -0.155  0.00  0.00     0.118 H 
ATOM     36  C22 MOL d           0.509  37.218  -2.571  0.00  0.00    -0.047 A 
ATOM     37  C20 MOL d          -0.034  36.325  -3.490  0.00  0.00    -0.069 A 
ATOM     38  H4  MOL d          -0.071  38.057  -2.201  0.00  0.00     0.087 H 
ATOM     39  H5  MOL d          -1.051  36.469  -3.837  0.00  0.00     0.085 H 
ENDBRANCH   1  26
BRANCH   2  40
ATOM     40  C7  MOL d           0.806  35.343  -7.180  0.00  0.00     0.229 C 
ATOM     41  O21 MOL d           1.905  35.076  -7.664  0.00  0.00    -0.643 OA
ATOM     42  O23 MOL d           0.247  36.407  -7.451  0.00  0.00    -0.643 OA
ENDBRANCH   2  40
TORSDOF 7
ENDMDL
MODEL 2
REMARK VINA RESULT:      -7.6      1.829      5.167
REMARK  7 active torsions:
REMARK  status: ('A' for Active; 'I' for Inactive)
REMARK    1  A    between atoms: C8_9  and  C4_10 
REMARK    2  A    between atoms: C1_11  and  C7_12 
REMARK    3  A    between atoms: C2_16  and  C6_18 
REMARK    4  A    between atoms: C14_20  and  C26_21 
REMARK    5  A    between atoms: C26_21  and  C27_22 
REMARK    6  A    between atoms: C13_23  and  O25_24 
REMARK    7  A    between atoms: C9_26  and  O24_27 
ROOT
ATOM      1  C4  MOL d           0.407  34.345  -4.451  0.00  0.00     0.041 A 
ATOM      2  C1  MOL d          -0.043  34.203  -5.758  0.00  0.00     0.140 A 
ATOM      3  N5  MOL d           0.517  35.167  -6.488  0.00  0.00    -0.270 N 
ATOM      4  C2  MOL d           1.237  35.459  -4.500  0.00  0.00     0.103 A 
ATOM      5  N3  MOL d           1.241  35.870  -5.772  0.00  0.00    -0.173 NA
ATOM      6  H6  MOL d           0.369  35.305  -7.498  0.00  0.00     0.189 HD
ENDROOT
BRANCH   4   7
ATOM      7  C6  MOL d           1.799  36.078  -3.383  0.00  0.00     0.029 A 
ATOM      8  C10 MOL d           3.010  35.641  -2.844  0.00  0.00    -0.059 A 
ATOM      9  C14 MOL d           3.600  36.304  -1.770  0.00  0.00    -0.024 A 
ATOM     10  H7  MOL d           3.499  34.771  -3.268  0.00  0.00     0.086 H 
ATOM     11  C13 MOL d           2.992  37.440  -1.245  0.00  0.00     0.074 A 
ATOM     12  C11 MOL d           1.768  37.867  -1.754  0.00  0.00    -0.018 A 
ATOM     13  C9  MOL d           1.173  37.181  -2.813  0.00  0.00     0.081 A 
ATOM     14  H14 MOL d           1.277  38.733  -1.327  0.00  0.00     0.092 H 
BRANCH   9  15
ATOM     15  C26 MOL d           4.851  35.706  -1.121  0.00  0.00    -0.042 C 
ATOM     16  H8  MOL d           5.101  36.279  -0.216  0.00  0.00     0.039 H 
ATOM     17  H9  MOL d           5.689  35.757  -1.831  0.00  0.00     0.039 H 
BRANCH  15  18
ATOM     18  C27 MOL d           4.597  34.244  -0.741  0.00  0.00    -0.073 C 
ATOM     19  H10 MOL d           3.730  33.864  -1.302  0.00  0.00     0.028 H 
ATOM     20  H11 MOL d           4.393  34.175   0.338  0.00  0.00     0.028 H 
ATOM     21  H12 MOL d           5.484  33.641  -0.985  0.00  0.00     0.028 H 
ENDBRANCH  15  18
ENDBRANCH   9  15
BRANCH  11  22
ATOM     22  O25 MOL d           3.684  38.207  -0.355  0.00  0.00    -0.360 OA
ATOM     23  H13 MOL d           3.345  39.094  -0.373  0.00  0.00     0.217 HD
ENDBRANCH  11  22
BRANCH  13  24
ATOM     24  O24 MOL d          -0.035  37.582  -3.288  0.00  0.00    -0.360 OA
ATOM     25  H15 MOL d           0.023  38.486  -3.573  0.00  0.00     0.217 HD
ENDBRANCH  13  24
ENDBRANCH   4   7
BRANCH   1  26
ATOM     26  C8  MOL d           0.132  33.543  -3.344  0.00  0.00    -0.018 A 
ATOM     27  C15 MOL d          -1.184  33.437  -2.903  0.00  0.00    -0.037 A 
ATOM     28  C12 MOL d          -1.451  32.690  -1.761  0.00  0.00     0.105 A 
ATOM     29  H1  MOL d          -1.986  33.929  -3.442  0.00  0.00     0.089 H 
ATOM     30  O17 MOL d          -2.623  32.433  -1.107  0.00  0.00    -0.323 OA
ATOM     31  C16 MOL d          -0.420  32.047  -1.077  0.00  0.00     0.105 A 
ATOM     32  C19 MOL d          -2.318  31.625  -0.039  0.00  0.00     0.115 A 
ATOM     33  O18 MOL d          -0.968  31.383  -0.016  0.00  0.00    -0.323 OA
ATOM     34  H2  MOL d          -2.859  30.671  -0.134  0.00  0.00     0.118 H 
ATOM     35  H3  MOL d          -2.617  32.124   0.895  0.00  0.00     0.118 H 
ATOM     36  C22 MOL d           0.897  32.144  -1.515  0.00  0.00    -0.047 A 
ATOM     37  C20 MOL d           1.159  32.900  -2.653  0.00  0.00    -0.069 A 
ATOM     38  H4  MOL d           1.698  31.643  -0.983  0.00  0.00     0.087 H 
ATOM     39  H5  MOL d           2.180  32.992  -3.009  0.00  0.00     0.085 H 
ENDBRANCH   1  26
BRANCH   2  40
ATOM     40  C7  MOL d          -0.960  33.123  -6.334  0.00  0.00     0.229 C 
ATOM     41  O21 MOL d          -1.895  33.474  -7.053  0.00  0.00    -0.643 OA
ATOM     42  O23 MOL d          -0.776  31.929  -6.089  0.00  0.00    -0.643 OA
ENDBRANCH   2  40
TORSDOF 7
ENDMDL
MODEL 3
REMARK VINA RESULT:      -7.3      1.793      5.487
REMARK  7 active torsions:
REMARK  status: ('A' for Active; 'I' for Inactive)
REMARK    1  A    between atoms: C8_9  and  C4_10 
REMARK    2  A    between atoms: C1_11  and  C7_12 
REMARK    3  A    between atoms: C2_16  and  C6_18 
REMARK    4  A    between atoms: C14_20  and  C26_21 
REMARK    5  A    between atoms: C26_21  and  C27_22 
REMARK    6  A    between atoms: C13_23  and  O25_24 
REMARK    7  A    between atoms: C9_26  and  O24_27 
ROOT
ATOM      1  C4  MOL d          -0.306  33.027  -2.571  0.00  0.00     0.041 A 
ATOM      2  C1  MOL d          -1.089  32.293  -1.689  0.00  0.00     0.140 A 
ATOM      3  N5  MOL d          -2.278  32.105  -2.260  0.00  0.00    -0.270 N 
ATOM      4  C2  MOL d          -1.142  33.249  -3.659  0.00  0.00     0.103 A 
ATOM      5  N3  MOL d          -2.299  32.644  -3.374  0.00  0.00    -0.173 NA
ATOM      6  H6  MOL d          -3.062  31.587  -1.837  0.00  0.00     0.189 HD
ENDROOT
BRANCH   4   7
ATOM      7  C6  MOL d          -0.837  34.081  -4.736  0.00  0.00     0.029 A 
ATOM      8  C10 MOL d          -0.657  35.454  -4.563  0.00  0.00    -0.059 A 
ATOM      9  C14 MOL d          -0.286  36.270  -5.630  0.00  0.00    -0.024 A 
ATOM     10  H7  MOL d          -0.808  35.893  -3.584  0.00  0.00     0.086 H 
ATOM     11  C13 MOL d          -0.058  35.707  -6.881  0.00  0.00     0.074 A 
ATOM     12  C11 MOL d          -0.265  34.343  -7.073  0.00  0.00    -0.018 A 
ATOM     13  C9  MOL d          -0.662  33.538  -6.004  0.00  0.00     0.081 A 
ATOM     14  H14 MOL d          -0.118  33.906  -8.054  0.00  0.00     0.092 H 
BRANCH   9  15
ATOM     15  C26 MOL d          -0.240  37.787  -5.427  0.00  0.00    -0.042 C 
ATOM     16  H8  MOL d          -1.204  38.129  -5.019  0.00  0.00     0.039 H 
ATOM     17  H9  MOL d          -0.056  38.279  -6.393  0.00  0.00     0.039 H 
BRANCH  15  18
ATOM     18  C27 MOL d           0.881  38.153  -4.450  0.00  0.00    -0.073 C 
ATOM     19  H10 MOL d           1.842  38.174  -4.986  0.00  0.00     0.028 H 
ATOM     20  H11 MOL d           0.927  37.402  -3.647  0.00  0.00     0.028 H 
ATOM     21  H12 MOL d           0.682  39.143  -4.015  0.00  0.00     0.028 H 
ENDBRANCH  15  18
ENDBRANCH   9  15
BRANCH  11  22
ATOM     22  O25 MOL d           0.521  36.468  -7.852  0.00  0.00    -0.360 OA
ATOM     23  H13 MOL d           0.692  37.338  -7.511  0.00  0.00     0.217 HD
ENDBRANCH  11  22
BRANCH  13  24
ATOM     24  O24 MOL d          -0.891  32.214  -6.201  0.00  0.00    -0.360 OA
ATOM     25  H15 MOL d          -0.753  31.746  -5.386  0.00  0.00     0.217 HD
ENDBRANCH  13  24
ENDBRANCH   4   7
BRANCH   1  26
ATOM     26  C8  MOL d           1.024  33.424  -2.431  0.00  0.00    -0.018 A 
ATOM     27  C15 MOL d           1.304  34.775  -2.254  0.00  0.00    -0.037 A 
ATOM     28  C12 MOL d           2.633  35.181  -2.179  0.00  0.00     0.105 A 
ATOM     29  H1  MOL d           0.501  35.500  -2.176  0.00  0.00     0.089 H 
ATOM     30  O17 MOL d           3.189  36.419  -2.026  0.00  0.00    -0.323 OA
ATOM     31  C16 MOL d           3.665  34.248  -2.266  0.00  0.00     0.105 A 
ATOM     32  C19 MOL d           4.552  36.248  -2.003  0.00  0.00     0.115 A 
ATOM     33  O18 MOL d           4.850  34.917  -2.148  0.00  0.00    -0.323 OA
ATOM     34  H2  MOL d           4.951  36.610  -1.043  0.00  0.00     0.118 H 
ATOM     35  H3  MOL d           5.006  36.818  -2.828  0.00  0.00     0.118 H 
ATOM     36  C22 MOL d           3.391  32.894  -2.437  0.00  0.00    -0.047 A 
ATOM     37  C20 MOL d           2.060  32.495  -2.521  0.00  0.00    -0.069 A 
ATOM     38  H4  MOL d           4.194  32.169  -2.504  0.00  0.00     0.087 H 
ATOM     39  H5  MOL d           1.826  31.446  -2.658  0.00  0.00     0.085 H 
ENDBRANCH   1  26
BRANCH   2  40
ATOM     40  C7  MOL d          -0.700  31.719  -0.325  0.00  0.00     0.229 C 
ATOM     41  O21 MOL d          -1.405  31.992   0.646  0.00  0.00    -0.643 OA
ATOM     42  O23 MOL d           0.293  31.001  -0.193  0.00  0.00    -0.643 OA
ENDBRANCH   2  40
TORSDOF 7
ENDMDL
MODEL 4
REMARK VINA RESULT:      -7.0      1.304      2.082
REMARK  7 active torsions:
REMARK  status: ('A' for Active; 'I' for Inactive)
REMARK    1  A    between atoms: C8_9  and  C4_10 
REMARK    2  A    between atoms: C1_11  and  C7_12 
REMARK    3  A    between atoms: C2_16  and  C6_18 
REMARK    4  A    between atoms: C14_20  and  C26_21 
REMARK    5  A    between atoms: C26_21  and  C27_22 
REMARK    6  A    between atoms: C13_23  and  O25_24 
REMARK    7  A    between atoms: C9_26  and  O24_27 
ROOT
ATOM      1  C4  MOL d           0.114  34.363  -4.632  0.00  0.00     0.041 A 
ATOM      2  C1  MOL d          -0.089  34.310  -6.005  0.00  0.00     0.140 A 
ATOM      3  N5  MOL d          -0.620  33.122  -6.292  0.00  0.00    -0.270 N 
ATOM      4  C2  MOL d          -0.322  33.123  -4.179  0.00  0.00     0.103 A 
ATOM      5  N3  MOL d          -0.752  32.459  -5.256  0.00  0.00    -0.173 NA
ATOM      6  H6  MOL d          -0.881  32.804  -7.237  0.00  0.00     0.189 HD
ENDROOT
BRANCH   4   7
ATOM      7  C6  MOL d          -0.167  32.658  -2.873  0.00  0.00     0.029 A 
ATOM      8  C10 MOL d          -1.268  32.453  -2.041  0.00  0.00    -0.059 A 
ATOM      9  C14 MOL d          -1.113  31.926  -0.760  0.00  0.00    -0.024 A 
ATOM     10  H7  MOL d          -2.259  32.710  -2.395  0.00  0.00     0.086 H 
ATOM     11  C13 MOL d           0.154  31.565  -0.313  0.00  0.00     0.074 A 
ATOM     12  C11 MOL d           1.264  31.793  -1.124  0.00  0.00    -0.018 A 
ATOM     13  C9  MOL d           1.101  32.346  -2.394  0.00  0.00     0.081 A 
ATOM     14  H14 MOL d           2.256  31.542  -0.766  0.00  0.00     0.092 H 
BRANCH   9  15
ATOM     15  C26 MOL d          -2.329  31.853   0.168  0.00  0.00    -0.042 C 
ATOM     16  H8  MOL d          -2.964  32.737   0.005  0.00  0.00     0.039 H 
ATOM     17  H9  MOL d          -1.987  31.834   1.213  0.00  0.00     0.039 H 
BRANCH  15  18
ATOM     18  C27 MOL d          -3.138  30.586  -0.124  0.00  0.00    -0.073 C 
ATOM     19  H10 MOL d          -2.487  29.704  -0.026  0.00  0.00     0.028 H 
ATOM     20  H11 MOL d          -3.537  30.634  -1.148  0.00  0.00     0.028 H 
ATOM     21  H12 MOL d          -3.970  30.509   0.591  0.00  0.00     0.028 H 
ENDBRANCH  15  18
ENDBRANCH   9  15
BRANCH  11  22
ATOM     22  O25 MOL d           0.267  30.845   0.839  0.00  0.00    -0.360 OA
ATOM     23  H13 MOL d           1.185  30.676   1.017  0.00  0.00     0.217 HD
ENDBRANCH  11  22
BRANCH  13  24
ATOM     24  O24 MOL d           2.187  32.595  -3.170  0.00  0.00    -0.360 OA
ATOM     25  H15 MOL d           2.034  32.258  -4.045  0.00  0.00     0.217 HD
ENDBRANCH  13  24
ENDBRANCH   4   7
BRANCH   1  26
ATOM     26  C8  MOL d           0.602  35.420  -3.865  0.00  0.00    -0.018 A 
ATOM     27  C15 MOL d           1.967  35.481  -3.600  0.00  0.00    -0.037 A 
ATOM     28  C12 MOL d           2.448  36.498  -2.782  0.00  0.00     0.105 A 
ATOM     29  H1  MOL d           2.644  34.748  -4.024  0.00  0.00     0.089 H 
ATOM     30  O17 MOL d           3.711  36.786  -2.350  0.00  0.00    -0.323 OA
ATOM     31  C16 MOL d           1.578  37.448  -2.247  0.00  0.00     0.105 A 
ATOM     32  C19 MOL d           3.623  37.913  -1.569  0.00  0.00     0.115 A 
ATOM     33  O18 MOL d           2.316  38.325  -1.503  0.00  0.00    -0.323 OA
ATOM     34  H2  MOL d           4.237  38.713  -2.009  0.00  0.00     0.118 H 
ATOM     35  H3  MOL d           3.987  37.686  -0.555  0.00  0.00     0.118 H 
ATOM     36  C22 MOL d           0.213  37.397  -2.513  0.00  0.00    -0.047 A 
ATOM     37  C20 MOL d          -0.263  36.371  -3.325  0.00  0.00    -0.069 A 
ATOM     38  H4  MOL d          -0.463  38.136  -2.098  0.00  0.00     0.087 H 
ATOM     39  H5  MOL d          -1.324  36.311  -3.541  0.00  0.00     0.085 H 
ENDBRANCH   1  26
BRANCH   2  40
ATOM     40  C7  MOL d           0.167  35.401  -7.046  0.00  0.00     0.229 C 
ATOM     41  O21 MOL d          -0.580  36.380  -7.062  0.00  0.00    -0.643 OA
ATOM     42  O23 MOL d           1.094  35.311  -7.853  0.00  0.00    -0.643 OA
ENDBRANCH   2  40
TORSDOF 7
ENDMDL
