REMARK  12 active torsions:
REMARK  status: ('A' for Active; 'I' for Inactive)
REMARK    1  A    between atoms: O4_1  and  C4_2 
REMARK    2  A    between atoms: C3_6  and  O3_7 
REMARK    3  A    between atoms: C2_8  and  O2_9 
REMARK    4  A    between atoms: C1_10  and  O1_11 
REMARK    5  A    between atoms: N2_14  and  C8_15 
REMARK    6  A    between atoms: C8_15  and  C9_16 
REMARK    7  A    between atoms: C9_16  and  C10_17 
REMARK    8  A    between atoms: C10_17  and  C11_18 
REMARK    9  A    between atoms: C11_18  and  C12_19 
REMARK   10  A    between atoms: C12_19  and  C13_20 
REMARK   11  A    between atoms: C13_20  and  C14_21 
REMARK   12  A    between atoms: C14_21  and  C15_22 
ROOT
ATOM      1  C4  LGS d           1.672   6.633  13.469  0.00  0.00     0.084 C 
ATOM      2  C5  LGS d           1.001   6.219  12.154  0.00  0.00     0.066 C 
ATOM      3  C6  LGS d           0.660   7.335  11.168  0.00  0.00     0.050 C 
ATOM      4  O6  LGS d           1.080   6.822   9.878  0.00  0.00    -0.319 OA
ATOM      5  C3  LGS d           1.834   5.345  14.285  0.00  0.00     0.091 C 
ATOM      6  C2  LGS d           2.875   4.413  13.644  0.00  0.00     0.104 C 
ATOM      7  C1  LGS d           2.712   4.293  12.109  0.00  0.00     0.133 C 
ATOM      8  N1  LGS d           1.943   5.359  11.423  0.00  0.00    -0.307 N 
ATOM      9  C7  LGS d           1.911   5.743  10.097  0.00  0.00     0.241 C 
ATOM     10  N2  LGS d           2.547   5.131   9.094  0.00  0.00    -0.251 NA
ATOM     11  H2  LGS d           2.652   7.094  13.275  0.00  0.00     0.090 H 
ATOM     12  H3  LGS d           0.080   5.668  12.398  0.00  0.00     0.080 H 
ATOM     13  H4  LGS d           1.209   8.255  11.418  0.00  0.00     0.078 H 
ATOM     14  H5  LGS d          -0.421   7.540  11.171  0.00  0.00     0.078 H 
ATOM     15  H6  LGS d           0.863   4.832  14.348  0.00  0.00     0.091 H 
ATOM     16  H8  LGS d           3.867   4.842  13.849  0.00  0.00     0.093 H 
ATOM     17  H10 LGS d           2.227   3.327  11.904  0.00  0.00     0.122 H 
ENDROOT
BRANCH  10  18
ATOM     18  C8  LGS d           2.386   5.347   7.650  0.00  0.00     0.019 C 
ATOM     19  H12 LGS d           1.487   5.956   7.476  0.00  0.00     0.067 H 
ATOM     20  H13 LGS d           2.272   4.373   7.151  0.00  0.00     0.067 H 
BRANCH  18  21
ATOM     21  C9  LGS d           3.596   6.067   7.066  0.00  0.00    -0.048 C 
ATOM     22  H14 LGS d           4.508   5.528   7.362  0.00  0.00     0.035 H 
ATOM     23  H15 LGS d           3.628   7.091   7.466  0.00  0.00     0.035 H 
BRANCH  21  24
ATOM     24  C10 LGS d           3.534   6.134   5.533  0.00  0.00    -0.064 C 
ATOM     25  H16 LGS d           2.636   6.700   5.242  0.00  0.00     0.033 H 
ATOM     26  H17 LGS d           3.465   5.109   5.139  0.00  0.00     0.033 H 
BRANCH  24  27
ATOM     27  C11 LGS d           4.773   6.820   4.910  0.00  0.00    -0.065 C 
ATOM     28  H18 LGS d           5.685   6.259   5.163  0.00  0.00     0.033 H 
ATOM     29  H19 LGS d           4.863   7.852   5.281  0.00  0.00     0.033 H 
BRANCH  27  30
ATOM     30  C12 LGS d           4.555   6.821   3.386  0.00  0.00    -0.065 C 
ATOM     31  H20 LGS d           3.552   7.221   3.176  0.00  0.00     0.033 H 
ATOM     32  H21 LGS d           4.621   5.785   3.022  0.00  0.00     0.033 H 
BRANCH  30  33
ATOM     33  C13 LGS d           5.593   7.675   2.627  0.00  0.00    -0.065 C 
ATOM     34  H22 LGS d           5.642   8.675   3.083  0.00  0.00     0.033 H 
ATOM     35  H23 LGS d           5.286   7.767   1.575  0.00  0.00     0.033 H 
BRANCH  33  36
ATOM     36  C14 LGS d           6.984   7.019   2.693  0.00  0.00    -0.069 C 
ATOM     37  H24 LGS d           6.891   5.950   2.451  0.00  0.00     0.032 H 
ATOM     38  H25 LGS d           7.388   7.131   3.710  0.00  0.00     0.032 H 
BRANCH  36  39
ATOM     39  C15 LGS d           7.943   7.677   1.697  0.00  0.00    -0.077 C 
ATOM     40  H26 LGS d           8.928   7.193   1.762  0.00  0.00     0.027 H 
ATOM     41  H27 LGS d           8.043   8.746   1.936  0.00  0.00     0.027 H 
ATOM     42  H28 LGS d           7.546   7.565   0.677  0.00  0.00     0.027 H 
ENDBRANCH  36  39
ENDBRANCH  33  36
ENDBRANCH  30  33
ENDBRANCH  27  30
ENDBRANCH  24  27
ENDBRANCH  21  24
ENDBRANCH  18  21
ENDBRANCH  10  18
BRANCH   7  43
ATOM     43  O1  LGS d           4.008   4.337  11.481  0.00  0.00    -0.374 OA
ATOM     44  H11 LGS d           3.914   4.168  10.551  0.00  0.00     0.212 HD
ENDBRANCH   7  43
BRANCH   1  45
ATOM     45  O4  LGS d           0.843   7.545  14.169  0.00  0.00    -0.391 OA
ATOM     46  H1  LGS d           1.266   7.796  14.982  0.00  0.00     0.210 HD
ENDBRANCH   1  45
BRANCH   6  47
ATOM     47  O2  LGS d           2.834   3.094  14.200  0.00  0.00    -0.389 OA
ATOM     48  H9  LGS d           3.491   2.553  13.777  0.00  0.00     0.210 HD
ENDBRANCH   6  47
BRANCH   5  49
ATOM     49  O3  LGS d           2.312   5.654  15.596  0.00  0.00    -0.390 OA
ATOM     50  H7  LGS d           1.690   6.225  16.032  0.00  0.00     0.210 HD
ENDBRANCH   5  49
TORSDOF 12
