MODEL 1
REMARK VINA RESULT:      -6.9      0.000      0.000
REMARK  12 active torsions:
REMARK  status: ('A' for Active; 'I' for Inactive)
REMARK    1  A    between atoms: O4_1  and  C4_2 
REMARK    2  A    between atoms: C3_6  and  O3_7 
REMARK    3  A    between atoms: C2_8  and  O2_9 
REMARK    4  A    between atoms: C1_10  and  O1_11 
REMARK    5  A    between atoms: N2_14  and  C8_15 
REMARK    6  A    between atoms: C8_15  and  C9_16 
REMARK    7  A    between atoms: C9_16  and  C10_17 
REMARK    8  A    between atoms: C10_17  and  C11_18 
REMARK    9  A    between atoms: C11_18  and  C12_19 
REMARK   10  A    between atoms: C12_19  and  C13_20 
REMARK   11  A    between atoms: C13_20  and  C14_21 
REMARK   12  A    between atoms: C14_21  and  C15_22 
ROOT
ATOM      1  C4  LGS d           5.998   3.847   5.354  0.00  0.00     0.084 C 
ATOM      2  C5  LGS d           5.257   3.400   6.620  0.00  0.00     0.066 C 
ATOM      3  C6  LGS d           5.917   3.722   7.960  0.00  0.00     0.050 C 
ATOM      4  O6  LGS d           4.835   4.219   8.788  0.00  0.00    -0.319 OA
ATOM      5  C3  LGS d           5.160   3.341   4.173  0.00  0.00     0.091 C 
ATOM      6  C2  LGS d           3.826   4.097   4.079  0.00  0.00     0.104 C 
ATOM      7  C1  LGS d           3.130   4.266   5.452  0.00  0.00     0.133 C 
ATOM      8  N1  LGS d           3.973   4.114   6.663  0.00  0.00    -0.307 N 
ATOM      9  C7  LGS d           3.775   4.532   7.963  0.00  0.00     0.241 C 
ATOM     10  N2  LGS d           2.671   5.122   8.431  0.00  0.00    -0.251 NA
ATOM     11  H2  LGS d           6.086   4.943   5.324  0.00  0.00     0.090 H 
ATOM     12  H3  LGS d           5.096   2.313   6.557  0.00  0.00     0.080 H 
ATOM     13  H4  LGS d           6.695   4.490   7.834  0.00  0.00     0.078 H 
ATOM     14  H5  LGS d           6.361   2.818   8.402  0.00  0.00     0.078 H 
ATOM     15  H6  LGS d           4.971   2.264   4.299  0.00  0.00     0.091 H 
ATOM     16  H8  LGS d           4.046   5.100   3.683  0.00  0.00     0.093 H 
ATOM     17  H10 LGS d           2.315   3.529   5.501  0.00  0.00     0.122 H 
ENDROOT
BRANCH  10  18
ATOM     18  C8  LGS d           2.308   5.392   9.829  0.00  0.00     0.019 C 
ATOM     19  H12 LGS d           3.021   4.878  10.491  0.00  0.00     0.067 H 
ATOM     20  H13 LGS d           1.293   5.012  10.017  0.00  0.00     0.067 H 
BRANCH  18  21
ATOM     21  C9  LGS d           2.343   6.887  10.125  0.00  0.00    -0.048 C 
ATOM     22  H14 LGS d           2.625   7.425   9.208  0.00  0.00     0.035 H 
ATOM     23  H15 LGS d           3.092   7.078  10.907  0.00  0.00     0.035 H 
BRANCH  21  24
ATOM     24  C10 LGS d           0.980   7.405  10.606  0.00  0.00    -0.064 C 
ATOM     25  H16 LGS d           0.249   7.278   9.792  0.00  0.00     0.033 H 
ATOM     26  H17 LGS d           1.075   8.473  10.849  0.00  0.00     0.033 H 
BRANCH  24  27
ATOM     27  C11 LGS d           0.460   6.658  11.857  0.00  0.00    -0.065 C 
ATOM     28  H18 LGS d           0.290   5.597  11.623  0.00  0.00     0.033 H 
ATOM     29  H19 LGS d          -0.480   7.111  12.207  0.00  0.00     0.033 H 
BRANCH  27  30
ATOM     30  C12 LGS d           1.550   6.796  12.936  0.00  0.00    -0.065 C 
ATOM     31  H20 LGS d           1.512   7.817  13.343  0.00  0.00     0.033 H 
ATOM     32  H21 LGS d           2.530   6.624  12.467  0.00  0.00     0.033 H 
BRANCH  30  33
ATOM     33  C13 LGS d           1.380   5.796  14.099  0.00  0.00    -0.065 C 
ATOM     34  H22 LGS d           0.465   5.205  13.938  0.00  0.00     0.033 H 
ATOM     35  H23 LGS d           1.295   6.352  15.044  0.00  0.00     0.033 H 
BRANCH  33  36
ATOM     36  C14 LGS d           2.589   4.847  14.177  0.00  0.00    -0.069 C 
ATOM     37  H24 LGS d           2.247   3.813  14.021  0.00  0.00     0.032 H 
ATOM     38  H25 LGS d           3.054   4.934  15.170  0.00  0.00     0.032 H 
BRANCH  36  39
ATOM     39  C15 LGS d           3.625   5.198  13.105  0.00  0.00    -0.077 C 
ATOM     40  H26 LGS d           3.152   5.169  12.114  0.00  0.00     0.027 H 
ATOM     41  H27 LGS d           4.449   4.471  13.140  0.00  0.00     0.027 H 
ATOM     42  H28 LGS d           4.020   6.208  13.294  0.00  0.00     0.027 H 
ENDBRANCH  36  39
ENDBRANCH  33  36
ENDBRANCH  30  33
ENDBRANCH  27  30
ENDBRANCH  24  27
ENDBRANCH  21  24
ENDBRANCH  18  21
ENDBRANCH  10  18
BRANCH   7  43
ATOM     43  O1  LGS d           2.597   5.600   5.563  0.00  0.00    -0.374 OA
ATOM     44  H11 LGS d           3.297   6.202   5.788  0.00  0.00     0.212 HD
ENDBRANCH   7  43
BRANCH   1  45
ATOM     45  O4  LGS d           7.288   3.261   5.315  0.00  0.00    -0.391 OA
ATOM     46  H1  LGS d           7.247   2.438   4.841  0.00  0.00     0.210 HD
ENDBRANCH   1  45
BRANCH   6  47
ATOM     47  O2  LGS d           2.904   3.457   3.190  0.00  0.00    -0.389 OA
ATOM     48  H9  LGS d           3.386   3.005   2.507  0.00  0.00     0.210 HD
ENDBRANCH   6  47
BRANCH   5  49
ATOM     49  O3  LGS d           5.853   3.577   2.946  0.00  0.00    -0.390 OA
ATOM     50  H7  LGS d           6.581   2.970   2.873  0.00  0.00     0.210 HD
ENDBRANCH   5  49
TORSDOF 12
ENDMDL
MODEL 2
REMARK VINA RESULT:      -6.9      1.526      2.945
REMARK  12 active torsions:
REMARK  status: ('A' for Active; 'I' for Inactive)
REMARK    1  A    between atoms: O4_1  and  C4_2 
REMARK    2  A    between atoms: C3_6  and  O3_7 
REMARK    3  A    between atoms: C2_8  and  O2_9 
REMARK    4  A    between atoms: C1_10  and  O1_11 
REMARK    5  A    between atoms: N2_14  and  C8_15 
REMARK    6  A    between atoms: C8_15  and  C9_16 
REMARK    7  A    between atoms: C9_16  and  C10_17 
REMARK    8  A    between atoms: C10_17  and  C11_18 
REMARK    9  A    between atoms: C11_18  and  C12_19 
REMARK   10  A    between atoms: C12_19  and  C13_20 
REMARK   11  A    between atoms: C13_20  and  C14_21 
REMARK   12  A    between atoms: C14_21  and  C15_22 
ROOT
ATOM      1  C4  LGS d           5.125   3.369   4.071  0.00  0.00     0.084 C 
ATOM      2  C5  LGS d           4.378   4.183   5.134  0.00  0.00     0.066 C 
ATOM      3  C6  LGS d           3.193   3.506   5.820  0.00  0.00     0.050 C 
ATOM      4  O6  LGS d           3.359   3.819   7.227  0.00  0.00    -0.319 OA
ATOM      5  C3  LGS d           6.204   4.300   3.506  0.00  0.00     0.091 C 
ATOM      6  C2  LGS d           7.293   4.582   4.553  0.00  0.00     0.104 C 
ATOM      7  C1  LGS d           6.715   4.895   5.955  0.00  0.00     0.133 C 
ATOM      8  N1  LGS d           5.322   4.464   6.226  0.00  0.00    -0.307 N 
ATOM      9  C7  LGS d           4.650   4.266   7.416  0.00  0.00     0.241 C 
ATOM     10  N2  LGS d           5.133   4.524   8.635  0.00  0.00    -0.251 NA
ATOM     11  H2  LGS d           5.582   2.474   4.518  0.00  0.00     0.090 H 
ATOM     12  H3  LGS d           4.031   5.118   4.669  0.00  0.00     0.080 H 
ATOM     13  H4  LGS d           3.220   2.418   5.658  0.00  0.00     0.078 H 
ATOM     14  H5  LGS d           2.242   3.910   5.442  0.00  0.00     0.078 H 
ATOM     15  H6  LGS d           5.737   5.245   3.190  0.00  0.00     0.091 H 
ATOM     16  H8  LGS d           7.910   3.675   4.634  0.00  0.00     0.093 H 
ATOM     17  H10 LGS d           6.777   5.984   6.101  0.00  0.00     0.122 H 
ENDROOT
BRANCH  10  18
ATOM     18  C8  LGS d           4.409   4.546   9.913  0.00  0.00     0.019 C 
ATOM     19  H12 LGS d           4.935   3.903  10.634  0.00  0.00     0.067 H 
ATOM     20  H13 LGS d           3.390   4.163   9.755  0.00  0.00     0.067 H 
BRANCH  18  21
ATOM     21  C9  LGS d           4.329   5.961  10.472  0.00  0.00    -0.048 C 
ATOM     22  H14 LGS d           5.306   6.450  10.344  0.00  0.00     0.035 H 
ATOM     23  H15 LGS d           4.083   5.907  11.543  0.00  0.00     0.035 H 
BRANCH  21  24
ATOM     24  C10 LGS d           3.258   6.797   9.757  0.00  0.00    -0.064 C 
ATOM     25  H16 LGS d           3.512   6.853   8.687  0.00  0.00     0.033 H 
ATOM     26  H17 LGS d           3.257   7.810  10.187  0.00  0.00     0.033 H 
BRANCH  24  27
ATOM     27  C11 LGS d           1.837   6.201   9.896  0.00  0.00    -0.065 C 
ATOM     28  H18 LGS d           1.827   5.421  10.673  0.00  0.00     0.033 H 
ATOM     29  H19 LGS d           1.511   5.768   8.938  0.00  0.00     0.033 H 
BRANCH  27  30
ATOM     30  C12 LGS d           0.910   7.363  10.296  0.00  0.00    -0.065 C 
ATOM     31  H20 LGS d           0.096   7.431   9.559  0.00  0.00     0.033 H 
ATOM     32  H21 LGS d           1.493   8.295  10.287  0.00  0.00     0.033 H 
BRANCH  30  33
ATOM     33  C13 LGS d           0.289   7.186  11.698  0.00  0.00    -0.065 C 
ATOM     34  H22 LGS d          -0.764   6.887  11.593  0.00  0.00     0.033 H 
ATOM     35  H23 LGS d           0.347   8.140  12.242  0.00  0.00     0.033 H 
BRANCH  33  36
ATOM     36  C14 LGS d           1.046   6.105  12.491  0.00  0.00    -0.069 C 
ATOM     37  H24 LGS d           1.894   5.744  11.891  0.00  0.00     0.032 H 
ATOM     38  H25 LGS d           0.364   5.268  12.703  0.00  0.00     0.032 H 
BRANCH  36  39
ATOM     39  C15 LGS d           1.572   6.670  13.814  0.00  0.00    -0.077 C 
ATOM     40  H26 LGS d           1.779   7.743  13.698  0.00  0.00     0.027 H 
ATOM     41  H27 LGS d           2.498   6.146  14.094  0.00  0.00     0.027 H 
ATOM     42  H28 LGS d           0.817   6.525  14.601  0.00  0.00     0.027 H 
ENDBRANCH  36  39
ENDBRANCH  33  36
ENDBRANCH  30  33
ENDBRANCH  27  30
ENDBRANCH  24  27
ENDBRANCH  21  24
ENDBRANCH  18  21
ENDBRANCH  10  18
BRANCH   7  43
ATOM     43  O1  LGS d           7.493   4.218   6.961  0.00  0.00    -0.374 OA
ATOM     44  H11 LGS d           7.313   3.286   6.924  0.00  0.00     0.212 HD
ENDBRANCH   7  43
BRANCH   1  45
ATOM     45  O4  LGS d           4.231   2.987   3.039  0.00  0.00    -0.391 OA
ATOM     46  H1  LGS d           4.350   3.559   2.290  0.00  0.00     0.210 HD
ENDBRANCH   1  45
BRANCH   6  47
ATOM     47  O2  LGS d           8.143   5.669   4.170  0.00  0.00    -0.389 OA
ATOM     48  H9  LGS d           7.936   6.432   4.698  0.00  0.00     0.210 HD
ENDBRANCH   6  47
BRANCH   5  49
ATOM     49  O3  LGS d           6.854   3.678   2.395  0.00  0.00    -0.390 OA
ATOM     50  H7  LGS d           7.698   3.341   2.672  0.00  0.00     0.210 HD
ENDBRANCH   5  49
TORSDOF 12
ENDMDL
MODEL 3
REMARK VINA RESULT:      -6.7      1.837      3.052
REMARK  12 active torsions:
REMARK  status: ('A' for Active; 'I' for Inactive)
REMARK    1  A    between atoms: O4_1  and  C4_2 
REMARK    2  A    between atoms: C3_6  and  O3_7 
REMARK    3  A    between atoms: C2_8  and  O2_9 
REMARK    4  A    between atoms: C1_10  and  O1_11 
REMARK    5  A    between atoms: N2_14  and  C8_15 
REMARK    6  A    between atoms: C8_15  and  C9_16 
REMARK    7  A    between atoms: C9_16  and  C10_17 
REMARK    8  A    between atoms: C10_17  and  C11_18 
REMARK    9  A    between atoms: C11_18  and  C12_19 
REMARK   10  A    between atoms: C12_19  and  C13_20 
REMARK   11  A    between atoms: C13_20  and  C14_21 
REMARK   12  A    between atoms: C14_21  and  C15_22 
ROOT
ATOM      1  C4  LGS d           5.451   3.727   3.783  0.00  0.00     0.084 C 
ATOM      2  C5  LGS d           6.243   3.514   5.079  0.00  0.00     0.066 C 
ATOM      3  C6  LGS d           7.668   4.062   5.118  0.00  0.00     0.050 C 
ATOM      4  O6  LGS d           7.776   4.705   6.414  0.00  0.00    -0.319 OA
ATOM      5  C3  LGS d           4.102   3.028   3.992  0.00  0.00     0.091 C 
ATOM      6  C2  LGS d           3.254   3.766   5.041  0.00  0.00     0.104 C 
ATOM      7  C1  LGS d           4.068   4.178   6.292  0.00  0.00     0.133 C 
ATOM      8  N1  LGS d           5.544   4.234   6.153  0.00  0.00    -0.307 N 
ATOM      9  C7  LGS d           6.501   4.876   6.913  0.00  0.00     0.241 C 
ATOM     10  N2  LGS d           6.275   5.547   8.046  0.00  0.00    -0.251 NA
ATOM     11  H2  LGS d           5.304   4.801   3.591  0.00  0.00     0.090 H 
ATOM     12  H3  LGS d           6.272   2.434   5.289  0.00  0.00     0.080 H 
ATOM     13  H4  LGS d           7.827   4.790   4.308  0.00  0.00     0.078 H 
ATOM     14  H5  LGS d           8.401   3.246   5.027  0.00  0.00     0.078 H 
ATOM     15  H6  LGS d           4.278   1.992   4.317  0.00  0.00     0.091 H 
ATOM     16  H8  LGS d           2.873   4.682   4.566  0.00  0.00     0.093 H 
ATOM     17  H10 LGS d           3.821   3.468   7.094  0.00  0.00     0.122 H 
ENDROOT
BRANCH  10  18
ATOM     18  C8  LGS d           7.258   6.061   9.009  0.00  0.00     0.019 C 
ATOM     19  H12 LGS d           7.753   6.944   8.582  0.00  0.00     0.067 H 
ATOM     20  H13 LGS d           8.008   5.280   9.209  0.00  0.00     0.067 H 
BRANCH  18  21
ATOM     21  C9  LGS d           6.586   6.452  10.321  0.00  0.00    -0.048 C 
ATOM     22  H14 LGS d           6.546   7.549  10.387  0.00  0.00     0.035 H 
ATOM     23  H15 LGS d           7.179   6.054  11.157  0.00  0.00     0.035 H 
BRANCH  21  24
ATOM     24  C10 LGS d           5.157   5.897  10.416  0.00  0.00    -0.064 C 
ATOM     25  H16 LGS d           5.211   4.800  10.498  0.00  0.00     0.033 H 
ATOM     26  H17 LGS d           4.612   6.170   9.501  0.00  0.00     0.033 H 
BRANCH  24  27
ATOM     27  C11 LGS d           4.379   6.445  11.636  0.00  0.00    -0.065 C 
ATOM     28  H18 LGS d           3.843   7.366  11.362  0.00  0.00     0.033 H 
ATOM     29  H19 LGS d           5.071   6.657  12.465  0.00  0.00     0.033 H 
BRANCH  27  30
ATOM     30  C12 LGS d           3.378   5.350  12.047  0.00  0.00    -0.065 C 
ATOM     31  H20 LGS d           3.214   5.415  13.133  0.00  0.00     0.033 H 
ATOM     32  H21 LGS d           3.810   4.369  11.799  0.00  0.00     0.033 H 
BRANCH  30  33
ATOM     33  C13 LGS d           2.014   5.480  11.336  0.00  0.00    -0.065 C 
ATOM     34  H22 LGS d           1.596   4.476  11.170  0.00  0.00     0.033 H 
ATOM     35  H23 LGS d           2.157   5.982  10.368  0.00  0.00     0.033 H 
BRANCH  33  36
ATOM     36  C14 LGS d           1.034   6.301  12.193  0.00  0.00    -0.069 C 
ATOM     37  H24 LGS d           1.600   6.858  12.955  0.00  0.00     0.032 H 
ATOM     38  H25 LGS d           0.327   5.619  12.687  0.00  0.00     0.032 H 
BRANCH  36  39
ATOM     39  C15 LGS d           0.253   7.292  11.326  0.00  0.00    -0.077 C 
ATOM     40  H26 LGS d           0.826   8.225  11.228  0.00  0.00     0.027 H 
ATOM     41  H27 LGS d          -0.718   7.506  11.797  0.00  0.00     0.027 H 
ATOM     42  H28 LGS d           0.088   6.856  10.329  0.00  0.00     0.027 H 
ENDBRANCH  36  39
ENDBRANCH  33  36
ENDBRANCH  30  33
ENDBRANCH  27  30
ENDBRANCH  24  27
ENDBRANCH  21  24
ENDBRANCH  18  21
ENDBRANCH  10  18
BRANCH   7  43
ATOM     43  O1  LGS d           3.703   5.515   6.687  0.00  0.00    -0.374 OA
ATOM     44  H11 LGS d           4.416   6.110   6.485  0.00  0.00     0.212 HD
ENDBRANCH   7  43
BRANCH   1  45
ATOM     45  O4  LGS d           6.136   3.134   2.694  0.00  0.00    -0.391 OA
ATOM     46  H1  LGS d           6.991   3.539   2.601  0.00  0.00     0.210 HD
ENDBRANCH   1  45
BRANCH   6  47
ATOM     47  O2  LGS d           2.135   2.987   5.476  0.00  0.00    -0.389 OA
ATOM     48  H9  LGS d           1.339   3.500   5.385  0.00  0.00     0.210 HD
ENDBRANCH   6  47
BRANCH   5  49
ATOM     49  O3  LGS d           3.352   3.040   2.776  0.00  0.00    -0.390 OA
ATOM     50  H7  LGS d           2.676   2.373   2.815  0.00  0.00     0.210 HD
ENDBRANCH   5  49
TORSDOF 12
ENDMDL
MODEL 4
REMARK VINA RESULT:      -6.6      1.589      3.167
REMARK  12 active torsions:
REMARK  status: ('A' for Active; 'I' for Inactive)
REMARK    1  A    between atoms: O4_1  and  C4_2 
REMARK    2  A    between atoms: C3_6  and  O3_7 
REMARK    3  A    between atoms: C2_8  and  O2_9 
REMARK    4  A    between atoms: C1_10  and  O1_11 
REMARK    5  A    between atoms: N2_14  and  C8_15 
REMARK    6  A    between atoms: C8_15  and  C9_16 
REMARK    7  A    between atoms: C9_16  and  C10_17 
REMARK    8  A    between atoms: C10_17  and  C11_18 
REMARK    9  A    between atoms: C11_18  and  C12_19 
REMARK   10  A    between atoms: C12_19  and  C13_20 
REMARK   11  A    between atoms: C13_20  and  C14_21 
REMARK   12  A    between atoms: C14_21  and  C15_22 
ROOT
ATOM      1  C4  LGS d           4.510   4.055   4.425  0.00  0.00     0.084 C 
ATOM      2  C5  LGS d           4.133   5.275   5.273  0.00  0.00     0.066 C 
ATOM      3  C6  LGS d           2.779   5.237   5.980  0.00  0.00     0.050 C 
ATOM      4  O6  LGS d           3.053   5.724   7.318  0.00  0.00    -0.319 OA
ATOM      5  C3  LGS d           5.864   4.386   3.785  0.00  0.00     0.091 C 
ATOM      6  C2  LGS d           6.978   4.430   4.842  0.00  0.00     0.104 C 
ATOM      7  C1  LGS d           6.565   5.197   6.122  0.00  0.00     0.133 C 
ATOM      8  N1  LGS d           5.113   5.381   6.363  0.00  0.00    -0.307 N 
ATOM      9  C7  LGS d           4.417   5.680   7.518  0.00  0.00     0.241 C 
ATOM     10  N2  LGS d           4.963   5.963   8.704  0.00  0.00    -0.251 NA
ATOM     11  H2  LGS d           4.590   3.156   5.054  0.00  0.00     0.090 H 
ATOM     12  H3  LGS d           4.171   6.166   4.627  0.00  0.00     0.080 H 
ATOM     13  H4  LGS d           2.388   4.209   6.013  0.00  0.00     0.078 H 
ATOM     14  H5  LGS d           2.055   5.889   5.469  0.00  0.00     0.078 H 
ATOM     15  H6  LGS d           5.794   5.359   3.275  0.00  0.00     0.091 H 
ATOM     16  H8  LGS d           7.201   3.391   5.125  0.00  0.00     0.093 H 
ATOM     17  H10 LGS d           7.039   6.189   6.079  0.00  0.00     0.122 H 
ENDROOT
BRANCH  10  18
ATOM     18  C8  LGS d           4.304   6.497   9.903  0.00  0.00     0.019 C 
ATOM     19  H12 LGS d           3.217   6.518   9.736  0.00  0.00     0.067 H 
ATOM     20  H13 LGS d           4.667   7.519  10.089  0.00  0.00     0.067 H 
BRANCH  18  21
ATOM     21  C9  LGS d           4.603   5.633  11.123  0.00  0.00    -0.048 C 
ATOM     22  H14 LGS d           5.218   6.213  11.828  0.00  0.00     0.035 H 
ATOM     23  H15 LGS d           5.158   4.741  10.800  0.00  0.00     0.035 H 
BRANCH  21  24
ATOM     24  C10 LGS d           3.317   5.188  11.836  0.00  0.00    -0.064 C 
ATOM     25  H16 LGS d           3.283   4.088  11.845  0.00  0.00     0.033 H 
ATOM     26  H17 LGS d           2.453   5.577  11.277  0.00  0.00     0.033 H 
BRANCH  24  27
ATOM     27  C11 LGS d           3.231   5.697  13.295  0.00  0.00    -0.065 C 
ATOM     28  H18 LGS d           4.143   6.255  13.557  0.00  0.00     0.033 H 
ATOM     29  H19 LGS d           3.109   4.850  13.986  0.00  0.00     0.033 H 
BRANCH  27  30
ATOM     30  C12 LGS d           2.003   6.622  13.366  0.00  0.00    -0.065 C 
ATOM     31  H20 LGS d           2.298   7.624  13.021  0.00  0.00     0.033 H 
ATOM     32  H21 LGS d           1.666   6.678  14.412  0.00  0.00     0.033 H 
BRANCH  30  33
ATOM     33  C13 LGS d           0.825   6.131  12.497  0.00  0.00    -0.065 C 
ATOM     34  H22 LGS d           0.031   5.740  13.151  0.00  0.00     0.033 H 
ATOM     35  H23 LGS d           1.177   5.332  11.829  0.00  0.00     0.033 H 
BRANCH  33  36
ATOM     36  C14 LGS d           0.260   7.286  11.651  0.00  0.00    -0.069 C 
ATOM     37  H24 LGS d           0.587   8.244  12.082  0.00  0.00     0.032 H 
ATOM     38  H25 LGS d          -0.839   7.237  11.660  0.00  0.00     0.032 H 
BRANCH  36  39
ATOM     39  C15 LGS d           0.755   7.193  10.205  0.00  0.00    -0.077 C 
ATOM     40  H26 LGS d           0.311   8.006   9.612  0.00  0.00     0.027 H 
ATOM     41  H27 LGS d           0.458   6.224   9.778  0.00  0.00     0.027 H 
ATOM     42  H28 LGS d           1.851   7.281  10.186  0.00  0.00     0.027 H 
ENDBRANCH  36  39
ENDBRANCH  33  36
ENDBRANCH  30  33
ENDBRANCH  27  30
ENDBRANCH  24  27
ENDBRANCH  21  24
ENDBRANCH  18  21
ENDBRANCH  10  18
BRANCH   7  43
ATOM     43  O1  LGS d           7.025   4.481   7.284  0.00  0.00    -0.374 OA
ATOM     44  H11 LGS d           7.974   4.472   7.294  0.00  0.00     0.212 HD
ENDBRANCH   7  43
BRANCH   1  45
ATOM     45  O4  LGS d           3.538   3.848   3.414  0.00  0.00    -0.391 OA
ATOM     46  H1  LGS d           3.706   4.438   2.689  0.00  0.00     0.210 HD
ENDBRANCH   1  45
BRANCH   6  47
ATOM     47  O2  LGS d           8.179   5.024   4.337  0.00  0.00    -0.389 OA
ATOM     48  H9  LGS d           7.966   5.594   3.607  0.00  0.00     0.210 HD
ENDBRANCH   6  47
BRANCH   5  49
ATOM     49  O3  LGS d           6.225   3.367   2.850  0.00  0.00    -0.390 OA
ATOM     50  H7  LGS d           5.445   3.059   2.403  0.00  0.00     0.210 HD
ENDBRANCH   5  49
TORSDOF 12
ENDMDL
MODEL 5
REMARK VINA RESULT:      -6.5      1.598      2.458
REMARK  12 active torsions:
REMARK  status: ('A' for Active; 'I' for Inactive)
REMARK    1  A    between atoms: O4_1  and  C4_2 
REMARK    2  A    between atoms: C3_6  and  O3_7 
REMARK    3  A    between atoms: C2_8  and  O2_9 
REMARK    4  A    between atoms: C1_10  and  O1_11 
REMARK    5  A    between atoms: N2_14  and  C8_15 
REMARK    6  A    between atoms: C8_15  and  C9_16 
REMARK    7  A    between atoms: C9_16  and  C10_17 
REMARK    8  A    between atoms: C10_17  and  C11_18 
REMARK    9  A    between atoms: C11_18  and  C12_19 
REMARK   10  A    between atoms: C12_19  and  C13_20 
REMARK   11  A    between atoms: C13_20  and  C14_21 
REMARK   12  A    between atoms: C14_21  and  C15_22 
ROOT
ATOM      1  C4  LGS d           6.318   3.628   4.987  0.00  0.00     0.084 C 
ATOM      2  C5  LGS d           5.700   3.105   6.289  0.00  0.00     0.066 C 
ATOM      3  C6  LGS d           6.410   3.472   7.591  0.00  0.00     0.050 C 
ATOM      4  O6  LGS d           5.342   3.865   8.490  0.00  0.00    -0.319 OA
ATOM      5  C3  LGS d           5.457   3.061   3.852  0.00  0.00     0.091 C 
ATOM      6  C2  LGS d           4.058   3.698   3.850  0.00  0.00     0.104 C 
ATOM      7  C1  LGS d           3.437   3.792   5.266  0.00  0.00     0.133 C 
ATOM      8  N1  LGS d           4.363   3.703   6.420  0.00  0.00    -0.307 N 
ATOM      9  C7  LGS d           4.210   4.091   7.737  0.00  0.00     0.241 C 
ATOM     10  N2  LGS d           3.090   4.577   8.279  0.00  0.00    -0.251 NA
ATOM     11  H2  LGS d           6.308   4.728   4.968  0.00  0.00     0.090 H 
ATOM     12  H3  LGS d           5.631   2.009   6.220  0.00  0.00     0.080 H 
ATOM     13  H4  LGS d           7.109   4.306   7.430  0.00  0.00     0.078 H 
ATOM     14  H5  LGS d           6.958   2.607   7.992  0.00  0.00     0.078 H 
ATOM     15  H6  LGS d           5.370   1.971   3.974  0.00  0.00     0.091 H 
ATOM     16  H8  LGS d           4.165   4.719   3.457  0.00  0.00     0.093 H 
ATOM     17  H10 LGS d           2.693   2.986   5.353  0.00  0.00     0.122 H 
ENDROOT
BRANCH  10  18
ATOM     18  C8  LGS d           2.792   4.800   9.700  0.00  0.00     0.019 C 
ATOM     19  H12 LGS d           3.713   4.668  10.286  0.00  0.00     0.067 H 
ATOM     20  H13 LGS d           2.039   4.068  10.030  0.00  0.00     0.067 H 
BRANCH  18  21
ATOM     21  C9  LGS d           2.252   6.207   9.932  0.00  0.00    -0.048 C 
ATOM     22  H14 LGS d           1.196   6.238   9.625  0.00  0.00     0.035 H 
ATOM     23  H15 LGS d           2.833   6.915   9.323  0.00  0.00     0.035 H 
BRANCH  21  24
ATOM     24  C10 LGS d           2.352   6.620  11.407  0.00  0.00    -0.064 C 
ATOM     25  H16 LGS d           1.515   6.164  11.958  0.00  0.00     0.033 H 
ATOM     26  H17 LGS d           2.280   7.716  11.471  0.00  0.00     0.033 H 
BRANCH  24  27
ATOM     27  C11 LGS d           3.678   6.174  12.068  0.00  0.00    -0.065 C 
ATOM     28  H18 LGS d           3.893   5.124  11.818  0.00  0.00     0.033 H 
ATOM     29  H19 LGS d           3.614   6.285  13.161  0.00  0.00     0.033 H 
BRANCH  27  30
ATOM     30  C12 LGS d           4.780   7.091  11.506  0.00  0.00    -0.065 C 
ATOM     31  H20 LGS d           5.164   7.719  12.323  0.00  0.00     0.033 H 
ATOM     32  H21 LGS d           4.339   7.730  10.726  0.00  0.00     0.033 H 
BRANCH  30  33
ATOM     33  C13 LGS d           5.961   6.310  10.890  0.00  0.00    -0.065 C 
ATOM     34  H22 LGS d           5.600   5.337  10.524  0.00  0.00     0.033 H 
ATOM     35  H23 LGS d           6.729   6.149  11.661  0.00  0.00     0.033 H 
BRANCH  33  36
ATOM     36  C14 LGS d           6.576   7.096   9.719  0.00  0.00    -0.069 C 
ATOM     37  H24 LGS d           7.325   6.467   9.215  0.00  0.00     0.032 H 
ATOM     38  H25 LGS d           7.061   8.003  10.108  0.00  0.00     0.032 H 
BRANCH  36  39
ATOM     39  C15 LGS d           5.498   7.498   8.708  0.00  0.00    -0.077 C 
ATOM     40  H26 LGS d           4.864   6.629   8.484  0.00  0.00     0.027 H 
ATOM     41  H27 LGS d           5.977   7.852   7.783  0.00  0.00     0.027 H 
ATOM     42  H28 LGS d           4.880   8.303   9.132  0.00  0.00     0.027 H 
ENDBRANCH  36  39
ENDBRANCH  33  36
ENDBRANCH  30  33
ENDBRANCH  27  30
ENDBRANCH  24  27
ENDBRANCH  21  24
ENDBRANCH  18  21
ENDBRANCH  10  18
BRANCH   7  43
ATOM     43  O1  LGS d           2.797   5.072   5.428  0.00  0.00    -0.374 OA
ATOM     44  H11 LGS d           1.997   5.093   4.916  0.00  0.00     0.212 HD
ENDBRANCH   7  43
BRANCH   1  45
ATOM     45  O4  LGS d           7.649   3.158   4.861  0.00  0.00    -0.391 OA
ATOM     46  H1  LGS d           8.251   3.890   4.941  0.00  0.00     0.210 HD
ENDBRANCH   1  45
BRANCH   6  47
ATOM     47  O2  LGS d           3.142   2.988   3.009  0.00  0.00    -0.389 OA
ATOM     48  H9  LGS d           2.536   2.493   3.550  0.00  0.00     0.210 HD
ENDBRANCH   6  47
BRANCH   5  49
ATOM     49  O3  LGS d           6.049   3.369   2.589  0.00  0.00    -0.390 OA
ATOM     50  H7  LGS d           6.813   2.818   2.456  0.00  0.00     0.210 HD
ENDBRANCH   5  49
TORSDOF 12
ENDMDL
MODEL 6
REMARK VINA RESULT:      -6.4      3.173      6.952
REMARK  12 active torsions:
REMARK  status: ('A' for Active; 'I' for Inactive)
REMARK    1  A    between atoms: O4_1  and  C4_2 
REMARK    2  A    between atoms: C3_6  and  O3_7 
REMARK    3  A    between atoms: C2_8  and  O2_9 
REMARK    4  A    between atoms: C1_10  and  O1_11 
REMARK    5  A    between atoms: N2_14  and  C8_15 
REMARK    6  A    between atoms: C8_15  and  C9_16 
REMARK    7  A    between atoms: C9_16  and  C10_17 
REMARK    8  A    between atoms: C10_17  and  C11_18 
REMARK    9  A    between atoms: C11_18  and  C12_19 
REMARK   10  A    between atoms: C12_19  and  C13_20 
REMARK   11  A    between atoms: C13_20  and  C14_21 
REMARK   12  A    between atoms: C14_21  and  C15_22 
ROOT
ATOM      1  C4  LGS d           4.924   7.039  11.294  0.00  0.00     0.084 C 
ATOM      2  C5  LGS d           4.991   7.293   9.784  0.00  0.00     0.066 C 
ATOM      3  C6  LGS d           6.229   8.016   9.256  0.00  0.00     0.050 C 
ATOM      4  O6  LGS d           6.607   7.271   8.070  0.00  0.00    -0.319 OA
ATOM      5  C3  LGS d           3.567   6.373  11.551  0.00  0.00     0.091 C 
ATOM      6  C2  LGS d           3.526   4.955  10.960  0.00  0.00     0.104 C 
ATOM      7  C1  LGS d           4.120   4.881   9.532  0.00  0.00     0.133 C 
ATOM      8  N1  LGS d           5.015   5.986   9.111  0.00  0.00    -0.307 N 
ATOM      9  C7  LGS d           5.954   6.057   8.101  0.00  0.00     0.241 C 
ATOM     10  N2  LGS d           6.194   5.106   7.193  0.00  0.00    -0.251 NA
ATOM     11  H2  LGS d           5.745   6.379  11.612  0.00  0.00     0.090 H 
ATOM     12  H3  LGS d           4.096   7.864   9.492  0.00  0.00     0.080 H 
ATOM     13  H4  LGS d           7.037   7.996  10.002  0.00  0.00     0.078 H 
ATOM     14  H5  LGS d           5.990   9.059   9.000  0.00  0.00     0.078 H 
ATOM     15  H6  LGS d           2.772   6.987  11.103  0.00  0.00     0.091 H 
ATOM     16  H8  LGS d           4.132   4.311  11.615  0.00  0.00     0.093 H 
ATOM     17  H10 LGS d           3.277   4.827   8.827  0.00  0.00     0.122 H 
ENDROOT
BRANCH  10  18
ATOM     18  C8  LGS d           7.010   5.199   5.976  0.00  0.00     0.019 C 
ATOM     19  H12 LGS d           7.922   4.599   6.108  0.00  0.00     0.067 H 
ATOM     20  H13 LGS d           7.283   6.251   5.805  0.00  0.00     0.067 H 
BRANCH  18  21
ATOM     21  C9  LGS d           6.245   4.680   4.763  0.00  0.00    -0.048 C 
ATOM     22  H14 LGS d           5.344   4.152   5.110  0.00  0.00     0.035 H 
ATOM     23  H15 LGS d           6.889   3.982   4.208  0.00  0.00     0.035 H 
BRANCH  21  24
ATOM     24  C10 LGS d           5.823   5.820   3.825  0.00  0.00    -0.064 C 
ATOM     25  H16 LGS d           5.417   5.382   2.901  0.00  0.00     0.033 H 
ATOM     26  H17 LGS d           6.710   6.425   3.586  0.00  0.00     0.033 H 
BRANCH  24  27
ATOM     27  C11 LGS d           4.748   6.744   4.447  0.00  0.00    -0.065 C 
ATOM     28  H18 LGS d           4.659   7.671   3.861  0.00  0.00     0.033 H 
ATOM     29  H19 LGS d           5.015   6.992   5.486  0.00  0.00     0.033 H 
BRANCH  27  30
ATOM     30  C12 LGS d           3.422   5.962   4.411  0.00  0.00    -0.065 C 
ATOM     31  H20 LGS d           3.579   5.032   3.845  0.00  0.00     0.033 H 
ATOM     32  H21 LGS d           2.666   6.579   3.902  0.00  0.00     0.033 H 
BRANCH  30  33
ATOM     33  C13 LGS d           2.896   5.600   5.816  0.00  0.00    -0.065 C 
ATOM     34  H22 LGS d           1.858   5.951   5.915  0.00  0.00     0.033 H 
ATOM     35  H23 LGS d           3.523   6.090   6.575  0.00  0.00     0.033 H 
BRANCH  33  36
ATOM     36  C14 LGS d           2.938   4.076   6.032  0.00  0.00    -0.069 C 
ATOM     37  H24 LGS d           2.127   3.786   6.716  0.00  0.00     0.032 H 
ATOM     38  H25 LGS d           3.907   3.801   6.474  0.00  0.00     0.032 H 
BRANCH  36  39
ATOM     39  C15 LGS d           2.763   3.334   4.704  0.00  0.00    -0.077 C 
ATOM     40  H26 LGS d           2.928   4.031   3.870  0.00  0.00     0.027 H 
ATOM     41  H27 LGS d           1.744   2.925   4.644  0.00  0.00     0.027 H 
ATOM     42  H28 LGS d           3.492   2.512   4.645  0.00  0.00     0.027 H 
ENDBRANCH  36  39
ENDBRANCH  33  36
ENDBRANCH  30  33
ENDBRANCH  27  30
ENDBRANCH  24  27
ENDBRANCH  21  24
ENDBRANCH  18  21
ENDBRANCH  10  18
BRANCH   7  43
ATOM     43  O1  LGS d           4.940   3.702   9.411  0.00  0.00    -0.374 OA
ATOM     44  H11 LGS d           4.847   3.171  10.193  0.00  0.00     0.212 HD
ENDBRANCH   7  43
BRANCH   1  45
ATOM     45  O4  LGS d           4.998   8.268  11.995  0.00  0.00    -0.391 OA
ATOM     46  H1  LGS d           5.419   8.127  12.836  0.00  0.00     0.210 HD
ENDBRANCH   1  45
BRANCH   6  47
ATOM     47  O2  LGS d           2.197   4.425  10.916  0.00  0.00    -0.389 OA
ATOM     48  H9  LGS d           2.230   3.481  11.014  0.00  0.00     0.210 HD
ENDBRANCH   6  47
BRANCH   5  49
ATOM     49  O3  LGS d           3.348   6.238  12.957  0.00  0.00    -0.390 OA
ATOM     50  H7  LGS d           3.079   7.076  13.317  0.00  0.00     0.210 HD
ENDBRANCH   5  49
TORSDOF 12
ENDMDL
MODEL 7
REMARK VINA RESULT:      -6.4      2.910      6.971
REMARK  12 active torsions:
REMARK  status: ('A' for Active; 'I' for Inactive)
REMARK    1  A    between atoms: O4_1  and  C4_2 
REMARK    2  A    between atoms: C3_6  and  O3_7 
REMARK    3  A    between atoms: C2_8  and  O2_9 
REMARK    4  A    between atoms: C1_10  and  O1_11 
REMARK    5  A    between atoms: N2_14  and  C8_15 
REMARK    6  A    between atoms: C8_15  and  C9_16 
REMARK    7  A    between atoms: C9_16  and  C10_17 
REMARK    8  A    between atoms: C10_17  and  C11_18 
REMARK    9  A    between atoms: C11_18  and  C12_19 
REMARK   10  A    between atoms: C12_19  and  C13_20 
REMARK   11  A    between atoms: C13_20  and  C14_21 
REMARK   12  A    between atoms: C14_21  and  C15_22 
ROOT
ATOM      1  C4  LGS d           3.576   5.278  10.350  0.00  0.00     0.084 C 
ATOM      2  C5  LGS d           4.886   4.786   9.723  0.00  0.00     0.066 C 
ATOM      3  C6  LGS d           4.786   3.635   8.723  0.00  0.00     0.050 C 
ATOM      4  O6  LGS d           5.652   4.029   7.628  0.00  0.00    -0.319 OA
ATOM      5  C3  LGS d           3.970   6.370  11.351  0.00  0.00     0.091 C 
ATOM      6  C2  LGS d           4.497   7.619  10.625  0.00  0.00     0.104 C 
ATOM      7  C1  LGS d           5.485   7.280   9.482  0.00  0.00     0.133 C 
ATOM      8  N1  LGS d           5.456   5.897   8.948  0.00  0.00    -0.307 N 
ATOM      9  C7  LGS d           5.915   5.377   7.754  0.00  0.00     0.241 C 
ATOM     10  N2  LGS d           6.597   6.050   6.823  0.00  0.00    -0.251 NA
ATOM     11  H2  LGS d           2.906   5.684   9.577  0.00  0.00     0.090 H 
ATOM     12  H3  LGS d           5.565   4.490  10.537  0.00  0.00     0.080 H 
ATOM     13  H4  LGS d           3.750   3.512   8.374  0.00  0.00     0.078 H 
ATOM     14  H5  LGS d           5.135   2.695   9.175  0.00  0.00     0.078 H 
ATOM     15  H6  LGS d           4.744   5.979  12.028  0.00  0.00     0.091 H 
ATOM     16  H8  LGS d           3.629   8.131  10.184  0.00  0.00     0.093 H 
ATOM     17  H10 LGS d           6.500   7.488   9.852  0.00  0.00     0.122 H 
ENDROOT
BRANCH  10  18
ATOM     18  C8  LGS d           7.298   5.517   5.647  0.00  0.00     0.019 C 
ATOM     19  H12 LGS d           7.048   4.452   5.532  0.00  0.00     0.067 H 
ATOM     20  H13 LGS d           8.383   5.625   5.795  0.00  0.00     0.067 H 
BRANCH  18  21
ATOM     21  C9  LGS d           6.891   6.264   4.382  0.00  0.00    -0.048 C 
ATOM     22  H14 LGS d           7.685   6.147   3.629  0.00  0.00     0.035 H 
ATOM     23  H15 LGS d           6.767   7.330   4.623  0.00  0.00     0.035 H 
BRANCH  21  24
ATOM     24  C10 LGS d           5.574   5.728   3.803  0.00  0.00    -0.064 C 
ATOM     25  H16 LGS d           5.268   4.845   4.384  0.00  0.00     0.033 H 
ATOM     26  H17 LGS d           5.743   5.437   2.756  0.00  0.00     0.033 H 
BRANCH  24  27
ATOM     27  C11 LGS d           4.430   6.769   3.848  0.00  0.00    -0.065 C 
ATOM     28  H18 LGS d           4.371   7.310   2.892  0.00  0.00     0.033 H 
ATOM     29  H19 LGS d           4.599   7.486   4.665  0.00  0.00     0.033 H 
BRANCH  27  30
ATOM     30  C12 LGS d           3.129   5.982   4.093  0.00  0.00    -0.065 C 
ATOM     31  H20 LGS d           3.128   5.095   3.442  0.00  0.00     0.033 H 
ATOM     32  H21 LGS d           2.276   6.627   3.836  0.00  0.00     0.033 H 
BRANCH  30  33
ATOM     33  C13 LGS d           2.971   5.517   5.556  0.00  0.00    -0.065 C 
ATOM     34  H22 LGS d           2.077   5.989   5.991  0.00  0.00     0.033 H 
ATOM     35  H23 LGS d           3.859   5.818   6.130  0.00  0.00     0.033 H 
BRANCH  33  36
ATOM     36  C14 LGS d           2.819   3.986   5.623  0.00  0.00    -0.069 C 
ATOM     37  H24 LGS d           1.903   3.738   6.178  0.00  0.00     0.032 H 
ATOM     38  H25 LGS d           3.690   3.560   6.144  0.00  0.00     0.032 H 
BRANCH  36  39
ATOM     39  C15 LGS d           2.732   3.387   4.217  0.00  0.00    -0.077 C 
ATOM     40  H26 LGS d           1.948   2.617   4.194  0.00  0.00     0.027 H 
ATOM     41  H27 LGS d           3.699   2.934   3.951  0.00  0.00     0.027 H 
ATOM     42  H28 LGS d           2.489   4.180   3.495  0.00  0.00     0.027 H 
ENDBRANCH  36  39
ENDBRANCH  33  36
ENDBRANCH  30  33
ENDBRANCH  27  30
ENDBRANCH  24  27
ENDBRANCH  21  24
ENDBRANCH  18  21
ENDBRANCH  10  18
BRANCH   7  43
ATOM     43  O1  LGS d           5.199   8.104   8.336  0.00  0.00    -0.374 OA
ATOM     44  H11 LGS d           5.741   7.829   7.606  0.00  0.00     0.212 HD
ENDBRANCH   7  43
BRANCH   1  45
ATOM     45  O4  LGS d           2.934   4.212  11.029  0.00  0.00    -0.391 OA
ATOM     46  H1  LGS d           2.052   4.109  10.692  0.00  0.00     0.210 HD
ENDBRANCH   1  45
BRANCH   6  47
ATOM     47  O2  LGS d           5.147   8.529  11.519  0.00  0.00    -0.389 OA
ATOM     48  H9  LGS d           5.890   8.928  11.079  0.00  0.00     0.210 HD
ENDBRANCH   6  47
BRANCH   5  49
ATOM     49  O3  LGS d           2.825   6.784  12.100  0.00  0.00    -0.390 OA
ATOM     50  H7  LGS d           2.957   7.671  12.413  0.00  0.00     0.210 HD
ENDBRANCH   5  49
TORSDOF 12
ENDMDL
MODEL 8
REMARK VINA RESULT:      -6.2      3.082      7.148
REMARK  12 active torsions:
REMARK  status: ('A' for Active; 'I' for Inactive)
REMARK    1  A    between atoms: O4_1  and  C4_2 
REMARK    2  A    between atoms: C3_6  and  O3_7 
REMARK    3  A    between atoms: C2_8  and  O2_9 
REMARK    4  A    between atoms: C1_10  and  O1_11 
REMARK    5  A    between atoms: N2_14  and  C8_15 
REMARK    6  A    between atoms: C8_15  and  C9_16 
REMARK    7  A    between atoms: C9_16  and  C10_17 
REMARK    8  A    between atoms: C10_17  and  C11_18 
REMARK    9  A    between atoms: C11_18  and  C12_19 
REMARK   10  A    between atoms: C12_19  and  C13_20 
REMARK   11  A    between atoms: C13_20  and  C14_21 
REMARK   12  A    between atoms: C14_21  and  C15_22 
ROOT
ATOM      1  C4  LGS d           4.146   7.106  11.088  0.00  0.00     0.084 C 
ATOM      2  C5  LGS d           4.307   5.694  10.511  0.00  0.00     0.066 C 
ATOM      3  C6  LGS d           3.057   4.817  10.467  0.00  0.00     0.050 C 
ATOM      4  O6  LGS d           3.088   4.205   9.152  0.00  0.00    -0.319 OA
ATOM      5  C3  LGS d           5.547   7.729  11.077  0.00  0.00     0.091 C 
ATOM      6  C2  LGS d           6.021   7.995   9.639  0.00  0.00     0.104 C 
ATOM      7  C1  LGS d           5.738   6.811   8.682  0.00  0.00     0.133 C 
ATOM      8  N1  LGS d           4.709   5.830   9.103  0.00  0.00    -0.307 N 
ATOM      9  C7  LGS d           3.985   4.907   8.374  0.00  0.00     0.241 C 
ATOM     10  N2  LGS d           4.143   4.645   7.074  0.00  0.00    -0.251 NA
ATOM     11  H2  LGS d           3.454   7.699  10.472  0.00  0.00     0.090 H 
ATOM     12  H3  LGS d           5.085   5.174  11.089  0.00  0.00     0.080 H 
ATOM     13  H4  LGS d           2.150   5.427  10.591  0.00  0.00     0.078 H 
ATOM     14  H5  LGS d           3.093   4.048  11.253  0.00  0.00     0.078 H 
ATOM     15  H6  LGS d           6.250   7.049  11.581  0.00  0.00     0.091 H 
ATOM     16  H8  LGS d           5.468   8.871   9.270  0.00  0.00     0.093 H 
ATOM     17  H10 LGS d           6.687   6.276   8.530  0.00  0.00     0.122 H 
ENDROOT
BRANCH  10  18
ATOM     18  C8  LGS d           3.570   3.541   6.293  0.00  0.00     0.019 C 
ATOM     19  H12 LGS d           2.836   3.006   6.913  0.00  0.00     0.067 H 
ATOM     20  H13 LGS d           4.376   2.851   6.001  0.00  0.00     0.067 H 
BRANCH  18  21
ATOM     21  C9  LGS d           2.878   4.059   5.038  0.00  0.00    -0.048 C 
ATOM     22  H14 LGS d           1.855   3.658   5.004  0.00  0.00     0.035 H 
ATOM     23  H15 LGS d           3.438   3.715   4.156  0.00  0.00     0.035 H 
BRANCH  21  24
ATOM     24  C10 LGS d           2.811   5.593   5.016  0.00  0.00    -0.064 C 
ATOM     25  H16 LGS d           3.406   5.983   5.857  0.00  0.00     0.033 H 
ATOM     26  H17 LGS d           1.762   5.901   5.136  0.00  0.00     0.033 H 
BRANCH  24  27
ATOM     27  C11 LGS d           3.357   6.201   3.702  0.00  0.00    -0.065 C 
ATOM     28  H18 LGS d           2.638   6.924   3.291  0.00  0.00     0.033 H 
ATOM     29  H19 LGS d           3.541   5.406   2.963  0.00  0.00     0.033 H 
BRANCH  27  30
ATOM     30  C12 LGS d           4.677   6.908   4.060  0.00  0.00    -0.065 C 
ATOM     31  H20 LGS d           4.798   6.891   5.154  0.00  0.00     0.033 H 
ATOM     32  H21 LGS d           4.621   7.951   3.713  0.00  0.00     0.033 H 
BRANCH  30  33
ATOM     33  C13 LGS d           5.914   6.243   3.419  0.00  0.00    -0.065 C 
ATOM     34  H22 LGS d           6.692   7.004   3.259  0.00  0.00     0.033 H 
ATOM     35  H23 LGS d           5.627   5.804   2.452  0.00  0.00     0.033 H 
BRANCH  33  36
ATOM     36  C14 LGS d           6.467   5.136   4.334  0.00  0.00    -0.069 C 
ATOM     37  H24 LGS d           5.900   5.130   5.277  0.00  0.00     0.032 H 
ATOM     38  H25 LGS d           7.527   5.338   4.545  0.00  0.00     0.032 H 
BRANCH  36  39
ATOM     39  C15 LGS d           6.341   3.765   3.665  0.00  0.00    -0.077 C 
ATOM     40  H26 LGS d           5.607   3.156   4.213  0.00  0.00     0.027 H 
ATOM     41  H27 LGS d           7.318   3.260   3.677  0.00  0.00     0.027 H 
ATOM     42  H28 LGS d           6.007   3.893   2.625  0.00  0.00     0.027 H 
ENDBRANCH  36  39
ENDBRANCH  33  36
ENDBRANCH  30  33
ENDBRANCH  27  30
ENDBRANCH  24  27
ENDBRANCH  21  24
ENDBRANCH  18  21
ENDBRANCH  10  18
BRANCH   7  43
ATOM     43  O1  LGS d           5.248   7.314   7.424  0.00  0.00    -0.374 OA
ATOM     44  H11 LGS d           5.803   8.027   7.132  0.00  0.00     0.212 HD
ENDBRANCH   7  43
BRANCH   1  45
ATOM     45  O4  LGS d           3.663   7.032  12.418  0.00  0.00    -0.391 OA
ATOM     46  H1  LGS d           4.379   6.812  13.002  0.00  0.00     0.210 HD
ENDBRANCH   1  45
BRANCH   6  47
ATOM     47  O2  LGS d           7.421   8.291   9.578  0.00  0.00    -0.389 OA
ATOM     48  H9  LGS d           7.901   7.651  10.092  0.00  0.00     0.210 HD
ENDBRANCH   6  47
BRANCH   5  49
ATOM     49  O3  LGS d           5.524   8.994  11.742  0.00  0.00    -0.390 OA
ATOM     50  H7  LGS d           4.739   9.056  12.273  0.00  0.00     0.210 HD
ENDBRANCH   5  49
TORSDOF 12
ENDMDL
MODEL 9
REMARK VINA RESULT:      -6.2      3.366      6.937
REMARK  12 active torsions:
REMARK  status: ('A' for Active; 'I' for Inactive)
REMARK    1  A    between atoms: O4_1  and  C4_2 
REMARK    2  A    between atoms: C3_6  and  O3_7 
REMARK    3  A    between atoms: C2_8  and  O2_9 
REMARK    4  A    between atoms: C1_10  and  O1_11 
REMARK    5  A    between atoms: N2_14  and  C8_15 
REMARK    6  A    between atoms: C8_15  and  C9_16 
REMARK    7  A    between atoms: C9_16  and  C10_17 
REMARK    8  A    between atoms: C10_17  and  C11_18 
REMARK    9  A    between atoms: C11_18  and  C12_19 
REMARK   10  A    between atoms: C12_19  and  C13_20 
REMARK   11  A    between atoms: C13_20  and  C14_21 
REMARK   12  A    between atoms: C14_21  and  C15_22 
ROOT
ATOM      1  C4  LGS d           6.735   8.116   9.859  0.00  0.00     0.084 C 
ATOM      2  C5  LGS d           6.460   7.545   8.463  0.00  0.00     0.066 C 
ATOM      3  C6  LGS d           7.669   7.308   7.560  0.00  0.00     0.050 C 
ATOM      4  O6  LGS d           7.436   6.002   6.974  0.00  0.00    -0.319 OA
ATOM      5  C3  LGS d           5.363   8.316  10.512  0.00  0.00     0.091 C 
ATOM      6  C2  LGS d           4.694   6.966  10.816  0.00  0.00     0.104 C 
ATOM      7  C1  LGS d           4.809   5.960   9.645  0.00  0.00     0.133 C 
ATOM      8  N1  LGS d           5.863   6.213   8.634  0.00  0.00    -0.307 N 
ATOM      9  C7  LGS d           6.454   5.373   7.711  0.00  0.00     0.241 C 
ATOM     10  N2  LGS d           6.104   4.104   7.478  0.00  0.00    -0.251 NA
ATOM     11  H2  LGS d           7.346   7.417  10.449  0.00  0.00     0.090 H 
ATOM     12  H3  LGS d           5.760   8.221   7.948  0.00  0.00     0.080 H 
ATOM     13  H4  LGS d           8.599   7.310   8.147  0.00  0.00     0.078 H 
ATOM     14  H5  LGS d           7.727   8.079   6.777  0.00  0.00     0.078 H 
ATOM     15  H6  LGS d           4.724   8.905   9.838  0.00  0.00     0.091 H 
ATOM     16  H8  LGS d           5.209   6.535  11.687  0.00  0.00     0.093 H 
ATOM     17  H10 LGS d           3.835   5.937   9.134  0.00  0.00     0.122 H 
ENDROOT
BRANCH  10  18
ATOM     18  C8  LGS d           6.533   3.232   6.376  0.00  0.00     0.019 C 
ATOM     19  H12 LGS d           6.865   2.268   6.790  0.00  0.00     0.067 H 
ATOM     20  H13 LGS d           7.368   3.710   5.843  0.00  0.00     0.067 H 
BRANCH  18  21
ATOM     21  C9  LGS d           5.391   2.987   5.396  0.00  0.00    -0.048 C 
ATOM     22  H14 LGS d           5.449   1.949   5.036  0.00  0.00     0.035 H 
ATOM     23  H15 LGS d           5.497   3.677   4.547  0.00  0.00     0.035 H 
BRANCH  21  24
ATOM     24  C10 LGS d           4.020   3.210   6.051  0.00  0.00    -0.064 C 
ATOM     25  H16 LGS d           4.065   4.129   6.654  0.00  0.00     0.033 H 
ATOM     26  H17 LGS d           3.799   2.353   6.705  0.00  0.00     0.033 H 
BRANCH  24  27
ATOM     27  C11 LGS d           2.876   3.352   5.019  0.00  0.00    -0.065 C 
ATOM     28  H18 LGS d           1.911   3.108   5.486  0.00  0.00     0.033 H 
ATOM     29  H19 LGS d           3.050   2.681   4.164  0.00  0.00     0.033 H 
BRANCH  27  30
ATOM     30  C12 LGS d           2.885   4.819   4.552  0.00  0.00    -0.065 C 
ATOM     31  H20 LGS d           1.872   5.085   4.216  0.00  0.00     0.033 H 
ATOM     32  H21 LGS d           3.588   4.915   3.711  0.00  0.00     0.033 H 
BRANCH  30  33
ATOM     33  C13 LGS d           3.310   5.804   5.662  0.00  0.00    -0.065 C 
ATOM     34  H22 LGS d           3.676   5.236   6.530  0.00  0.00     0.033 H 
ATOM     35  H23 LGS d           2.441   6.409   5.960  0.00  0.00     0.033 H 
BRANCH  33  36
ATOM     36  C14 LGS d           4.426   6.736   5.158  0.00  0.00    -0.069 C 
ATOM     37  H24 LGS d           5.314   6.615   5.796  0.00  0.00     0.032 H 
ATOM     38  H25 LGS d           4.078   7.778   5.209  0.00  0.00     0.032 H 
BRANCH  36  39
ATOM     39  C15 LGS d           4.800   6.403   3.711  0.00  0.00    -0.077 C 
ATOM     40  H26 LGS d           5.395   7.226   3.287  0.00  0.00     0.027 H 
ATOM     41  H27 LGS d           3.884   6.270   3.117  0.00  0.00     0.027 H 
ATOM     42  H28 LGS d           5.390   5.475   3.688  0.00  0.00     0.027 H 
ENDBRANCH  36  39
ENDBRANCH  33  36
ENDBRANCH  30  33
ENDBRANCH  27  30
ENDBRANCH  24  27
ENDBRANCH  21  24
ENDBRANCH  18  21
ENDBRANCH  10  18
BRANCH   7  43
ATOM     43  O1  LGS d           5.125   4.652  10.161  0.00  0.00    -0.374 OA
ATOM     44  H11 LGS d           4.788   4.572  11.046  0.00  0.00     0.212 HD
ENDBRANCH   7  43
BRANCH   1  45
ATOM     45  O4  LGS d           7.403   9.361   9.749  0.00  0.00    -0.391 OA
ATOM     46  H1  LGS d           8.114   9.395  10.378  0.00  0.00     0.210 HD
ENDBRANCH   1  45
BRANCH   6  47
ATOM     47  O2  LGS d           3.307   7.112  11.143  0.00  0.00    -0.389 OA
ATOM     48  H9  LGS d           2.943   6.261  11.359  0.00  0.00     0.210 HD
ENDBRANCH   6  47
BRANCH   5  49
ATOM     49  O3  LGS d           5.511   8.992  11.763  0.00  0.00    -0.390 OA
ATOM     50  H7  LGS d           6.410   8.911  12.060  0.00  0.00     0.210 HD
ENDBRANCH   5  49
TORSDOF 12
ENDMDL
MODEL 10
REMARK VINA RESULT:      -6.0      2.735      7.141
REMARK  12 active torsions:
REMARK  status: ('A' for Active; 'I' for Inactive)
REMARK    1  A    between atoms: O4_1  and  C4_2 
REMARK    2  A    between atoms: C3_6  and  O3_7 
REMARK    3  A    between atoms: C2_8  and  O2_9 
REMARK    4  A    between atoms: C1_10  and  O1_11 
REMARK    5  A    between atoms: N2_14  and  C8_15 
REMARK    6  A    between atoms: C8_15  and  C9_16 
REMARK    7  A    between atoms: C9_16  and  C10_17 
REMARK    8  A    between atoms: C10_17  and  C11_18 
REMARK    9  A    between atoms: C11_18  and  C12_19 
REMARK   10  A    between atoms: C12_19  and  C13_20 
REMARK   11  A    between atoms: C13_20  and  C14_21 
REMARK   12  A    between atoms: C14_21  and  C15_22 
ROOT
ATOM      1  C4  LGS d           4.446   6.992  11.231  0.00  0.00     0.084 C 
ATOM      2  C5  LGS d           4.007   7.176   9.773  0.00  0.00     0.066 C 
ATOM      3  C6  LGS d           5.099   7.509   8.757  0.00  0.00     0.050 C 
ATOM      4  O6  LGS d           4.810   6.656   7.620  0.00  0.00    -0.319 OA
ATOM      5  C3  LGS d           3.162   6.741  12.030  0.00  0.00     0.091 C 
ATOM      6  C2  LGS d           2.551   5.375  11.678  0.00  0.00     0.104 C 
ATOM      7  C1  LGS d           2.532   5.098  10.155  0.00  0.00     0.133 C 
ATOM      8  N1  LGS d           3.452   5.897   9.309  0.00  0.00    -0.307 N 
ATOM      9  C7  LGS d           3.933   5.674   8.034  0.00  0.00     0.241 C 
ATOM     10  N2  LGS d           3.573   4.670   7.230  0.00  0.00    -0.251 NA
ATOM     11  H2  LGS d           5.133   6.138  11.324  0.00  0.00     0.090 H 
ATOM     12  H3  LGS d           3.242   7.967   9.743  0.00  0.00     0.080 H 
ATOM     13  H4  LGS d           6.094   7.284   9.169  0.00  0.00     0.078 H 
ATOM     14  H5  LGS d           5.051   8.570   8.469  0.00  0.00     0.078 H 
ATOM     15  H6  LGS d           2.438   7.540  11.813  0.00  0.00     0.091 H 
ATOM     16  H8  LGS d           3.175   4.605  12.157  0.00  0.00     0.093 H 
ATOM     17  H10 LGS d           1.503   5.263   9.803  0.00  0.00     0.122 H 
ENDROOT
BRANCH  10  18
ATOM     18  C8  LGS d           3.872   4.497   5.802  0.00  0.00     0.019 C 
ATOM     19  H12 LGS d           3.357   3.598   5.434  0.00  0.00     0.067 H 
ATOM     20  H13 LGS d           4.958   4.375   5.675  0.00  0.00     0.067 H 
BRANCH  18  21
ATOM     21  C9  LGS d           3.408   5.704   4.995  0.00  0.00    -0.048 C 
ATOM     22  H14 LGS d           2.933   6.426   5.676  0.00  0.00     0.035 H 
ATOM     23  H15 LGS d           2.677   5.370   4.244  0.00  0.00     0.035 H 
BRANCH  21  24
ATOM     24  C10 LGS d           4.578   6.394   4.278  0.00  0.00    -0.064 C 
ATOM     25  H16 LGS d           5.048   7.104   4.975  0.00  0.00     0.033 H 
ATOM     26  H17 LGS d           4.184   6.940   3.408  0.00  0.00     0.033 H 
BRANCH  24  27
ATOM     27  C11 LGS d           5.655   5.397   3.788  0.00  0.00    -0.065 C 
ATOM     28  H18 LGS d           5.881   5.574   2.726  0.00  0.00     0.033 H 
ATOM     29  H19 LGS d           5.304   4.362   3.920  0.00  0.00     0.033 H 
BRANCH  27  30
ATOM     30  C12 LGS d           6.908   5.646   4.647  0.00  0.00    -0.065 C 
ATOM     31  H20 LGS d           6.641   6.329   5.466  0.00  0.00     0.033 H 
ATOM     32  H21 LGS d           7.678   6.114   4.015  0.00  0.00     0.033 H 
BRANCH  30  33
ATOM     33  C13 LGS d           7.491   4.353   5.256  0.00  0.00    -0.065 C 
ATOM     34  H22 LGS d           8.523   4.218   4.898  0.00  0.00     0.033 H 
ATOM     35  H23 LGS d           6.879   3.496   4.939  0.00  0.00     0.033 H 
BRANCH  33  36
ATOM     36  C14 LGS d           7.494   4.434   6.793  0.00  0.00    -0.069 C 
ATOM     37  H24 LGS d           8.030   3.563   7.199  0.00  0.00     0.032 H 
ATOM     38  H25 LGS d           6.455   4.427   7.156  0.00  0.00     0.032 H 
BRANCH  36  39
ATOM     39  C15 LGS d           8.184   5.715   7.269  0.00  0.00    -0.077 C 
ATOM     40  H26 LGS d           8.932   6.026   6.525  0.00  0.00     0.027 H 
ATOM     41  H27 LGS d           8.681   5.527   8.232  0.00  0.00     0.027 H 
ATOM     42  H28 LGS d           7.435   6.511   7.392  0.00  0.00     0.027 H 
ENDBRANCH  36  39
ENDBRANCH  33  36
ENDBRANCH  30  33
ENDBRANCH  27  30
ENDBRANCH  24  27
ENDBRANCH  21  24
ENDBRANCH  18  21
ENDBRANCH  10  18
BRANCH   7  43
ATOM     43  O1  LGS d           2.925   3.734   9.907  0.00  0.00    -0.374 OA
ATOM     44  H11 LGS d           3.270   3.355  10.707  0.00  0.00     0.212 HD
ENDBRANCH   7  43
BRANCH   1  45
ATOM     45  O4  LGS d           5.080   8.171  11.698  0.00  0.00    -0.391 OA
ATOM     46  H1  LGS d           5.247   8.091  12.630  0.00  0.00     0.210 HD
ENDBRANCH   1  45
BRANCH   6  47
ATOM     47  O2  LGS d           1.214   5.238  12.171  0.00  0.00    -0.389 OA
ATOM     48  H9  LGS d           0.755   4.579  11.661  0.00  0.00     0.210 HD
ENDBRANCH   6  47
BRANCH   5  49
ATOM     49  O3  LGS d           3.455   6.711  13.429  0.00  0.00    -0.390 OA
ATOM     50  H7  LGS d           3.801   7.554  13.697  0.00  0.00     0.210 HD
ENDBRANCH   5  49
TORSDOF 12
ENDMDL
