REMARK  17 active torsions:
REMARK  status: ('A' for Active; 'I' for Inactive)
REMARK    1  A    between atoms: C1_2  and  C2_4 
REMARK       I    between atoms: N2_13  and  C1_2 
REMARK    2  A    between atoms: C11_14  and  N2_13 
REMARK    3  A    between atoms: C12_15  and  C11_14 
REMARK    4  A    between atoms: C11_14  and  C13_17 
REMARK       I    between atoms: N4_24  and  C12_15 
REMARK    5  A    between atoms: C13_17  and  C14_18 
REMARK       I    between atoms: C14_18  and  N3_20 
REMARK    6  A    between atoms: C15_21  and  O4_22 
REMARK    7  A    between atoms: C16_23  and  C15_21 
REMARK    8  A    between atoms: C15_21  and  C24_33 
REMARK    9  A    between atoms: C16_23  and  N4_24 
REMARK   10  A    between atoms: C16_23  and  C17_25 
REMARK   11  A    between atoms: C17_25  and  C18_26 
REMARK   12  A    between atoms: C24_33  and  N5_32 
REMARK   13  A    between atoms: C25_34  and  C26_35 
REMARK       I    between atoms: C26_35  and  N6_45 
REMARK   14  A    between atoms: N6_45  and  C35_46 
REMARK   15  A    between atoms: C35_46  and  C36_47 
REMARK   16  A    between atoms: C35_46  and  C37_48 
REMARK   17  A    between atoms: C35_46  and  C38_49 
ROOT
ATOM      1  C15 ROC d          15.515  24.449  18.090  0.00  0.00     0.078 C 
ATOM      2  H13 ROC d          15.575  24.802  17.050  0.00  0.00     0.088 H 
ENDROOT
BRANCH   1   3
ATOM      3  O4  ROC d          15.185  25.565  18.907  0.00  0.00    -0.392 OA
ATOM      4  H14 ROC d          14.327  25.892  18.664  0.00  0.00     0.210 HD
ENDBRANCH   1   3
BRANCH   1   5
ATOM      5  C16 ROC d          16.898  23.902  18.463  0.00  0.00     0.042 C 
ATOM      6  H15 ROC d          17.060  22.955  17.927  0.00  0.00     0.077 H 
BRANCH   5   7
ATOM      7  N4  ROC d          17.910  24.889  18.056  0.00  0.00    -0.352 N 
ATOM      8  C12 ROC d          18.820  24.619  17.124  0.00  0.00     0.241 C 
ATOM      9  O2  ROC d          18.968  23.545  16.497  0.00  0.00    -0.271 OA
ATOM     10  H16 ROC d          17.914  25.789  18.492  0.00  0.00     0.163 HD
BRANCH   8  11
ATOM     11  C11 ROC d          19.802  25.744  16.809  0.00  0.00     0.097 C 
ATOM     12  H8  ROC d          19.341  26.706  17.077  0.00  0.00     0.088 H 
BRANCH  11  13
ATOM     13  N2  ROC d          20.956  25.553  17.631  0.00  0.00    -0.342 N 
ATOM     14  C1  ROC d          21.418  26.473  18.501  0.00  0.00     0.271 C 
ATOM     15  O1  ROC d          20.963  27.631  18.585  0.00  0.00    -0.266 OA
ATOM     16  H7  ROC d          21.449  24.686  17.556  0.00  0.00     0.163 HD
BRANCH  14  17
ATOM     17  C2  ROC d          22.526  25.948  19.324  0.00  0.00     0.125 C 
ATOM     18  N1  ROC d          23.132  24.784  18.989  0.00  0.00    -0.243 NA
ATOM     19  C10 ROC d          24.145  24.265  19.730  0.00  0.00     0.068 A 
ATOM     20  C5  ROC d          24.589  24.950  20.863  0.00  0.00    -0.007 A 
ATOM     21  C9R ROC d          24.793  23.078  19.366  0.00  0.00    -0.054 A 
ATOM     22  C4  ROC d          23.951  26.128  21.224  0.00  0.00    -0.068 C 
ATOM     23  C6  ROC d          25.590  24.382  21.624  0.00  0.00    -0.071 A 
ATOM     24  C3  ROC d          22.957  26.713  20.429  0.00  0.00    -0.049 C 
ATOM     25  H2  ROC d          24.231  26.612  22.153  0.00  0.00     0.085 H 
ATOM     26  H1  ROC d          22.545  27.691  20.649  0.00  0.00     0.087 H 
ATOM     27  C7  ROC d          26.248  23.229  21.252  0.00  0.00    -0.082 A 
ATOM     28  H3  ROC d          25.871  24.863  22.554  0.00  0.00     0.084 H 
ATOM     29  C8  ROC d          25.775  22.571  20.146  0.00  0.00    -0.081 A 
ATOM     30  H4  ROC d          27.101  22.859  21.809  0.00  0.00     0.083 H 
ATOM     31  H5  ROC d          26.204  21.610  19.887  0.00  0.00     0.083 H 
ATOM     32  H6  ROC d          24.507  22.564  18.456  0.00  0.00     0.087 H 
ENDBRANCH  14  17
ENDBRANCH  11  13
BRANCH  11  33
ATOM     33  C13 ROC d          20.111  25.777  15.333  0.00  0.00     0.036 C 
ATOM     34  H9  ROC d          19.184  25.917  14.757  0.00  0.00     0.051 H 
ATOM     35  H10 ROC d          20.594  24.837  15.028  0.00  0.00     0.051 H 
BRANCH  33  36
ATOM     36  C14 ROC d          21.021  26.907  15.104  0.00  0.00     0.217 C 
ATOM     37  O3  ROC d          22.241  26.903  14.889  0.00  0.00    -0.274 OA
ATOM     38  N3  ROC d          20.499  28.068  15.163  0.00  0.00    -0.370 N 
ATOM     39  H11 ROC d          21.065  28.879  15.016  0.00  0.00     0.159 HD
ATOM     40  H12 ROC d          19.523  28.168  15.356  0.00  0.00     0.159 HD
ENDBRANCH  33  36
ENDBRANCH  11  33
ENDBRANCH   8  11
ENDBRANCH   5   7
BRANCH   5  41
ATOM     41  C17 ROC d          17.075  23.661  19.959  0.00  0.00    -0.020 C 
ATOM     42  H17 ROC d          16.467  22.789  20.241  0.00  0.00     0.043 H 
ATOM     43  H18 ROC d          16.713  24.550  20.496  0.00  0.00     0.043 H 
BRANCH  41  44
ATOM     44  C18 ROC d          18.496  23.401  20.384  0.00  0.00    -0.056 A 
ATOM     45  C19 ROC d          19.084  22.173  20.161  0.00  0.00    -0.077 A 
ATOM     46  C21 ROC d          20.355  21.922  20.583  0.00  0.00    -0.082 A 
ATOM     47  H19 ROC d          18.528  21.399  19.644  0.00  0.00     0.084 H 
ATOM     48  C23 ROC d          21.074  22.909  21.200  0.00  0.00    -0.083 A 
ATOM     49  H21 ROC d          20.795  20.943  20.430  0.00  0.00     0.083 H 
ATOM     50  C22 ROC d          20.524  24.140  21.381  0.00  0.00    -0.082 A 
ATOM     51  H23 ROC d          22.082  22.710  21.545  0.00  0.00     0.083 H 
ATOM     52  C20 ROC d          19.232  24.380  20.991  0.00  0.00    -0.077 A 
ATOM     53  H22 ROC d          21.108  24.932  21.834  0.00  0.00     0.083 H 
ATOM     54  H20 ROC d          18.790  25.354  21.165  0.00  0.00     0.084 H 
ENDBRANCH  41  44
ENDBRANCH   5  41
ENDBRANCH   1   5
BRANCH   1  55
ATOM     55  C24 ROC d          14.425  23.409  18.143  0.00  0.00     0.110 C 
ATOM     56  H25 ROC d          13.454  23.914  18.248  0.00  0.00     0.080 H 
ATOM     57  H26 ROC d          14.595  22.757  19.012  0.00  0.00     0.080 H 
BRANCH  55  58
ATOM     58  N5  ROC d          14.406  22.603  16.951  0.00  0.00    -0.055 N 
ATOM     59  C25 ROC d          13.802  21.243  17.159  0.00  0.00     0.180 C 
ATOM     60  C27 ROC d          13.827  20.480  15.879  0.00  0.00    -0.026 C 
ATOM     61  H27 ROC d          12.761  21.363  17.492  0.00  0.00     0.100 H 
ATOM     62  C28 ROC d          13.145  21.172  14.736  0.00  0.00    -0.047 C 
ATOM     63  H28 ROC d          13.328  19.514  16.044  0.00  0.00     0.037 H 
ATOM     64  H29 ROC d          14.877  20.308  15.601  0.00  0.00     0.037 H 
ATOM     65  C29 ROC d          13.233  20.417  13.416  0.00  0.00    -0.061 C 
ATOM     66  C33 ROC d          13.773  22.569  14.627  0.00  0.00    -0.027 C 
ATOM     67  H30 ROC d          12.079  21.280  14.983  0.00  0.00     0.040 H 
ATOM     68  C30 ROC d          14.601  20.455  12.773  0.00  0.00    -0.065 C 
ATOM     69  H31 ROC d          12.510  20.860  12.716  0.00  0.00     0.033 H 
ATOM     70  H32 ROC d          12.967  19.366  13.601  0.00  0.00     0.033 H 
ATOM     71  C31 ROC d          15.075  21.870  12.594  0.00  0.00    -0.065 C 
ATOM     72  H33 ROC d          14.549  19.966  11.789  0.00  0.00     0.033 H 
ATOM     73  H34 ROC d          15.314  19.915  13.413  0.00  0.00     0.033 H 
ATOM     74  C32 ROC d          15.110  22.507  13.976  0.00  0.00    -0.060 C 
ATOM     75  H35 ROC d          14.381  22.421  11.942  0.00  0.00     0.033 H 
ATOM     76  H36 ROC d          16.081  21.878  12.149  0.00  0.00     0.033 H 
ATOM     77  H37 ROC d          15.499  23.531  13.879  0.00  0.00     0.033 H 
ATOM     78  H38 ROC d          15.783  21.918  14.616  0.00  0.00     0.033 H 
ATOM     79  C34 ROC d          13.711  23.307  15.902  0.00  0.00     0.088 C 
ATOM     80  H39 ROC d          13.136  23.137  13.933  0.00  0.00     0.043 H 
ATOM     81  H40 ROC d          14.174  24.295  15.766  0.00  0.00     0.076 H 
ATOM     82  H41 ROC d          12.657  23.433  16.192  0.00  0.00     0.076 H 
ATOM     83  H24 ROC d          15.361  22.468  16.660  0.00  0.00     0.281 HD
BRANCH  59  84
ATOM     84  C26 ROC d          14.582  20.449  18.220  0.00  0.00     0.249 C 
ATOM     85  O5  ROC d          15.802  20.448  18.253  0.00  0.00    -0.271 OA
ATOM     86  N6  ROC d          13.809  19.799  19.125  0.00  0.00    -0.351 N 
ATOM     87  H42 ROC d          12.821  19.946  19.083  0.00  0.00     0.163 HD
BRANCH  86  88
ATOM     88  C35 ROC d          14.316  18.905  20.150  0.00  0.00     0.022 C 
BRANCH  88  89
ATOM     89  C36 ROC d          13.153  18.399  20.975  0.00  0.00    -0.054 C 
ATOM     90  H43 ROC d          13.525  17.720  21.756  0.00  0.00     0.030 H 
ATOM     91  H44 ROC d          12.449  17.859  20.324  0.00  0.00     0.030 H 
ATOM     92  H45 ROC d          12.639  19.250  21.445  0.00  0.00     0.030 H 
ENDBRANCH  88  89
BRANCH  88  93
ATOM     93  C37 ROC d          15.224  19.682  21.069  0.00  0.00    -0.054 C 
ATOM     94  H46 ROC d          15.614  19.013  21.850  0.00  0.00     0.030 H 
ATOM     95  H47 ROC d          14.658  20.501  21.537  0.00  0.00     0.030 H 
ATOM     96  H48 ROC d          16.062  20.098  20.491  0.00  0.00     0.030 H 
ENDBRANCH  88  93
BRANCH  88  97
ATOM     97  C38 ROC d          15.008  17.752  19.480  0.00  0.00    -0.054 C 
ATOM     98  H49 ROC d          15.399  17.064  20.245  0.00  0.00     0.030 H 
ATOM     99  H50 ROC d          15.840  18.130  18.867  0.00  0.00     0.030 H 
ATOM    100  H51 ROC d          14.292  17.218  18.838  0.00  0.00     0.030 H 
ENDBRANCH  88  97
ENDBRANCH  86  88
ENDBRANCH  59  84
ENDBRANCH  55  58
ENDBRANCH   1  55
TORSDOF 17
