MODEL 1
REMARK VINA RESULT:      -8.8      0.000      0.000
REMARK  17 active torsions:
REMARK  status: ('A' for Active; 'I' for Inactive)
REMARK    1  A    between atoms: C1_2  and  C2_4 
REMARK       I    between atoms: N2_13  and  C1_2 
REMARK    2  A    between atoms: C11_14  and  N2_13 
REMARK    3  A    between atoms: C12_15  and  C11_14 
REMARK    4  A    between atoms: C11_14  and  C13_17 
REMARK       I    between atoms: N4_24  and  C12_15 
REMARK    5  A    between atoms: C13_17  and  C14_18 
REMARK       I    between atoms: C14_18  and  N3_20 
REMARK    6  A    between atoms: C15_21  and  O4_22 
REMARK    7  A    between atoms: C16_23  and  C15_21 
REMARK    8  A    between atoms: C15_21  and  C24_33 
REMARK    9  A    between atoms: C16_23  and  N4_24 
REMARK   10  A    between atoms: C16_23  and  C17_25 
REMARK   11  A    between atoms: C17_25  and  C18_26 
REMARK   12  A    between atoms: C24_33  and  N5_32 
REMARK   13  A    between atoms: C25_34  and  C26_35 
REMARK       I    between atoms: C26_35  and  N6_45 
REMARK   14  A    between atoms: N6_45  and  C35_46 
REMARK   15  A    between atoms: C35_46  and  C36_47 
REMARK   16  A    between atoms: C35_46  and  C37_48 
REMARK   17  A    between atoms: C35_46  and  C38_49 
ROOT
ATOM      1  C15 ROC d          17.439  22.446  17.894  0.00  0.00     0.078 C 
ATOM      2  H13 ROC d          16.748  21.643  17.599  0.00  0.00     0.088 H 
ENDROOT
BRANCH   1   3
ATOM      3  O4  ROC d          18.723  22.126  17.372  0.00  0.00    -0.392 OA
ATOM      4  H14 ROC d          18.704  21.250  17.003  0.00  0.00     0.210 HD
ENDBRANCH   1   3
BRANCH   1   5
ATOM      5  C16 ROC d          17.475  22.472  19.426  0.00  0.00     0.042 C 
ATOM      6  H15 ROC d          17.441  23.518  19.763  0.00  0.00     0.077 H 
BRANCH   5   7
ATOM      7  N4  ROC d          16.300  21.744  19.928  0.00  0.00    -0.352 N 
ATOM      8  C12 ROC d          15.950  20.555  19.444  0.00  0.00     0.241 C 
ATOM      9  O2  ROC d          16.514  19.913  18.528  0.00  0.00    -0.271 OA
ATOM     10  H16 ROC d          15.748  22.153  20.654  0.00  0.00     0.163 HD
BRANCH   8  11
ATOM     11  C11 ROC d          14.707  19.924  20.066  0.00  0.00     0.097 C 
ATOM     12  H8  ROC d          14.267  20.633  20.782  0.00  0.00     0.088 H 
BRANCH  11  13
ATOM     13  N2  ROC d          13.764  19.701  19.016  0.00  0.00    -0.342 N 
ATOM     14  C1  ROC d          13.129  20.689  18.355  0.00  0.00     0.271 C 
ATOM     15  O1  ROC d          13.203  21.892  18.677  0.00  0.00    -0.266 OA
ATOM     16  H7  ROC d          13.563  18.756  18.756  0.00  0.00     0.163 HD
BRANCH  14  17
ATOM     17  C2  ROC d          12.334  20.175  17.222  0.00  0.00     0.125 C 
ATOM     18  N1  ROC d          12.952  19.647  16.139  0.00  0.00    -0.243 NA
ATOM     19  C10 ROC d          12.253  19.177  15.073  0.00  0.00     0.068 A 
ATOM     20  C5  ROC d          10.858  19.223  15.092  0.00  0.00    -0.007 A 
ATOM     21  C9R ROC d          12.891  18.602  13.967  0.00  0.00    -0.054 A 
ATOM     22  C4  ROC d          10.223  19.789  16.188  0.00  0.00    -0.068 C 
ATOM     23  C6  ROC d          10.171  18.779  13.981  0.00  0.00    -0.071 A 
ATOM     24  C3  ROC d          10.927  20.209  17.324  0.00  0.00    -0.049 C 
ATOM     25  H2  ROC d           9.146  19.911  16.164  0.00  0.00     0.085 H 
ATOM     26  H1  ROC d          10.422  20.539  18.225  0.00  0.00     0.087 H 
ATOM     27  C7  ROC d          10.795  18.187  12.904  0.00  0.00    -0.082 A 
ATOM     28  H3  ROC d           9.094  18.902  13.954  0.00  0.00     0.084 H 
ATOM     29  C8  ROC d          12.166  18.175  12.908  0.00  0.00    -0.081 A 
ATOM     30  H4  ROC d          10.228  17.751  12.090  0.00  0.00     0.083 H 
ATOM     31  H5  ROC d          12.688  17.810  12.031  0.00  0.00     0.083 H 
ATOM     32  H6  ROC d          13.970  18.498  13.960  0.00  0.00     0.087 H 
ENDBRANCH  14  17
ENDBRANCH  11  13
BRANCH  11  33
ATOM     33  C13 ROC d          15.074  18.672  20.824  0.00  0.00     0.036 C 
ATOM     34  H9  ROC d          15.907  18.879  21.512  0.00  0.00     0.051 H 
ATOM     35  H10 ROC d          15.368  17.879  20.121  0.00  0.00     0.051 H 
BRANCH  33  36
ATOM     36  C14 ROC d          13.886  18.258  21.581  0.00  0.00     0.217 C 
ATOM     37  O3  ROC d          13.161  17.266  21.425  0.00  0.00    -0.274 OA
ATOM     38  N3  ROC d          13.518  19.039  22.518  0.00  0.00    -0.370 N 
ATOM     39  H11 ROC d          12.716  18.814  23.071  0.00  0.00     0.159 HD
ATOM     40  H12 ROC d          14.031  19.878  22.700  0.00  0.00     0.159 HD
ENDBRANCH  33  36
ENDBRANCH  11  33
ENDBRANCH   8  11
ENDBRANCH   5   7
BRANCH   5  41
ATOM     41  C17 ROC d          18.711  21.801  20.018  0.00  0.00    -0.020 C 
ATOM     42  H17 ROC d          19.114  21.102  19.271  0.00  0.00     0.043 H 
ATOM     43  H18 ROC d          18.404  21.243  20.915  0.00  0.00     0.043 H 
BRANCH  41  44
ATOM     44  C18 ROC d          19.809  22.754  20.411  0.00  0.00    -0.056 A 
ATOM     45  C19 ROC d          21.099  22.303  20.599  0.00  0.00    -0.077 A 
ATOM     46  C21 ROC d          22.085  23.156  20.996  0.00  0.00    -0.082 A 
ATOM     47  H19 ROC d          21.331  21.257  20.430  0.00  0.00     0.084 H 
ATOM     48  C23 ROC d          21.805  24.483  21.171  0.00  0.00    -0.083 A 
ATOM     49  H21 ROC d          23.088  22.783  21.171  0.00  0.00     0.083 H 
ATOM     50  C22 ROC d          20.549  24.951  20.940  0.00  0.00    -0.082 A 
ATOM     51  H23 ROC d          22.585  25.163  21.495  0.00  0.00     0.083 H 
ATOM     52  C20 ROC d          19.549  24.086  20.579  0.00  0.00    -0.077 A 
ATOM     53  H22 ROC d          20.338  26.009  21.041  0.00  0.00     0.083 H 
ATOM     54  H20 ROC d          18.544  24.460  20.425  0.00  0.00     0.084 H 
ENDBRANCH  41  44
ENDBRANCH   5  41
ENDBRANCH   1   5
BRANCH   1  55
ATOM     55  C24 ROC d          16.920  23.724  17.285  0.00  0.00     0.110 C 
ATOM     56  H25 ROC d          17.773  24.366  17.022  0.00  0.00     0.080 H 
ATOM     57  H26 ROC d          16.286  24.239  18.021  0.00  0.00     0.080 H 
BRANCH  55  58
ATOM     58  N5  ROC d          16.146  23.467  16.100  0.00  0.00    -0.055 N 
ATOM     59  C25 ROC d          16.953  23.528  14.834  0.00  0.00     0.180 C 
ATOM     60  C27 ROC d          16.074  23.254  13.662  0.00  0.00    -0.026 C 
ATOM     61  H27 ROC d          17.746  22.767  14.880  0.00  0.00     0.100 H 
ATOM     62  C28 ROC d          15.337  21.949  13.736  0.00  0.00    -0.047 C 
ATOM     63  H28 ROC d          16.698  23.247  12.757  0.00  0.00     0.037 H 
ATOM     64  H29 ROC d          15.333  24.065  13.591  0.00  0.00     0.037 H 
ATOM     65  C29 ROC d          14.390  21.708  12.568  0.00  0.00    -0.061 C 
ATOM     66  C33 ROC d          14.589  21.939  15.077  0.00  0.00    -0.027 C 
ATOM     67  H30 ROC d          16.075  21.135  13.735  0.00  0.00     0.040 H 
ATOM     68  C30 ROC d          13.134  22.551  12.607  0.00  0.00    -0.065 C 
ATOM     69  H31 ROC d          14.095  20.649  12.576  0.00  0.00     0.033 H 
ATOM     70  H32 ROC d          14.927  21.932  11.635  0.00  0.00     0.033 H 
ATOM     71  C31 ROC d          12.406  22.376  13.910  0.00  0.00    -0.065 C 
ATOM     72  H33 ROC d          12.473  22.248  11.782  0.00  0.00     0.033 H 
ATOM     73  H34 ROC d          13.408  23.609  12.487  0.00  0.00     0.033 H 
ATOM     74  C32 ROC d          13.367  22.787  15.017  0.00  0.00    -0.060 C 
ATOM     75  H35 ROC d          12.110  21.324  14.039  0.00  0.00     0.033 H 
ATOM     76  H36 ROC d          11.511  23.014  13.931  0.00  0.00     0.033 H 
ATOM     77  H37 ROC d          12.843  22.713  15.980  0.00  0.00     0.033 H 
ATOM     78  H38 ROC d          13.674  23.829  14.845  0.00  0.00     0.033 H 
ATOM     79  C34 ROC d          15.490  22.188  16.217  0.00  0.00     0.088 C 
ATOM     80  H39 ROC d          14.225  20.911  15.216  0.00  0.00     0.043 H 
ATOM     81  H40 ROC d          14.903  22.171  17.147  0.00  0.00     0.076 H 
ATOM     82  H41 ROC d          16.253  21.396  16.251  0.00  0.00     0.076 H 
ATOM     83  H24 ROC d          15.437  24.180  16.040  0.00  0.00     0.281 HD
BRANCH  59  84
ATOM     84  C26 ROC d          17.595  24.913  14.654  0.00  0.00     0.249 C 
ATOM     85  O5  ROC d          16.938  25.888  14.327  0.00  0.00    -0.271 OA
ATOM     86  N6  ROC d          18.922  24.965  14.929  0.00  0.00    -0.351 N 
ATOM     87  H42 ROC d          19.353  24.140  15.294  0.00  0.00     0.163 HD
BRANCH  86  88
ATOM     88  C35 ROC d          19.760  26.133  14.730  0.00  0.00     0.022 C 
BRANCH  88  89
ATOM     89  C36 ROC d          20.085  26.736  16.080  0.00  0.00    -0.054 C 
ATOM     90  H43 ROC d          19.161  27.107  16.548  0.00  0.00     0.030 H 
ATOM     91  H44 ROC d          20.790  27.570  15.948  0.00  0.00     0.030 H 
ATOM     92  H45 ROC d          20.538  25.969  16.724  0.00  0.00     0.030 H 
ENDBRANCH  88  89
BRANCH  88  93
ATOM     93  C37 ROC d          18.985  27.161  13.946  0.00  0.00    -0.054 C 
ATOM     94  H46 ROC d          19.664  27.964  13.623  0.00  0.00     0.030 H 
ATOM     95  H47 ROC d          18.192  27.585  14.580  0.00  0.00     0.030 H 
ATOM     96  H48 ROC d          18.534  26.685  13.063  0.00  0.00     0.030 H 
ENDBRANCH  88  93
BRANCH  88  97
ATOM     97  C38 ROC d          21.025  25.704  14.044  0.00  0.00    -0.054 C 
ATOM     98  H49 ROC d          20.785  25.310  13.045  0.00  0.00     0.030 H 
ATOM     99  H50 ROC d          21.517  24.920  14.639  0.00  0.00     0.030 H 
ATOM    100  H51 ROC d          21.699  26.567  13.945  0.00  0.00     0.030 H 
ENDBRANCH  88  97
ENDBRANCH  86  88
ENDBRANCH  59  84
ENDBRANCH  55  58
ENDBRANCH   1  55
TORSDOF 17
ENDMDL
MODEL 2
REMARK VINA RESULT:      -8.4      2.729      8.983
REMARK  17 active torsions:
REMARK  status: ('A' for Active; 'I' for Inactive)
REMARK    1  A    between atoms: C1_2  and  C2_4 
REMARK       I    between atoms: N2_13  and  C1_2 
REMARK    2  A    between atoms: C11_14  and  N2_13 
REMARK    3  A    between atoms: C12_15  and  C11_14 
REMARK    4  A    between atoms: C11_14  and  C13_17 
REMARK       I    between atoms: N4_24  and  C12_15 
REMARK    5  A    between atoms: C13_17  and  C14_18 
REMARK       I    between atoms: C14_18  and  N3_20 
REMARK    6  A    between atoms: C15_21  and  O4_22 
REMARK    7  A    between atoms: C16_23  and  C15_21 
REMARK    8  A    between atoms: C15_21  and  C24_33 
REMARK    9  A    between atoms: C16_23  and  N4_24 
REMARK   10  A    between atoms: C16_23  and  C17_25 
REMARK   11  A    between atoms: C17_25  and  C18_26 
REMARK   12  A    between atoms: C24_33  and  N5_32 
REMARK   13  A    between atoms: C25_34  and  C26_35 
REMARK       I    between atoms: C26_35  and  N6_45 
REMARK   14  A    between atoms: N6_45  and  C35_46 
REMARK   15  A    between atoms: C35_46  and  C36_47 
REMARK   16  A    between atoms: C35_46  and  C37_48 
REMARK   17  A    between atoms: C35_46  and  C38_49 
ROOT
ATOM      1  C15 ROC d          15.664  23.413  17.290  0.00  0.00     0.078 C 
ATOM      2  H13 ROC d          16.256  22.488  17.328  0.00  0.00     0.088 H 
ENDROOT
BRANCH   1   3
ATOM      3  O4  ROC d          15.463  23.743  15.921  0.00  0.00    -0.392 OA
ATOM      4  H14 ROC d          15.964  24.520  15.706  0.00  0.00     0.210 HD
ENDBRANCH   1   3
BRANCH   1   5
ATOM      5  C16 ROC d          16.483  24.505  17.989  0.00  0.00     0.042 C 
ATOM      6  H15 ROC d          15.928  24.853  18.872  0.00  0.00     0.077 H 
BRANCH   5   7
ATOM      7  N4  ROC d          17.770  23.923  18.401  0.00  0.00    -0.352 N 
ATOM      8  C12 ROC d          18.187  23.963  19.664  0.00  0.00     0.241 C 
ATOM      9  O2  ROC d          17.601  24.486  20.640  0.00  0.00    -0.271 OA
ATOM     10  H16 ROC d          18.348  23.484  17.713  0.00  0.00     0.163 HD
BRANCH   8  11
ATOM     11  C11 ROC d          19.542  23.315  19.937  0.00  0.00     0.097 C 
ATOM     12  H8  ROC d          19.593  22.356  19.403  0.00  0.00     0.088 H 
BRANCH  11  13
ATOM     13  N2  ROC d          20.548  24.181  19.407  0.00  0.00    -0.342 N 
ATOM     14  C1  ROC d          20.990  25.290  20.033  0.00  0.00     0.271 C 
ATOM     15  O1  ROC d          20.476  25.743  21.075  0.00  0.00    -0.266 OA
ATOM     16  H7  ROC d          20.949  23.949  18.520  0.00  0.00     0.163 HD
BRANCH  14  17
ATOM     17  C2  ROC d          22.137  25.901  19.332  0.00  0.00     0.125 C 
ATOM     18  N1  ROC d          22.067  26.156  18.003  0.00  0.00    -0.243 NA
ATOM     19  C10 ROC d          23.107  26.704  17.324  0.00  0.00     0.068 A 
ATOM     20  C5  ROC d          24.280  27.030  18.008  0.00  0.00    -0.007 A 
ATOM     21  C9R ROC d          23.023  26.997  15.957  0.00  0.00    -0.054 A 
ATOM     22  C4  ROC d          24.364  26.744  19.363  0.00  0.00    -0.068 C 
ATOM     23  C6  ROC d          25.338  27.546  17.288  0.00  0.00    -0.071 A 
ATOM     24  C3  ROC d          23.275  26.249  20.091  0.00  0.00    -0.049 C 
ATOM     25  H2  ROC d          25.305  26.909  19.875  0.00  0.00     0.085 H 
ATOM     26  H1  ROC d          23.304  26.139  21.169  0.00  0.00     0.087 H 
ATOM     27  C7  ROC d          25.248  27.862  15.949  0.00  0.00    -0.082 A 
ATOM     28  H3  ROC d          26.280  27.711  17.798  0.00  0.00     0.084 H 
ATOM     29  C8  ROC d          24.090  27.512  15.303  0.00  0.00    -0.081 A 
ATOM     30  H4  ROC d          26.056  28.364  15.430  0.00  0.00     0.083 H 
ATOM     31  H5  ROC d          24.027  27.652  14.231  0.00  0.00     0.083 H 
ATOM     32  H6  ROC d          22.100  26.812  15.420  0.00  0.00     0.087 H 
ENDBRANCH  14  17
ENDBRANCH  11  13
BRANCH  11  33
ATOM     33  C13 ROC d          19.704  23.032  21.410  0.00  0.00     0.036 C 
ATOM     34  H9  ROC d          18.796  22.549  21.803  0.00  0.00     0.051 H 
ATOM     35  H10 ROC d          19.887  23.968  21.956  0.00  0.00     0.051 H 
BRANCH  33  36
ATOM     36  C14 ROC d          20.855  22.131  21.555  0.00  0.00     0.217 C 
ATOM     37  O3  ROC d          22.047  22.330  21.283  0.00  0.00    -0.274 OA
ATOM     38  N3  ROC d          20.601  20.963  21.995  0.00  0.00    -0.370 N 
ATOM     39  H11 ROC d          21.342  20.302  22.117  0.00  0.00     0.159 HD
ATOM     40  H12 ROC d          19.661  20.706  22.219  0.00  0.00     0.159 HD
ENDBRANCH  33  36
ENDBRANCH  11  33
ENDBRANCH   8  11
ENDBRANCH   5   7
BRANCH   5  41
ATOM     41  C17 ROC d          16.793  25.702  17.095  0.00  0.00    -0.020 C 
ATOM     42  H17 ROC d          17.200  26.505  17.726  0.00  0.00     0.043 H 
ATOM     43  H18 ROC d          15.853  26.038  16.633  0.00  0.00     0.043 H 
BRANCH  41  44
ATOM     44  C18 ROC d          17.782  25.419  15.996  0.00  0.00    -0.056 A 
ATOM     45  C19 ROC d          19.091  25.099  16.292  0.00  0.00    -0.077 A 
ATOM     46  C21 ROC d          19.998  24.885  15.298  0.00  0.00    -0.082 A 
ATOM     47  H19 ROC d          19.402  25.018  17.327  0.00  0.00     0.084 H 
ATOM     48  C23 ROC d          19.601  24.947  13.990  0.00  0.00    -0.083 A 
ATOM     49  H21 ROC d          21.031  24.665  15.542  0.00  0.00     0.083 H 
ATOM     50  C22 ROC d          18.302  25.211  13.685  0.00  0.00    -0.082 A 
ATOM     51  H23 ROC d          20.322  24.786  13.196  0.00  0.00     0.083 H 
ATOM     52  C20 ROC d          17.399  25.465  14.684  0.00  0.00    -0.077 A 
ATOM     53  H22 ROC d          17.980  25.221  12.650  0.00  0.00     0.083 H 
ATOM     54  H20 ROC d          16.372  25.704  14.433  0.00  0.00     0.084 H 
ENDBRANCH  41  44
ENDBRANCH   5  41
ENDBRANCH   1   5
BRANCH   1  55
ATOM     55  C24 ROC d          14.348  23.126  17.967  0.00  0.00     0.110 C 
ATOM     56  H25 ROC d          13.535  23.262  17.240  0.00  0.00     0.080 H 
ATOM     57  H26 ROC d          14.215  23.829  18.802  0.00  0.00     0.080 H 
BRANCH  55  58
ATOM     58  N5  ROC d          14.300  21.781  18.476  0.00  0.00    -0.055 N 
ATOM     59  C25 ROC d          14.570  20.736  17.431  0.00  0.00     0.180 C 
ATOM     60  C27 ROC d          14.496  19.380  18.044  0.00  0.00    -0.026 C 
ATOM     61  H27 ROC d          15.577  20.896  17.020  0.00  0.00     0.100 H 
ATOM     62  C28 ROC d          15.415  19.181  19.214  0.00  0.00    -0.047 C 
ATOM     63  H28 ROC d          14.755  18.639  17.273  0.00  0.00     0.037 H 
ATOM     64  H29 ROC d          13.464  19.211  18.384  0.00  0.00     0.037 H 
ATOM     65  C29 ROC d          15.285  17.816  19.876  0.00  0.00    -0.061 C 
ATOM     66  C33 ROC d          15.120  20.317  20.204  0.00  0.00    -0.027 C 
ATOM     67  H30 ROC d          16.451  19.279  18.860  0.00  0.00     0.040 H 
ATOM     68  C30 ROC d          14.023  17.642  20.691  0.00  0.00    -0.065 C 
ATOM     69  H31 ROC d          16.148  17.672  20.542  0.00  0.00     0.033 H 
ATOM     70  H32 ROC d          15.297  17.048  19.089  0.00  0.00     0.033 H 
ATOM     71  C31 ROC d          13.888  18.732  21.717  0.00  0.00    -0.065 C 
ATOM     72  H33 ROC d          14.057  16.669  21.202  0.00  0.00     0.033 H 
ATOM     73  H34 ROC d          13.154  17.672  20.017  0.00  0.00     0.033 H 
ATOM     74  C32 ROC d          13.867  20.054  20.964  0.00  0.00    -0.060 C 
ATOM     75  H35 ROC d          14.742  18.706  22.410  0.00  0.00     0.033 H 
ATOM     76  H36 ROC d          12.953  18.604  22.283  0.00  0.00     0.033 H 
ATOM     77  H37 ROC d          13.721  20.868  21.689  0.00  0.00     0.033 H 
ATOM     78  H38 ROC d          13.026  20.040  20.255  0.00  0.00     0.033 H 
ATOM     79  C34 ROC d          15.224  21.646  19.574  0.00  0.00     0.088 C 
ATOM     80  H39 ROC d          15.926  20.287  20.952  0.00  0.00     0.043 H 
ATOM     81  H40 ROC d          15.003  22.416  20.326  0.00  0.00     0.076 H 
ATOM     82  H41 ROC d          16.250  21.784  19.198  0.00  0.00     0.076 H 
ATOM     83  H24 ROC d          13.369  21.622  18.828  0.00  0.00     0.281 HD
BRANCH  59  84
ATOM     84  C26 ROC d          13.542  20.817  16.290  0.00  0.00     0.249 C 
ATOM     85  O5  ROC d          12.343  20.720  16.499  0.00  0.00    -0.271 OA
ATOM     86  N6  ROC d          14.072  21.045  15.063  0.00  0.00    -0.351 N 
ATOM     87  H42 ROC d          15.055  21.219  15.006  0.00  0.00     0.163 HD
BRANCH  86  88
ATOM     88  C35 ROC d          13.311  21.056  13.827  0.00  0.00     0.022 C 
BRANCH  88  89
ATOM     89  C36 ROC d          14.233  21.440  12.690  0.00  0.00    -0.054 C 
ATOM     90  H43 ROC d          14.219  20.652  11.924  0.00  0.00     0.030 H 
ATOM     91  H44 ROC d          15.257  21.562  13.074  0.00  0.00     0.030 H 
ATOM     92  H45 ROC d          13.892  22.387  12.246  0.00  0.00     0.030 H 
ENDBRANCH  88  89
BRANCH  88  93
ATOM     93  C37 ROC d          12.239  22.112  13.923  0.00  0.00    -0.054 C 
ATOM     94  H46 ROC d          12.691  23.106  13.789  0.00  0.00     0.030 H 
ATOM     95  H47 ROC d          11.759  22.058  14.911  0.00  0.00     0.030 H 
ATOM     96  H48 ROC d          11.487  21.943  13.139  0.00  0.00     0.030 H 
ENDBRANCH  88  93
BRANCH  88  97
ATOM     97  C38 ROC d          12.758  19.679  13.594  0.00  0.00    -0.054 C 
ATOM     98  H49 ROC d          13.567  18.938  13.680  0.00  0.00     0.030 H 
ATOM     99  H50 ROC d          12.319  19.626  12.586  0.00  0.00     0.030 H 
ATOM    100  H51 ROC d          11.982  19.464  14.343  0.00  0.00     0.030 H 
ENDBRANCH  88  97
ENDBRANCH  86  88
ENDBRANCH  59  84
ENDBRANCH  55  58
ENDBRANCH   1  55
TORSDOF 17
ENDMDL
MODEL 3
REMARK VINA RESULT:      -7.8      2.796      8.298
REMARK  17 active torsions:
REMARK  status: ('A' for Active; 'I' for Inactive)
REMARK    1  A    between atoms: C1_2  and  C2_4 
REMARK       I    between atoms: N2_13  and  C1_2 
REMARK    2  A    between atoms: C11_14  and  N2_13 
REMARK    3  A    between atoms: C12_15  and  C11_14 
REMARK    4  A    between atoms: C11_14  and  C13_17 
REMARK       I    between atoms: N4_24  and  C12_15 
REMARK    5  A    between atoms: C13_17  and  C14_18 
REMARK       I    between atoms: C14_18  and  N3_20 
REMARK    6  A    between atoms: C15_21  and  O4_22 
REMARK    7  A    between atoms: C16_23  and  C15_21 
REMARK    8  A    between atoms: C15_21  and  C24_33 
REMARK    9  A    between atoms: C16_23  and  N4_24 
REMARK   10  A    between atoms: C16_23  and  C17_25 
REMARK   11  A    between atoms: C17_25  and  C18_26 
REMARK   12  A    between atoms: C24_33  and  N5_32 
REMARK   13  A    between atoms: C25_34  and  C26_35 
REMARK       I    between atoms: C26_35  and  N6_45 
REMARK   14  A    between atoms: N6_45  and  C35_46 
REMARK   15  A    between atoms: C35_46  and  C36_47 
REMARK   16  A    between atoms: C35_46  and  C37_48 
REMARK   17  A    between atoms: C35_46  and  C38_49 
ROOT
ATOM      1  C15 ROC d          17.942  22.479  17.689  0.00  0.00     0.078 C 
ATOM      2  H13 ROC d          17.925  21.774  16.845  0.00  0.00     0.088 H 
ENDROOT
BRANCH   1   3
ATOM      3  O4  ROC d          19.144  23.233  17.597  0.00  0.00    -0.392 OA
ATOM      4  H14 ROC d          19.781  22.752  17.082  0.00  0.00     0.210 HD
ENDBRANCH   1   3
BRANCH   1   5
ATOM      5  C16 ROC d          17.928  21.647  18.976  0.00  0.00     0.042 C 
ATOM      6  H15 ROC d          18.026  20.584  18.711  0.00  0.00     0.077 H 
BRANCH   5   7
ATOM      7  N4  ROC d          19.068  22.064  19.808  0.00  0.00    -0.352 N 
ATOM      8  C12 ROC d          19.198  23.313  20.246  0.00  0.00     0.241 C 
ATOM      9  O2  ROC d          18.435  24.279  20.021  0.00  0.00    -0.271 OA
ATOM     10  H16 ROC d          19.765  21.389  20.051  0.00  0.00     0.163 HD
BRANCH   8  11
ATOM     11  C11 ROC d          20.433  23.592  21.099  0.00  0.00     0.097 C 
ATOM     12  H8  ROC d          20.842  22.636  21.460  0.00  0.00     0.088 H 
BRANCH  11  13
ATOM     13  N2  ROC d          21.409  24.210  20.257  0.00  0.00    -0.342 N 
ATOM     14  C1  ROC d          22.706  23.845  20.219  0.00  0.00     0.271 C 
ATOM     15  O1  ROC d          23.212  23.019  21.004  0.00  0.00    -0.266 OA
ATOM     16  H7  ROC d          21.112  24.958  19.663  0.00  0.00     0.163 HD
BRANCH  14  17
ATOM     17  C2  ROC d          23.446  24.547  19.151  0.00  0.00     0.125 C 
ATOM     18  N1  ROC d          22.893  25.614  18.526  0.00  0.00    -0.243 NA
ATOM     19  C10 ROC d          23.539  26.275  17.531  0.00  0.00     0.068 A 
ATOM     20  C5  ROC d          24.814  25.858  17.144  0.00  0.00    -0.007 A 
ATOM     21  C9R ROC d          22.981  27.398  16.907  0.00  0.00    -0.054 A 
ATOM     22  C4  ROC d          25.371  24.749  17.763  0.00  0.00    -0.068 C 
ATOM     23  C6  ROC d          25.433  26.518  16.102  0.00  0.00    -0.071 A 
ATOM     24  C3  ROC d          24.749  24.104  18.840  0.00  0.00    -0.049 C 
ATOM     25  H2  ROC d          26.319  24.367  17.401  0.00  0.00     0.085 H 
ATOM     26  H1  ROC d          25.239  23.315  19.399  0.00  0.00     0.087 H 
ATOM     27  C7  ROC d          24.898  27.640  15.506  0.00  0.00    -0.082 A 
ATOM     28  H3  ROC d          26.381  26.138  15.737  0.00  0.00     0.084 H 
ATOM     29  C8  ROC d          23.637  28.011  15.895  0.00  0.00    -0.081 A 
ATOM     30  H4  ROC d          25.450  28.204  14.762  0.00  0.00     0.083 H 
ATOM     31  H5  ROC d          23.148  28.826  15.374  0.00  0.00     0.083 H 
ATOM     32  H6  ROC d          22.020  27.776  17.235  0.00  0.00     0.087 H 
ENDBRANCH  14  17
ENDBRANCH  11  13
BRANCH  11  33
ATOM     33  C13 ROC d          20.065  24.419  22.306  0.00  0.00     0.036 C 
ATOM     34  H9  ROC d          20.411  23.921  23.224  0.00  0.00     0.051 H 
ATOM     35  H10 ROC d          18.974  24.555  22.351  0.00  0.00     0.051 H 
BRANCH  33  36
ATOM     36  C14 ROC d          20.728  25.722  22.159  0.00  0.00     0.217 C 
ATOM     37  O3  ROC d          21.787  26.125  22.660  0.00  0.00    -0.274 OA
ATOM     38  N3  ROC d          20.122  26.582  21.440  0.00  0.00    -0.370 N 
ATOM     39  H11 ROC d          20.521  27.488  21.301  0.00  0.00     0.159 HD
ATOM     40  H12 ROC d          19.247  26.350  21.015  0.00  0.00     0.159 HD
ENDBRANCH  33  36
ENDBRANCH  11  33
ENDBRANCH   8  11
ENDBRANCH   5   7
BRANCH   5  41
ATOM     41  C17 ROC d          16.665  21.835  19.811  0.00  0.00    -0.020 C 
ATOM     42  H17 ROC d          16.018  22.560  19.295  0.00  0.00     0.043 H 
ATOM     43  H18 ROC d          16.957  22.237  20.792  0.00  0.00     0.043 H 
BRANCH  41  44
ATOM     44  C18 ROC d          15.874  20.574  20.035  0.00  0.00    -0.056 A 
ATOM     45  C19 ROC d          15.121  20.410  21.180  0.00  0.00    -0.077 A 
ATOM     46  C21 ROC d          14.439  19.252  21.405  0.00  0.00    -0.082 A 
ATOM     47  H19 ROC d          15.073  21.211  21.909  0.00  0.00     0.084 H 
ATOM     48  C23 ROC d          14.465  18.254  20.469  0.00  0.00    -0.083 A 
ATOM     49  H21 ROC d          13.877  19.122  22.323  0.00  0.00     0.083 H 
ATOM     50  C22 ROC d          15.161  18.424  19.313  0.00  0.00    -0.082 A 
ATOM     51  H23 ROC d          13.930  17.329  20.649  0.00  0.00     0.083 H 
ATOM     52  C20 ROC d          15.879  19.573  19.105  0.00  0.00    -0.077 A 
ATOM     53  H22 ROC d          15.149  17.649  18.556  0.00  0.00     0.083 H 
ATOM     54  H20 ROC d          16.456  19.689  18.195  0.00  0.00     0.084 H 
ENDBRANCH  41  44
ENDBRANCH   5  41
ENDBRANCH   1   5
BRANCH   1  55
ATOM     55  C24 ROC d          16.739  23.375  17.542  0.00  0.00     0.110 C 
ATOM     56  H25 ROC d          17.076  24.421  17.493  0.00  0.00     0.080 H 
ATOM     57  H26 ROC d          16.085  23.242  18.416  0.00  0.00     0.080 H 
BRANCH  55  58
ATOM     58  N5  ROC d          15.994  23.068  16.349  0.00  0.00    -0.055 N 
ATOM     59  C25 ROC d          16.814  23.157  15.093  0.00  0.00     0.180 C 
ATOM     60  C27 ROC d          15.965  22.827  13.914  0.00  0.00    -0.026 C 
ATOM     61  H27 ROC d          17.644  22.439  15.158  0.00  0.00     0.100 H 
ATOM     62  C28 ROC d          15.295  21.487  13.992  0.00  0.00    -0.047 C 
ATOM     63  H28 ROC d          16.601  22.843  13.017  0.00  0.00     0.037 H 
ATOM     64  H29 ROC d          15.185  23.598  13.824  0.00  0.00     0.037 H 
ATOM     65  C29 ROC d          14.377  21.186  12.815  0.00  0.00    -0.061 C 
ATOM     66  C33 ROC d          14.532  21.452  15.323  0.00  0.00    -0.027 C 
ATOM     67  H30 ROC d          16.075  20.712  14.008  0.00  0.00     0.040 H 
ATOM     68  C30 ROC d          13.080  21.963  12.829  0.00  0.00    -0.065 C 
ATOM     69  H31 ROC d          14.137  20.113  12.829  0.00  0.00     0.033 H 
ATOM     70  H32 ROC d          14.915  21.428  11.886  0.00  0.00     0.033 H 
ATOM     71  C31 ROC d          12.345  21.764  14.124  0.00  0.00    -0.065 C 
ATOM     72  H33 ROC d          12.446  21.618  11.999  0.00  0.00     0.033 H 
ATOM     73  H34 ROC d          13.300  23.033  12.701  0.00  0.00     0.033 H 
ATOM     74  C32 ROC d          13.269  22.235  15.239  0.00  0.00    -0.060 C 
ATOM     75  H35 ROC d          12.102  20.700  14.261  0.00  0.00     0.033 H 
ATOM     76  H36 ROC d          11.417  22.355  14.128  0.00  0.00     0.033 H 
ATOM     77  H37 ROC d          12.736  22.143  16.196  0.00  0.00     0.033 H 
ATOM     78  H38 ROC d          13.523  23.290  15.060  0.00  0.00     0.033 H 
ATOM     79  C34 ROC d          15.404  21.758  16.472  0.00  0.00     0.088 C 
ATOM     80  H39 ROC d          14.219  20.407  15.468  0.00  0.00     0.043 H 
ATOM     81  H40 ROC d          14.806  21.720  17.395  0.00  0.00     0.076 H 
ATOM     82  H41 ROC d          16.206  21.006  16.524  0.00  0.00     0.076 H 
ATOM     83  H24 ROC d          15.250  23.742  16.273  0.00  0.00     0.281 HD
BRANCH  59  84
ATOM     84  C26 ROC d          17.386  24.572  14.907  0.00  0.00     0.249 C 
ATOM     85  O5  ROC d          16.662  25.546  14.777  0.00  0.00    -0.271 OA
ATOM     86  N6  ROC d          18.740  24.647  14.945  0.00  0.00    -0.351 N 
ATOM     87  H42 ROC d          19.245  23.813  15.164  0.00  0.00     0.163 HD
BRANCH  86  88
ATOM     88  C35 ROC d          19.505  25.854  14.689  0.00  0.00     0.022 C 
BRANCH  88  89
ATOM     89  C36 ROC d          18.725  26.734  13.738  0.00  0.00    -0.054 C 
ATOM     90  H43 ROC d          18.472  27.681  14.237  0.00  0.00     0.030 H 
ATOM     91  H44 ROC d          17.799  26.220  13.437  0.00  0.00     0.030 H 
ATOM     92  H45 ROC d          19.334  26.942  12.846  0.00  0.00     0.030 H 
ENDBRANCH  88  89
BRANCH  88  93
ATOM     93  C37 ROC d          20.796  25.477  14.007  0.00  0.00    -0.054 C 
ATOM     94  H46 ROC d          21.397  26.381  13.836  0.00  0.00     0.030 H 
ATOM     95  H47 ROC d          20.574  24.996  13.043  0.00  0.00     0.030 H 
ATOM     96  H48 ROC d          21.357  24.779  14.645  0.00  0.00     0.030 H 
ENDBRANCH  88  93
BRANCH  88  97
ATOM     97  C38 ROC d          19.718  26.571  15.992  0.00  0.00    -0.054 C 
ATOM     98  H49 ROC d          19.171  26.049  16.792  0.00  0.00     0.030 H 
ATOM     99  H50 ROC d          19.346  27.603  15.907  0.00  0.00     0.030 H 
ATOM    100  H51 ROC d          20.792  26.586  16.230  0.00  0.00     0.030 H 
ENDBRANCH  88  97
ENDBRANCH  86  88
ENDBRANCH  59  84
ENDBRANCH  55  58
ENDBRANCH   1  55
TORSDOF 17
ENDMDL
MODEL 4
REMARK VINA RESULT:      -7.6      1.461      3.889
REMARK  17 active torsions:
REMARK  status: ('A' for Active; 'I' for Inactive)
REMARK    1  A    between atoms: C1_2  and  C2_4 
REMARK       I    between atoms: N2_13  and  C1_2 
REMARK    2  A    between atoms: C11_14  and  N2_13 
REMARK    3  A    between atoms: C12_15  and  C11_14 
REMARK    4  A    between atoms: C11_14  and  C13_17 
REMARK       I    between atoms: N4_24  and  C12_15 
REMARK    5  A    between atoms: C13_17  and  C14_18 
REMARK       I    between atoms: C14_18  and  N3_20 
REMARK    6  A    between atoms: C15_21  and  O4_22 
REMARK    7  A    between atoms: C16_23  and  C15_21 
REMARK    8  A    between atoms: C15_21  and  C24_33 
REMARK    9  A    between atoms: C16_23  and  N4_24 
REMARK   10  A    between atoms: C16_23  and  C17_25 
REMARK   11  A    between atoms: C17_25  and  C18_26 
REMARK   12  A    between atoms: C24_33  and  N5_32 
REMARK   13  A    between atoms: C25_34  and  C26_35 
REMARK       I    between atoms: C26_35  and  N6_45 
REMARK   14  A    between atoms: N6_45  and  C35_46 
REMARK   15  A    between atoms: C35_46  and  C36_47 
REMARK   16  A    between atoms: C35_46  and  C37_48 
REMARK   17  A    between atoms: C35_46  and  C38_49 
ROOT
ATOM      1  C15 ROC d          16.705  23.202  17.845  0.00  0.00     0.078 C 
ATOM      2  H13 ROC d          16.943  24.274  17.906  0.00  0.00     0.088 H 
ENDROOT
BRANCH   1   3
ATOM      3  O4  ROC d          15.310  23.081  17.600  0.00  0.00    -0.392 OA
ATOM      4  H14 ROC d          14.946  22.412  18.166  0.00  0.00     0.210 HD
ENDBRANCH   1   3
BRANCH   1   5
ATOM      5  C16 ROC d          17.067  22.580  19.199  0.00  0.00     0.042 C 
ATOM      6  H15 ROC d          16.822  23.299  19.995  0.00  0.00     0.077 H 
BRANCH   5   7
ATOM      7  N4  ROC d          16.275  21.352  19.370  0.00  0.00    -0.352 N 
ATOM      8  C12 ROC d          14.979  21.387  19.666  0.00  0.00     0.241 C 
ATOM      9  O2  ROC d          14.272  22.403  19.857  0.00  0.00    -0.271 OA
ATOM     10  H16 ROC d          16.724  20.465  19.259  0.00  0.00     0.163 HD
BRANCH   8  11
ATOM     11  C11 ROC d          14.293  20.032  19.810  0.00  0.00     0.097 C 
ATOM     12  H8  ROC d          13.617  20.063  20.677  0.00  0.00     0.088 H 
BRANCH  11  13
ATOM     13  N2  ROC d          13.508  19.817  18.635  0.00  0.00    -0.342 N 
ATOM     14  C1  ROC d          12.190  19.535  18.653  0.00  0.00     0.271 C 
ATOM     15  O1  ROC d          11.550  19.307  19.699  0.00  0.00    -0.266 OA
ATOM     16  H7  ROC d          13.964  19.881  17.746  0.00  0.00     0.163 HD
BRANCH  14  17
ATOM     17  C2  ROC d          11.609  19.519  17.296  0.00  0.00     0.125 C 
ATOM     18  N1  ROC d          11.700  18.406  16.529  0.00  0.00    -0.243 NA
ATOM     19  C10 ROC d          11.189  18.360  15.271  0.00  0.00     0.068 A 
ATOM     20  C5  ROC d          10.539  19.481  14.752  0.00  0.00    -0.007 A 
ATOM     21  C9R ROC d          11.254  17.199  14.490  0.00  0.00    -0.054 A 
ATOM     22  C4  ROC d          10.470  20.631  15.525  0.00  0.00    -0.068 C 
ATOM     23  C6  ROC d          10.066  19.425  13.457  0.00  0.00    -0.071 A 
ATOM     24  C3  ROC d          10.925  20.669  16.849  0.00  0.00    -0.049 C 
ATOM     25  H2  ROC d          10.049  21.531  15.089  0.00  0.00     0.085 H 
ATOM     26  H1  ROC d          10.762  21.529  17.489  0.00  0.00     0.087 H 
ATOM     27  C7  ROC d          10.104  18.275  12.697  0.00  0.00    -0.082 A 
ATOM     28  H3  ROC d           9.646  20.323  13.018  0.00  0.00     0.084 H 
ATOM     29  C8  ROC d          10.766  17.199  13.229  0.00  0.00    -0.081 A 
ATOM     30  H4  ROC d           9.632  18.224  11.722  0.00  0.00     0.083 H 
ATOM     31  H5  ROC d          10.902  16.315  12.616  0.00  0.00     0.083 H 
ATOM     32  H6  ROC d          11.698  16.298  14.898  0.00  0.00     0.087 H 
ENDBRANCH  14  17
ENDBRANCH  11  13
BRANCH  11  33
ATOM     33  C13 ROC d          15.312  18.949  20.061  0.00  0.00     0.036 C 
ATOM     34  H9  ROC d          15.837  19.137  21.010  0.00  0.00     0.051 H 
ATOM     35  H10 ROC d          16.042  18.920  19.238  0.00  0.00     0.051 H 
BRANCH  33  36
ATOM     36  C14 ROC d          14.585  17.674  20.133  0.00  0.00     0.217 C 
ATOM     37  O3  ROC d          14.220  16.925  19.217  0.00  0.00    -0.274 OA
ATOM     38  N3  ROC d          14.247  17.287  21.299  0.00  0.00    -0.370 N 
ATOM     39  H11 ROC d          13.749  16.427  21.415  0.00  0.00     0.159 HD
ATOM     40  H12 ROC d          14.479  17.842  22.097  0.00  0.00     0.159 HD
ENDBRANCH  33  36
ENDBRANCH  11  33
ENDBRANCH   8  11
ENDBRANCH   5   7
BRANCH   5  41
ATOM     41  C17 ROC d          18.538  22.191  19.318  0.00  0.00    -0.020 C 
ATOM     42  H17 ROC d          18.919  21.975  18.309  0.00  0.00     0.043 H 
ATOM     43  H18 ROC d          18.605  21.286  19.938  0.00  0.00     0.043 H 
BRANCH  41  44
ATOM     44  C18 ROC d          19.413  23.250  19.934  0.00  0.00    -0.056 A 
ATOM     45  C19 ROC d          20.752  23.331  19.613  0.00  0.00    -0.077 A 
ATOM     46  C21 ROC d          21.556  24.261  20.201  0.00  0.00    -0.082 A 
ATOM     47  H19 ROC d          21.170  22.646  18.883  0.00  0.00     0.084 H 
ATOM     48  C23 ROC d          21.024  25.152  21.093  0.00  0.00    -0.083 A 
ATOM     49  H21 ROC d          22.613  24.294  19.964  0.00  0.00     0.083 H 
ATOM     50  C22 ROC d          19.695  25.116  21.380  0.00  0.00    -0.082 A 
ATOM     51  H23 ROC d          21.662  25.887  21.569  0.00  0.00     0.083 H 
ATOM     52  C20 ROC d          18.895  24.156  20.817  0.00  0.00    -0.077 A 
ATOM     53  H22 ROC d          19.268  25.848  22.056  0.00  0.00     0.083 H 
ATOM     54  H20 ROC d          17.843  24.114  21.074  0.00  0.00     0.084 H 
ENDBRANCH  41  44
ENDBRANCH   5  41
ENDBRANCH   1   5
BRANCH   1  55
ATOM     55  C24 ROC d          17.499  22.636  16.695  0.00  0.00     0.110 C 
ATOM     56  H25 ROC d          16.842  21.997  16.087  0.00  0.00     0.080 H 
ATOM     57  H26 ROC d          18.328  22.035  17.094  0.00  0.00     0.080 H 
BRANCH  55  58
ATOM     58  N5  ROC d          18.037  23.679  15.862  0.00  0.00    -0.055 N 
ATOM     59  C25 ROC d          16.988  24.428  15.089  0.00  0.00     0.180 C 
ATOM     60  C27 ROC d          17.633  25.481  14.255  0.00  0.00    -0.026 C 
ATOM     61  H27 ROC d          16.292  24.899  15.798  0.00  0.00     0.100 H 
ATOM     62  C28 ROC d          18.483  26.445  15.030  0.00  0.00    -0.047 C 
ATOM     63  H28 ROC d          16.842  26.051  13.747  0.00  0.00     0.037 H 
ATOM     64  H29 ROC d          18.269  24.987  13.506  0.00  0.00     0.037 H 
ATOM     65  C29 ROC d          19.192  27.478  14.163  0.00  0.00    -0.061 C 
ATOM     66  C33 ROC d          19.484  25.605  15.835  0.00  0.00    -0.027 C 
ATOM     67  H30 ROC d          17.835  26.993  15.730  0.00  0.00     0.040 H 
ATOM     68  C30 ROC d          20.349  26.923  13.363  0.00  0.00    -0.065 C 
ATOM     69  H31 ROC d          19.575  28.274  14.817  0.00  0.00     0.033 H 
ATOM     70  H32 ROC d          18.459  27.902  13.461  0.00  0.00     0.033 H 
ATOM     71  C31 ROC d          21.338  26.227  14.256  0.00  0.00    -0.065 C 
ATOM     72  H33 ROC d          20.854  27.749  12.842  0.00  0.00     0.033 H 
ATOM     73  H34 ROC d          19.964  26.204  12.625  0.00  0.00     0.033 H 
ATOM     74  C32 ROC d          20.588  25.110  14.968  0.00  0.00    -0.060 C 
ATOM     75  H35 ROC d          21.746  26.936  14.992  0.00  0.00     0.033 H 
ATOM     76  H36 ROC d          22.159  25.808  13.656  0.00  0.00     0.033 H 
ATOM     77  H37 ROC d          21.301  24.554  15.594  0.00  0.00     0.033 H 
ATOM     78  H38 ROC d          20.162  24.436  14.210  0.00  0.00     0.033 H 
ATOM     79  C34 ROC d          18.814  24.589  16.667  0.00  0.00     0.088 C 
ATOM     80  H39 ROC d          19.959  26.295  16.548  0.00  0.00     0.043 H 
ATOM     81  H40 ROC d          19.576  24.018  17.217  0.00  0.00     0.076 H 
ATOM     82  H41 ROC d          18.147  25.094  17.382  0.00  0.00     0.076 H 
ATOM     83  H24 ROC d          18.654  23.246  15.193  0.00  0.00     0.281 HD
BRANCH  59  84
ATOM     84  C26 ROC d          16.203  23.482  14.165  0.00  0.00     0.249 C 
ATOM     85  O5  ROC d          16.467  23.378  12.978  0.00  0.00    -0.271 OA
ATOM     86  N6  ROC d          15.240  22.755  14.783  0.00  0.00    -0.351 N 
ATOM     87  H42 ROC d          15.169  22.828  15.778  0.00  0.00     0.163 HD
BRANCH  86  88
ATOM     88  C35 ROC d          14.305  21.878  14.102  0.00  0.00     0.022 C 
BRANCH  88  89
ATOM     89  C36 ROC d          14.831  21.588  12.713  0.00  0.00    -0.054 C 
ATOM     90  H43 ROC d          14.001  21.274  12.064  0.00  0.00     0.030 H 
ATOM     91  H44 ROC d          15.580  20.783  12.766  0.00  0.00     0.030 H 
ATOM     92  H45 ROC d          15.296  22.495  12.300  0.00  0.00     0.030 H 
ENDBRANCH  88  89
BRANCH  88  93
ATOM     93  C37 ROC d          12.987  22.595  13.950  0.00  0.00    -0.054 C 
ATOM     94  H46 ROC d          12.788  23.191  14.853  0.00  0.00     0.030 H 
ATOM     95  H47 ROC d          12.182  21.857  13.814  0.00  0.00     0.030 H 
ATOM     96  H48 ROC d          13.029  23.258  13.074  0.00  0.00     0.030 H 
ENDBRANCH  88  93
BRANCH  88  97
ATOM     97  C38 ROC d          14.190  20.600  14.883  0.00  0.00    -0.054 C 
ATOM     98  H49 ROC d          14.016  20.833  15.945  0.00  0.00     0.030 H 
ATOM     99  H50 ROC d          15.123  20.024  14.783  0.00  0.00     0.030 H 
ATOM    100  H51 ROC d          13.349  20.007  14.495  0.00  0.00     0.030 H 
ENDBRANCH  88  97
ENDBRANCH  86  88
ENDBRANCH  59  84
ENDBRANCH  55  58
ENDBRANCH   1  55
TORSDOF 17
ENDMDL
MODEL 5
REMARK VINA RESULT:      -7.5      1.829      9.123
REMARK  17 active torsions:
REMARK  status: ('A' for Active; 'I' for Inactive)
REMARK    1  A    between atoms: C1_2  and  C2_4 
REMARK       I    between atoms: N2_13  and  C1_2 
REMARK    2  A    between atoms: C11_14  and  N2_13 
REMARK    3  A    between atoms: C12_15  and  C11_14 
REMARK    4  A    between atoms: C11_14  and  C13_17 
REMARK       I    between atoms: N4_24  and  C12_15 
REMARK    5  A    between atoms: C13_17  and  C14_18 
REMARK       I    between atoms: C14_18  and  N3_20 
REMARK    6  A    between atoms: C15_21  and  O4_22 
REMARK    7  A    between atoms: C16_23  and  C15_21 
REMARK    8  A    between atoms: C15_21  and  C24_33 
REMARK    9  A    between atoms: C16_23  and  N4_24 
REMARK   10  A    between atoms: C16_23  and  C17_25 
REMARK   11  A    between atoms: C17_25  and  C18_26 
REMARK   12  A    between atoms: C24_33  and  N5_32 
REMARK   13  A    between atoms: C25_34  and  C26_35 
REMARK       I    between atoms: C26_35  and  N6_45 
REMARK   14  A    between atoms: N6_45  and  C35_46 
REMARK   15  A    between atoms: C35_46  and  C36_47 
REMARK   16  A    between atoms: C35_46  and  C37_48 
REMARK   17  A    between atoms: C35_46  and  C38_49 
ROOT
ATOM      1  C15 ROC d          14.637  21.997  18.002  0.00  0.00     0.078 C 
ATOM      2  H13 ROC d          14.587  21.260  18.816  0.00  0.00     0.088 H 
ENDROOT
BRANCH   1   3
ATOM      3  O4  ROC d          14.271  23.261  18.540  0.00  0.00    -0.392 OA
ATOM      4  H14 ROC d          13.510  23.158  19.099  0.00  0.00     0.210 HD
ENDBRANCH   1   3
BRANCH   1   5
ATOM      5  C16 ROC d          13.631  21.558  16.931  0.00  0.00     0.042 C 
ATOM      6  H15 ROC d          12.798  22.276  16.913  0.00  0.00     0.077 H 
BRANCH   5   7
ATOM      7  N4  ROC d          14.317  21.551  15.629  0.00  0.00    -0.352 N 
ATOM      8  C12 ROC d          13.966  22.375  14.646  0.00  0.00     0.241 C 
ATOM      9  O2  ROC d          13.042  23.222  14.659  0.00  0.00    -0.271 OA
ATOM     10  H16 ROC d          15.068  20.908  15.479  0.00  0.00     0.163 HD
BRANCH   8  11
ATOM     11  C11 ROC d          14.770  22.250  13.355  0.00  0.00     0.097 C 
ATOM     12  H8  ROC d          14.126  22.518  12.505  0.00  0.00     0.088 H 
BRANCH  11  13
ATOM     13  N2  ROC d          15.843  23.193  13.422  0.00  0.00    -0.342 N 
ATOM     14  C1  ROC d          16.048  24.024  14.463  0.00  0.00     0.271 C 
ATOM     15  O1  ROC d          15.251  24.146  15.414  0.00  0.00    -0.266 OA
ATOM     16  H7  ROC d          16.479  23.238  12.651  0.00  0.00     0.163 HD
BRANCH  14  17
ATOM     17  C2  ROC d          17.313  24.774  14.331  0.00  0.00     0.125 C 
ATOM     18  N1  ROC d          18.006  25.142  15.435  0.00  0.00    -0.243 NA
ATOM     19  C10 ROC d          19.166  25.843  15.352  0.00  0.00     0.068 A 
ATOM     20  C5  ROC d          19.672  26.189  14.097  0.00  0.00    -0.007 A 
ATOM     21  C9R ROC d          19.899  26.195  16.492  0.00  0.00    -0.054 A 
ATOM     22  C4  ROC d          18.949  25.838  12.966  0.00  0.00    -0.068 C 
ATOM     23  C6  ROC d          20.829  26.938  14.039  0.00  0.00    -0.071 A 
ATOM     24  C3  ROC d          17.792  25.051  13.033  0.00  0.00    -0.049 C 
ATOM     25  H2  ROC d          19.291  26.185  11.997  0.00  0.00     0.085 H 
ATOM     26  H1  ROC d          17.297  24.678  12.144  0.00  0.00     0.087 H 
ATOM     27  C7  ROC d          21.567  27.261  15.158  0.00  0.00    -0.082 A 
ATOM     28  H3  ROC d          21.172  27.288  13.072  0.00  0.00     0.084 H 
ATOM     29  C8  ROC d          21.033  26.924  16.375  0.00  0.00    -0.081 A 
ATOM     30  H4  ROC d          22.526  27.759  15.079  0.00  0.00     0.083 H 
ATOM     31  H5  ROC d          21.537  27.254  17.276  0.00  0.00     0.083 H 
ATOM     32  H6  ROC d          19.558  25.882  17.472  0.00  0.00     0.087 H 
ENDBRANCH  14  17
ENDBRANCH  11  13
BRANCH  11  33
ATOM     33  C13 ROC d          15.229  20.827  13.155  0.00  0.00     0.036 C 
ATOM     34  H9  ROC d          15.795  20.487  14.035  0.00  0.00     0.051 H 
ATOM     35  H10 ROC d          15.865  20.759  12.260  0.00  0.00     0.051 H 
BRANCH  33  36
ATOM     36  C14 ROC d          14.026  20.003  12.981  0.00  0.00     0.217 C 
ATOM     37  O3  ROC d          12.863  20.351  12.731  0.00  0.00    -0.274 OA
ATOM     38  N3  ROC d          14.179  18.748  13.137  0.00  0.00    -0.370 N 
ATOM     39  H11 ROC d          13.399  18.131  13.031  0.00  0.00     0.159 HD
ATOM     40  H12 ROC d          15.080  18.378  13.364  0.00  0.00     0.159 HD
ENDBRANCH  33  36
ENDBRANCH  11  33
ENDBRANCH   8  11
ENDBRANCH   5   7
BRANCH   5  41
ATOM     41  C17 ROC d          13.073  20.156  17.157  0.00  0.00    -0.020 C 
ATOM     42  H17 ROC d          12.654  20.113  18.173  0.00  0.00     0.043 H 
ATOM     43  H18 ROC d          13.901  19.438  17.071  0.00  0.00     0.043 H 
BRANCH  41  44
ATOM     44  C18 ROC d          11.996  19.751  16.186  0.00  0.00    -0.056 A 
ATOM     45  C19 ROC d          11.916  18.453  15.725  0.00  0.00    -0.077 A 
ATOM     46  C21 ROC d          10.968  18.095  14.814  0.00  0.00    -0.082 A 
ATOM     47  H19 ROC d          12.615  17.711  16.092  0.00  0.00     0.084 H 
ATOM     48  C23 ROC d          10.059  19.020  14.379  0.00  0.00    -0.083 A 
ATOM     49  H21 ROC d          10.936  17.080  14.435  0.00  0.00     0.083 H 
ATOM     50  C22 ROC d          10.095  20.290  14.864  0.00  0.00    -0.082 A 
ATOM     51  H23 ROC d           9.309  18.740  13.647  0.00  0.00     0.083 H 
ATOM     52  C20 ROC d          11.072  20.660  15.751  0.00  0.00    -0.077 A 
ATOM     53  H22 ROC d           9.350  21.011  14.549  0.00  0.00     0.083 H 
ATOM     54  H20 ROC d          11.113  21.681  16.111  0.00  0.00     0.084 H 
ENDBRANCH  41  44
ENDBRANCH   5  41
ENDBRANCH   1   5
BRANCH   1  55
ATOM     55  C24 ROC d          16.063  22.020  17.512  0.00  0.00     0.110 C 
ATOM     56  H25 ROC d          16.167  22.807  16.751  0.00  0.00     0.080 H 
ATOM     57  H26 ROC d          16.302  21.044  17.064  0.00  0.00     0.080 H 
BRANCH  55  58
ATOM     58  N5  ROC d          16.986  22.281  18.584  0.00  0.00    -0.055 N 
ATOM     59  C25 ROC d          17.271  21.075  19.434  0.00  0.00     0.180 C 
ATOM     60  C27 ROC d          18.229  21.437  20.516  0.00  0.00    -0.026 C 
ATOM     61  H27 ROC d          17.714  20.291  18.802  0.00  0.00     0.100 H 
ATOM     62  C28 ROC d          19.516  22.032  20.026  0.00  0.00    -0.047 C 
ATOM     63  H28 ROC d          18.466  20.526  21.086  0.00  0.00     0.037 H 
ATOM     64  H29 ROC d          17.741  22.167  21.178  0.00  0.00     0.037 H 
ATOM     65  C29 ROC d          20.462  22.461  21.141  0.00  0.00    -0.061 C 
ATOM     66  C33 ROC d          19.140  23.215  19.123  0.00  0.00    -0.027 C 
ATOM     67  H30 ROC d          20.040  21.277  19.423  0.00  0.00     0.040 H 
ATOM     68  C30 ROC d          20.028  23.712  21.871  0.00  0.00    -0.065 C 
ATOM     69  H31 ROC d          21.453  22.644  20.701  0.00  0.00     0.033 H 
ATOM     70  H32 ROC d          20.530  21.641  21.870  0.00  0.00     0.033 H 
ATOM     71  C31 ROC d          19.806  24.848  20.913  0.00  0.00    -0.065 C 
ATOM     72  H33 ROC d          20.809  23.996  22.592  0.00  0.00     0.033 H 
ATOM     73  H34 ROC d          19.091  23.507  22.410  0.00  0.00     0.033 H 
ATOM     74  C32 ROC d          18.735  24.399  19.929  0.00  0.00    -0.060 C 
ATOM     75  H35 ROC d          20.739  25.078  20.377  0.00  0.00     0.033 H 
ATOM     76  H36 ROC d          19.467  25.741  21.458  0.00  0.00     0.033 H 
ATOM     77  H37 ROC d          18.520  25.231  19.243  0.00  0.00     0.033 H 
ATOM     78  H38 ROC d          17.826  24.143  20.492  0.00  0.00     0.033 H 
ATOM     79  C34 ROC d          18.211  22.820  18.048  0.00  0.00     0.088 C 
ATOM     80  H39 ROC d          20.066  23.514  18.609  0.00  0.00     0.043 H 
ATOM     81  H40 ROC d          17.976  23.702  17.436  0.00  0.00     0.076 H 
ATOM     82  H41 ROC d          18.694  22.056  17.420  0.00  0.00     0.076 H 
ATOM     83  H24 ROC d          16.570  22.978  19.180  0.00  0.00     0.281 HD
BRANCH  59  84
ATOM     84  C26 ROC d          15.983  20.535  20.077  0.00  0.00     0.249 C 
ATOM     85  O5  ROC d          15.302  21.221  20.822  0.00  0.00    -0.271 OA
ATOM     86  N6  ROC d          15.654  19.271  19.715  0.00  0.00    -0.351 N 
ATOM     87  H42 ROC d          16.214  18.827  19.016  0.00  0.00     0.163 HD
BRANCH  86  88
ATOM     88  C35 ROC d          14.545  18.517  20.272  0.00  0.00     0.022 C 
BRANCH  88  89
ATOM     89  C36 ROC d          13.329  19.414  20.337  0.00  0.00    -0.054 C 
ATOM     90  H43 ROC d          13.194  19.921  19.371  0.00  0.00     0.030 H 
ATOM     91  H44 ROC d          13.469  20.165  21.129  0.00  0.00     0.030 H 
ATOM     92  H45 ROC d          12.438  18.809  20.559  0.00  0.00     0.030 H 
ENDBRANCH  88  89
BRANCH  88  93
ATOM     93  C37 ROC d          14.890  18.112  21.683  0.00  0.00    -0.054 C 
ATOM     94  H46 ROC d          15.671  17.337  21.661  0.00  0.00     0.030 H 
ATOM     95  H47 ROC d          13.993  17.715  22.180  0.00  0.00     0.030 H 
ATOM     96  H48 ROC d          15.259  18.988  22.236  0.00  0.00     0.030 H 
ENDBRANCH  88  93
BRANCH  88  97
ATOM     97  C38 ROC d          14.267  17.342  19.377  0.00  0.00    -0.054 C 
ATOM     98  H49 ROC d          14.757  17.499  18.404  0.00  0.00     0.030 H 
ATOM     99  H50 ROC d          13.182  17.243  19.229  0.00  0.00     0.030 H 
ATOM    100  H51 ROC d          14.660  16.426  19.843  0.00  0.00     0.030 H 
ENDBRANCH  88  97
ENDBRANCH  86  88
ENDBRANCH  59  84
ENDBRANCH  55  58
ENDBRANCH   1  55
TORSDOF 17
ENDMDL
MODEL 6
REMARK VINA RESULT:      -7.1      2.846      8.966
REMARK  17 active torsions:
REMARK  status: ('A' for Active; 'I' for Inactive)
REMARK    1  A    between atoms: C1_2  and  C2_4 
REMARK       I    between atoms: N2_13  and  C1_2 
REMARK    2  A    between atoms: C11_14  and  N2_13 
REMARK    3  A    between atoms: C12_15  and  C11_14 
REMARK    4  A    between atoms: C11_14  and  C13_17 
REMARK       I    between atoms: N4_24  and  C12_15 
REMARK    5  A    between atoms: C13_17  and  C14_18 
REMARK       I    between atoms: C14_18  and  N3_20 
REMARK    6  A    between atoms: C15_21  and  O4_22 
REMARK    7  A    between atoms: C16_23  and  C15_21 
REMARK    8  A    between atoms: C15_21  and  C24_33 
REMARK    9  A    between atoms: C16_23  and  N4_24 
REMARK   10  A    between atoms: C16_23  and  C17_25 
REMARK   11  A    between atoms: C17_25  and  C18_26 
REMARK   12  A    between atoms: C24_33  and  N5_32 
REMARK   13  A    between atoms: C25_34  and  C26_35 
REMARK       I    between atoms: C26_35  and  N6_45 
REMARK   14  A    between atoms: N6_45  and  C35_46 
REMARK   15  A    between atoms: C35_46  and  C36_47 
REMARK   16  A    between atoms: C35_46  and  C37_48 
REMARK   17  A    between atoms: C35_46  and  C38_49 
ROOT
ATOM      1  C15 ROC d          16.518  22.974  17.336  0.00  0.00     0.078 C 
ATOM      2  H13 ROC d          16.155  22.181  18.006  0.00  0.00     0.088 H 
ENDROOT
BRANCH   1   3
ATOM      3  O4  ROC d          17.520  22.408  16.501  0.00  0.00    -0.392 OA
ATOM      4  H14 ROC d          18.185  23.062  16.318  0.00  0.00     0.210 HD
ENDBRANCH   1   3
BRANCH   1   5
ATOM      5  C16 ROC d          17.115  24.075  18.220  0.00  0.00     0.042 C 
ATOM      6  H15 ROC d          16.455  24.229  19.086  0.00  0.00     0.077 H 
BRANCH   5   7
ATOM      7  N4  ROC d          18.444  23.635  18.672  0.00  0.00    -0.352 N 
ATOM      8  C12 ROC d          18.945  24.006  19.846  0.00  0.00     0.241 C 
ATOM      9  O2  ROC d          18.413  24.758  20.695  0.00  0.00    -0.271 OA
ATOM     10  H16 ROC d          18.986  23.039  18.079  0.00  0.00     0.163 HD
BRANCH   8  11
ATOM     11  C11 ROC d          20.335  23.467  20.176  0.00  0.00     0.097 C 
ATOM     12  H8  ROC d          20.502  22.540  19.609  0.00  0.00     0.088 H 
BRANCH  11  13
ATOM     13  N2  ROC d          21.289  24.439  19.741  0.00  0.00    -0.342 N 
ATOM     14  C1  ROC d          22.623  24.248  19.775  0.00  0.00     0.271 C 
ATOM     15  O1  ROC d          23.163  23.258  20.306  0.00  0.00    -0.266 OA
ATOM     16  H7  ROC d          20.947  25.312  19.392  0.00  0.00     0.163 HD
BRANCH  14  17
ATOM     17  C2  ROC d          23.356  25.352  19.123  0.00  0.00     0.125 C 
ATOM     18  N1  ROC d          23.215  25.573  17.794  0.00  0.00    -0.243 NA
ATOM     19  C10 ROC d          23.883  26.570  17.160  0.00  0.00     0.068 A 
ATOM     20  C5  ROC d          24.732  27.404  17.891  0.00  0.00    -0.007 A 
ATOM     21  C9R ROC d          23.713  26.819  15.792  0.00  0.00    -0.054 A 
ATOM     22  C4  ROC d          24.900  27.161  19.247  0.00  0.00    -0.068 C 
ATOM     23  C6  ROC d          25.433  28.382  17.218  0.00  0.00    -0.071 A 
ATOM     24  C3  ROC d          24.161  26.186  19.929  0.00  0.00    -0.049 C 
ATOM     25  H2  ROC d          25.628  27.747  19.798  0.00  0.00     0.085 H 
ATOM     26  H1  ROC d          24.204  26.078  21.006  0.00  0.00     0.087 H 
ATOM     27  C7  ROC d          25.246  28.647  15.878  0.00  0.00    -0.082 A 
ATOM     28  H3  ROC d          26.163  28.968  17.765  0.00  0.00     0.084 H 
ATOM     29  C8  ROC d          24.421  27.799  15.184  0.00  0.00    -0.081 A 
ATOM     30  H4  ROC d          25.729  29.488  15.394  0.00  0.00     0.083 H 
ATOM     31  H5  ROC d          24.334  27.918  14.111  0.00  0.00     0.083 H 
ATOM     32  H6  ROC d          23.012  26.225  15.218  0.00  0.00     0.087 H 
ENDBRANCH  14  17
ENDBRANCH  11  13
BRANCH  11  33
ATOM     33  C13 ROC d          20.437  23.134  21.643  0.00  0.00     0.036 C 
ATOM     34  H9  ROC d          19.541  23.488  22.174  0.00  0.00     0.051 H 
ATOM     35  H10 ROC d          21.331  23.609  22.076  0.00  0.00     0.051 H 
BRANCH  33  36
ATOM     36  C14 ROC d          20.542  21.673  21.752  0.00  0.00     0.217 C 
ATOM     37  O3  ROC d          20.337  20.941  22.729  0.00  0.00    -0.274 OA
ATOM     38  N3  ROC d          20.929  21.060  20.704  0.00  0.00    -0.370 N 
ATOM     39  H11 ROC d          21.021  20.064  20.713  0.00  0.00     0.159 HD
ATOM     40  H12 ROC d          21.141  21.574  19.873  0.00  0.00     0.159 HD
ENDBRANCH  33  36
ENDBRANCH  11  33
ENDBRANCH   8  11
ENDBRANCH   5   7
BRANCH   5  41
ATOM     41  C17 ROC d          17.300  25.405  17.495  0.00  0.00    -0.020 C 
ATOM     42  H17 ROC d          17.842  26.089  18.164  0.00  0.00     0.043 H 
ATOM     43  H18 ROC d          16.304  25.818  17.276  0.00  0.00     0.043 H 
BRANCH  41  44
ATOM     44  C18 ROC d          18.064  25.308  16.201  0.00  0.00    -0.056 A 
ATOM     45  C19 ROC d          19.435  25.154  16.203  0.00  0.00    -0.077 A 
ATOM     46  C21 ROC d          20.133  25.109  15.034  0.00  0.00    -0.082 A 
ATOM     47  H19 ROC d          19.963  25.068  17.146  0.00  0.00     0.084 H 
ATOM     48  C23 ROC d          19.467  25.177  13.841  0.00  0.00    -0.083 A 
ATOM     49  H21 ROC d          21.213  25.019  15.049  0.00  0.00     0.083 H 
ATOM     50  C22 ROC d          18.110  25.278  13.824  0.00  0.00    -0.082 A 
ATOM     51  H23 ROC d          20.019  25.151  12.909  0.00  0.00     0.083 H 
ATOM     52  C20 ROC d          17.412  25.362  15.001  0.00  0.00    -0.077 A 
ATOM     53  H22 ROC d          17.580  25.292  12.879  0.00  0.00     0.083 H 
ATOM     54  H20 ROC d          16.334  25.473  14.980  0.00  0.00     0.084 H 
ENDBRANCH  41  44
ENDBRANCH   5  41
ENDBRANCH   1   5
BRANCH   1  55
ATOM     55  C24 ROC d          15.340  23.435  16.516  0.00  0.00     0.110 C 
ATOM     56  H25 ROC d          15.701  24.083  15.704  0.00  0.00     0.080 H 
ATOM     57  H26 ROC d          14.656  24.005  17.162  0.00  0.00     0.080 H 
BRANCH  55  58
ATOM     58  N5  ROC d          14.626  22.324  15.945  0.00  0.00    -0.055 N 
ATOM     59  C25 ROC d          13.448  21.884  16.768  0.00  0.00     0.180 C 
ATOM     60  C27 ROC d          12.774  20.732  16.106  0.00  0.00    -0.026 C 
ATOM     61  H27 ROC d          12.741  22.722  16.853  0.00  0.00     0.100 H 
ATOM     62  C28 ROC d          12.339  21.000  14.696  0.00  0.00    -0.047 C 
ATOM     63  H28 ROC d          11.884  20.468  16.697  0.00  0.00     0.037 H 
ATOM     64  H29 ROC d          13.473  19.883  16.096  0.00  0.00     0.037 H 
ATOM     65  C29 ROC d          11.711  19.797  14.004  0.00  0.00    -0.061 C 
ATOM     66  C33 ROC d          13.578  21.500  13.939  0.00  0.00    -0.027 C 
ATOM     67  H30 ROC d          11.585  21.801  14.712  0.00  0.00     0.040 H 
ATOM     68  C30 ROC d          12.700  18.722  13.616  0.00  0.00    -0.065 C 
ATOM     69  H31 ROC d          11.207  20.148  13.092  0.00  0.00     0.033 H 
ATOM     70  H32 ROC d          10.969  19.355  14.685  0.00  0.00     0.033 H 
ATOM     71  C31 ROC d          13.809  19.286  12.772  0.00  0.00    -0.065 C 
ATOM     72  H33 ROC d          12.177  17.941  13.046  0.00  0.00     0.033 H 
ATOM     73  H34 ROC d          13.131  18.284  14.528  0.00  0.00     0.033 H 
ATOM     74  C32 ROC d          14.487  20.373  13.594  0.00  0.00    -0.060 C 
ATOM     75  H35 ROC d          13.397  19.715  11.846  0.00  0.00     0.033 H 
ATOM     76  H36 ROC d          14.532  18.496  12.520  0.00  0.00     0.033 H 
ATOM     77  H37 ROC d          15.333  20.772  13.016  0.00  0.00     0.033 H 
ATOM     78  H38 ROC d          14.858  19.926  14.527  0.00  0.00     0.033 H 
ATOM     79  C34 ROC d          14.208  22.655  14.606  0.00  0.00     0.088 C 
ATOM     80  H39 ROC d          13.212  21.887  12.976  0.00  0.00     0.043 H 
ATOM     81  H40 ROC d          15.086  22.968  14.023  0.00  0.00     0.076 H 
ATOM     82  H41 ROC d          13.483  23.482  14.650  0.00  0.00     0.076 H 
ATOM     83  H24 ROC d          15.265  21.547  15.893  0.00  0.00     0.281 HD
BRANCH  59  84
ATOM     84  C26 ROC d          13.889  21.453  18.177  0.00  0.00     0.249 C 
ATOM     85  O5  ROC d          13.872  22.226  19.120  0.00  0.00    -0.271 OA
ATOM     86  N6  ROC d          14.250  20.150  18.285  0.00  0.00    -0.351 N 
ATOM     87  H42 ROC d          14.129  19.566  17.482  0.00  0.00     0.163 HD
BRANCH  86  88
ATOM     88  C35 ROC d          14.799  19.544  19.484  0.00  0.00     0.022 C 
BRANCH  88  89
ATOM     89  C36 ROC d          15.269  18.144  19.152  0.00  0.00    -0.054 C 
ATOM     90  H43 ROC d          14.823  17.824  18.199  0.00  0.00     0.030 H 
ATOM     91  H44 ROC d          14.959  17.454  19.952  0.00  0.00     0.030 H 
ATOM     92  H45 ROC d          16.365  18.136  19.064  0.00  0.00     0.030 H 
ENDBRANCH  88  89
BRANCH  88  93
ATOM     93  C37 ROC d          13.706  19.427  20.515  0.00  0.00    -0.054 C 
ATOM     94  H46 ROC d          13.408  18.373  20.615  0.00  0.00     0.030 H 
ATOM     95  H47 ROC d          12.839  20.025  20.200  0.00  0.00     0.030 H 
ATOM     96  H48 ROC d          14.075  19.796  21.484  0.00  0.00     0.030 H 
ENDBRANCH  88  93
BRANCH  88  97
ATOM     97  C38 ROC d          15.960  20.375  19.952  0.00  0.00    -0.054 C 
ATOM     98  H49 ROC d          15.632  21.036  20.769  0.00  0.00     0.030 H 
ATOM     99  H50 ROC d          16.335  20.984  19.115  0.00  0.00     0.030 H 
ATOM    100  H51 ROC d          16.762  19.714  20.313  0.00  0.00     0.030 H 
ENDBRANCH  88  97
ENDBRANCH  86  88
ENDBRANCH  59  84
ENDBRANCH  55  58
ENDBRANCH   1  55
TORSDOF 17
ENDMDL
MODEL 7
REMARK VINA RESULT:      -6.2      2.183      3.636
REMARK  17 active torsions:
REMARK  status: ('A' for Active; 'I' for Inactive)
REMARK    1  A    between atoms: C1_2  and  C2_4 
REMARK       I    between atoms: N2_13  and  C1_2 
REMARK    2  A    between atoms: C11_14  and  N2_13 
REMARK    3  A    between atoms: C12_15  and  C11_14 
REMARK    4  A    between atoms: C11_14  and  C13_17 
REMARK       I    between atoms: N4_24  and  C12_15 
REMARK    5  A    between atoms: C13_17  and  C14_18 
REMARK       I    between atoms: C14_18  and  N3_20 
REMARK    6  A    between atoms: C15_21  and  O4_22 
REMARK    7  A    between atoms: C16_23  and  C15_21 
REMARK    8  A    between atoms: C15_21  and  C24_33 
REMARK    9  A    between atoms: C16_23  and  N4_24 
REMARK   10  A    between atoms: C16_23  and  C17_25 
REMARK   11  A    between atoms: C17_25  and  C18_26 
REMARK   12  A    between atoms: C24_33  and  N5_32 
REMARK   13  A    between atoms: C25_34  and  C26_35 
REMARK       I    between atoms: C26_35  and  N6_45 
REMARK   14  A    between atoms: N6_45  and  C35_46 
REMARK   15  A    between atoms: C35_46  and  C36_47 
REMARK   16  A    between atoms: C35_46  and  C37_48 
REMARK   17  A    between atoms: C35_46  and  C38_49 
ROOT
ATOM      1  C15 ROC d          19.191  23.965  18.713  0.00  0.00     0.078 C 
ATOM      2  H13 ROC d          18.343  23.750  18.047  0.00  0.00     0.088 H 
ENDROOT
BRANCH   1   3
ATOM      3  O4  ROC d          20.024  22.813  18.738  0.00  0.00    -0.392 OA
ATOM      4  H14 ROC d          20.728  22.918  18.110  0.00  0.00     0.210 HD
ENDBRANCH   1   3
BRANCH   1   5
ATOM      5  C16 ROC d          18.614  24.241  20.106  0.00  0.00     0.042 C 
ATOM      6  H15 ROC d          18.492  25.327  20.231  0.00  0.00     0.077 H 
BRANCH   5   7
ATOM      7  N4  ROC d          17.306  23.574  20.204  0.00  0.00    -0.352 N 
ATOM      8  C12 ROC d          17.164  22.269  19.986  0.00  0.00     0.241 C 
ATOM      9  O2  ROC d          18.057  21.453  19.663  0.00  0.00    -0.271 OA
ATOM     10  H16 ROC d          16.500  24.117  20.442  0.00  0.00     0.163 HD
BRANCH   8  11
ATOM     11  C11 ROC d          15.746  21.723  20.127  0.00  0.00     0.097 C 
ATOM     12  H8  ROC d          15.104  22.504  20.560  0.00  0.00     0.088 H 
BRANCH  11  13
ATOM     13  N2  ROC d          15.267  21.423  18.813  0.00  0.00    -0.342 N 
ATOM     14  C1  ROC d          14.705  22.334  17.994  0.00  0.00     0.271 C 
ATOM     15  O1  ROC d          14.431  23.499  18.344  0.00  0.00    -0.266 OA
ATOM     16  H7  ROC d          15.353  20.483  18.484  0.00  0.00     0.163 HD
BRANCH  14  17
ATOM     17  C2  ROC d          14.448  21.783  16.648  0.00  0.00     0.125 C 
ATOM     18  N1  ROC d          13.432  20.907  16.453  0.00  0.00    -0.243 NA
ATOM     19  C10 ROC d          13.175  20.370  15.233  0.00  0.00     0.068 A 
ATOM     20  C5  ROC d          13.965  20.734  14.141  0.00  0.00    -0.007 A 
ATOM     21  C9R ROC d          12.106  19.490  15.025  0.00  0.00    -0.054 A 
ATOM     22  C4  ROC d          15.023  21.609  14.344  0.00  0.00    -0.068 C 
ATOM     23  C6  ROC d          13.712  20.143  12.920  0.00  0.00    -0.071 A 
ATOM     24  C3  ROC d          15.254  22.228  15.579  0.00  0.00    -0.049 C 
ATOM     25  H2  ROC d          15.694  21.820  13.518  0.00  0.00     0.085 H 
ATOM     26  H1  ROC d          16.004  22.999  15.705  0.00  0.00     0.087 H 
ATOM     27  C7  ROC d          12.643  19.299  12.707  0.00  0.00    -0.082 A 
ATOM     28  H3  ROC d          14.382  20.351  12.094  0.00  0.00     0.084 H 
ATOM     29  C8  ROC d          11.899  18.946  13.803  0.00  0.00    -0.081 A 
ATOM     30  H4  ROC d          12.401  18.930  11.717  0.00  0.00     0.083 H 
ATOM     31  H5  ROC d          11.116  18.206  13.687  0.00  0.00     0.083 H 
ATOM     32  H6  ROC d          11.441  19.244  15.845  0.00  0.00     0.087 H 
ENDBRANCH  14  17
ENDBRANCH  11  13
BRANCH  11  33
ATOM     33  C13 ROC d          15.726  20.539  21.061  0.00  0.00     0.036 C 
ATOM     34  H9  ROC d          15.348  20.844  22.048  0.00  0.00     0.051 H 
ATOM     35  H10 ROC d          16.741  20.127  21.169  0.00  0.00     0.051 H 
BRANCH  33  36
ATOM     36  C14 ROC d          14.835  19.533  20.470  0.00  0.00     0.217 C 
ATOM     37  O3  ROC d          13.658  19.644  20.101  0.00  0.00    -0.274 OA
ATOM     38  N3  ROC d          15.320  18.362  20.339  0.00  0.00    -0.370 N 
ATOM     39  H11 ROC d          14.765  17.631  19.943  0.00  0.00     0.159 HD
ATOM     40  H12 ROC d          16.258  18.173  20.633  0.00  0.00     0.159 HD
ENDBRANCH  33  36
ENDBRANCH  11  33
ENDBRANCH   8  11
ENDBRANCH   5   7
BRANCH   5  41
ATOM     41  C17 ROC d          19.481  23.706  21.242  0.00  0.00    -0.020 C 
ATOM     42  H17 ROC d          19.624  22.627  21.087  0.00  0.00     0.043 H 
ATOM     43  H18 ROC d          18.949  23.874  22.190  0.00  0.00     0.043 H 
BRANCH  41  44
ATOM     44  C18 ROC d          20.839  24.350  21.344  0.00  0.00    -0.056 A 
ATOM     45  C19 ROC d          20.974  25.634  21.832  0.00  0.00    -0.077 A 
ATOM     46  C21 ROC d          22.196  26.234  21.886  0.00  0.00    -0.082 A 
ATOM     47  H19 ROC d          20.097  26.171  22.177  0.00  0.00     0.084 H 
ATOM     48  C23 ROC d          23.310  25.545  21.489  0.00  0.00    -0.083 A 
ATOM     49  H21 ROC d          22.285  27.254  22.242  0.00  0.00     0.083 H 
ATOM     50  C22 ROC d          23.197  24.261  21.053  0.00  0.00    -0.082 A 
ATOM     51  H23 ROC d          24.282  26.022  21.522  0.00  0.00     0.083 H 
ATOM     52  C20 ROC d          21.962  23.672  20.964  0.00  0.00    -0.077 A 
ATOM     53  H22 ROC d          24.084  23.704  20.777  0.00  0.00     0.083 H 
ATOM     54  H20 ROC d          21.877  22.659  20.588  0.00  0.00     0.084 H 
ENDBRANCH  41  44
ENDBRANCH   5  41
ENDBRANCH   1   5
BRANCH   1  55
ATOM     55  C24 ROC d          19.928  25.143  18.126  0.00  0.00     0.110 C 
ATOM     56  H25 ROC d          21.006  24.929  18.132  0.00  0.00     0.080 H 
ATOM     57  H26 ROC d          19.727  26.032  18.741  0.00  0.00     0.080 H 
BRANCH  55  58
ATOM     58  N5  ROC d          19.511  25.406  16.774  0.00  0.00    -0.055 N 
ATOM     59  C25 ROC d          20.655  25.510  15.806  0.00  0.00     0.180 C 
ATOM     60  C27 ROC d          20.134  25.786  14.438  0.00  0.00    -0.026 C 
ATOM     61  H27 ROC d          21.206  24.558  15.802  0.00  0.00     0.100 H 
ATOM     62  C28 ROC d          19.138  24.778  13.944  0.00  0.00    -0.047 C 
ATOM     63  H28 ROC d          20.984  25.799  13.741  0.00  0.00     0.037 H 
ATOM     64  H29 ROC d          19.650  26.773  14.446  0.00  0.00     0.037 H 
ATOM     65  C29 ROC d          18.559  25.103  12.573  0.00  0.00    -0.061 C 
ATOM     66  C33 ROC d          18.037  24.685  15.010  0.00  0.00    -0.027 C 
ATOM     67  H30 ROC d          19.641  23.803  13.867  0.00  0.00     0.040 H 
ATOM     68  C30 ROC d          17.572  26.248  12.574  0.00  0.00    -0.065 C 
ATOM     69  H31 ROC d          18.048  24.207  12.193  0.00  0.00     0.033 H 
ATOM     70  H32 ROC d          19.390  25.363  11.900  0.00  0.00     0.033 H 
ATOM     71  C31 ROC d          16.464  26.005  13.561  0.00  0.00    -0.065 C 
ATOM     72  H33 ROC d          17.141  26.352  11.568  0.00  0.00     0.033 H 
ATOM     73  H34 ROC d          18.098  27.175  12.845  0.00  0.00     0.033 H 
ATOM     74  C32 ROC d          17.112  25.849  14.929  0.00  0.00    -0.060 C 
ATOM     75  H35 ROC d          15.916  25.089  13.295  0.00  0.00     0.033 H 
ATOM     76  H36 ROC d          15.770  26.859  13.567  0.00  0.00     0.033 H 
ATOM     77  H37 ROC d          16.318  25.716  15.678  0.00  0.00     0.033 H 
ATOM     78  H38 ROC d          17.680  26.763  15.155  0.00  0.00     0.033 H 
ATOM     79  C34 ROC d          18.583  24.388  16.348  0.00  0.00     0.088 C 
ATOM     80  H39 ROC d          17.428  23.808  14.745  0.00  0.00     0.043 H 
ATOM     81  H40 ROC d          17.754  24.335  17.068  0.00  0.00     0.076 H 
ATOM     82  H41 ROC d          19.103  23.419  16.315  0.00  0.00     0.076 H 
ATOM     83  H24 ROC d          19.031  26.291  16.771  0.00  0.00     0.281 HD
BRANCH  59  84
ATOM     84  C26 ROC d          21.614  26.645  16.205  0.00  0.00     0.249 C 
ATOM     85  O5  ROC d          21.240  27.804  16.280  0.00  0.00    -0.271 OA
ATOM     86  N6  ROC d          22.875  26.245  16.503  0.00  0.00    -0.351 N 
ATOM     87  H42 ROC d          23.059  25.263  16.518  0.00  0.00     0.163 HD
BRANCH  86  88
ATOM     88  C35 ROC d          23.975  27.144  16.801  0.00  0.00     0.022 C 
BRANCH  88  89
ATOM     89  C36 ROC d          23.604  28.538  16.344  0.00  0.00    -0.054 C 
ATOM     90  H43 ROC d          23.279  28.505  15.293  0.00  0.00     0.030 H 
ATOM     91  H44 ROC d          24.479  29.199  16.437  0.00  0.00     0.030 H 
ATOM     92  H45 ROC d          22.785  28.923  16.968  0.00  0.00     0.030 H 
ENDBRANCH  88  89
BRANCH  88  93
ATOM     93  C37 ROC d          25.185  26.711  16.013  0.00  0.00    -0.054 C 
ATOM     94  H46 ROC d          25.268  25.615  16.042  0.00  0.00     0.030 H 
ATOM     95  H47 ROC d          26.088  27.159  16.454  0.00  0.00     0.030 H 
ATOM     96  H48 ROC d          25.082  27.043  14.970  0.00  0.00     0.030 H 
ENDBRANCH  88  93
BRANCH  88  97
ATOM     97  C38 ROC d          24.209  27.138  18.285  0.00  0.00    -0.054 C 
ATOM     98  H49 ROC d          25.255  27.409  18.493  0.00  0.00     0.030 H 
ATOM     99  H50 ROC d          24.005  26.133  18.684  0.00  0.00     0.030 H 
ATOM    100  H51 ROC d          23.538  27.866  18.765  0.00  0.00     0.030 H 
ENDBRANCH  88  97
ENDBRANCH  86  88
ENDBRANCH  59  84
ENDBRANCH  55  58
ENDBRANCH   1  55
TORSDOF 17
ENDMDL
