REMARK  5 active torsions:
REMARK  status: ('A' for Active; 'I' for Inactive)
REMARK    1  A    between atoms: CAW_6  and  C2_7 
REMARK    2  A    between atoms: CAU_12  and  NAQ_13 
REMARK       I    between atoms: NAQ_13  and  CAT_14 
REMARK    3  A    between atoms: CAT_14  and  CAC_16 
REMARK    4  A    between atoms: C6_21  and  NAR_22 
REMARK    5  A    between atoms: NAR_22  and  CAV_23 
ROOT
ATOM      1  C2  G97 d          23.153  -0.993 -19.306  0.00  0.00     0.162 A 
ATOM      2  N1  G97 d          23.002   0.198 -19.931  0.00  0.00    -0.210 NA
ATOM      3  N3  G97 d          22.797  -1.146 -18.015  0.00  0.00    -0.228 NA
ATOM      4  C4  G97 d          22.271  -0.125 -17.325  0.00  0.00     0.075 A 
ATOM      5  CAM G97 d          21.900  -0.324 -15.995  0.00  0.00    -0.028 A 
ATOM      6  CAU G97 d          21.338   0.714 -15.255  0.00  0.00     0.037 A 
ATOM      7  CAK G97 d          21.158   1.967 -15.869  0.00  0.00    -0.056 A 
ATOM      8  CAL G97 d          21.535   2.166 -17.205  0.00  0.00    -0.065 A 
ATOM      9  C5  G97 d          22.095   1.117 -17.945  0.00  0.00     0.039 A 
ATOM     10  C6  G97 d          22.478   1.263 -19.289  0.00  0.00     0.144 A 
ATOM     11  H6  G97 d          22.050  -1.294 -15.534  0.00  0.00     0.090 H 
ATOM     12  H11 G97 d          20.724   2.785 -15.305  0.00  0.00     0.086 H 
ATOM     13  H12 G97 d          21.392   3.136 -17.667  0.00  0.00     0.085 H 
ENDROOT
BRANCH   1  14
ATOM     14  CAW G97 d          23.715  -2.091 -19.950  0.00  0.00     0.012 A 
ATOM     15  CAH G97 d          24.752  -1.909 -20.876  0.00  0.00    -0.069 A 
ATOM     16  CAE G97 d          25.351  -2.998 -21.508  0.00  0.00    -0.082 A 
ATOM     17  H1  G97 d          25.093  -0.906 -21.104  0.00  0.00     0.085 H 
ATOM     18  CAD G97 d          24.897  -4.275 -21.201  0.00  0.00    -0.083 A 
ATOM     19  H2  G97 d          26.153  -2.852 -22.223  0.00  0.00     0.083 H 
ATOM     20  CAF G97 d          23.876  -4.474 -20.269  0.00  0.00    -0.082 A 
ATOM     21  H3  G97 d          25.343  -5.131 -21.693  0.00  0.00     0.083 H 
ATOM     22  CAI G97 d          23.276  -3.380 -19.638  0.00  0.00    -0.069 A 
ATOM     23  H4  G97 d          23.548  -5.480 -20.034  0.00  0.00     0.083 H 
ATOM     24  H5  G97 d          22.481  -3.530 -18.916  0.00  0.00     0.085 H 
ENDBRANCH   1  14
BRANCH  10  25
ATOM     25  NAR G97 d          22.333   2.437 -19.939  0.00  0.00    -0.325 N 
ATOM     26  H13 G97 d          22.111   3.273 -19.380  0.00  0.00     0.169 HD
BRANCH  25  27
ATOM     27  CAV G97 d          22.461   2.586 -21.281  0.00  0.00     0.124 A 
ATOM     28  CAJ G97 d          22.571   3.756 -21.905  0.00  0.00    -0.021 A 
ATOM     29  CAG G97 d          22.667   3.455 -23.203  0.00  0.00     0.025 A 
ATOM     30  H14 G97 d          22.581   4.747 -21.454  0.00  0.00     0.091 H 
ATOM     31  NAS G97 d          22.604   2.119 -23.325  0.00  0.00    -0.186 NA
ATOM     32  H15 G97 d          22.777   4.168 -24.019  0.00  0.00     0.117 H 
ATOM     33  NAN G97 d          22.484   1.609 -22.200  0.00  0.00    -0.263 N 
ATOM     34  H16 G97 d          22.414   0.600 -22.004  0.00  0.00     0.190 HD
ENDBRANCH  25  27
ENDBRANCH  10  25
BRANCH   6  35
ATOM     35  NAQ G97 d          21.019   0.453 -13.971  0.00  0.00    -0.324 N 
ATOM     36  CAT G97 d          20.193   1.145 -13.176  0.00  0.00     0.244 C 
ATOM     37  OAB G97 d          19.570   2.154 -13.524  0.00  0.00    -0.268 OA
ATOM     38  H7  G97 d          21.450  -0.352 -13.565  0.00  0.00     0.169 HD
BRANCH  36  39
ATOM     39  CAC G97 d          20.026   0.675 -11.871  0.00  0.00    -0.026 C 
ATOM     40  CAA G97 d          19.183   1.324 -10.970  0.00  0.00    -0.116 C 
ATOM     41  H9  G97 d          19.068   0.939  -9.958  0.00  0.00     0.067 H 
ATOM     42  H10 G97 d          18.639   2.216 -11.279  0.00  0.00     0.067 H 
ATOM     43  H8  G97 d          20.565  -0.216 -11.551  0.00  0.00     0.090 H 
ENDBRANCH  36  39
ENDBRANCH   6  35
TORSDOF 5
