MODEL 1
REMARK VINA RESULT:      -8.0      0.000      0.000
REMARK  7 active torsions:
REMARK  status: ('A' for Active; 'I' for Inactive)
REMARK    1  A    between atoms: P_1  and  O5'_5 
REMARK    2  A    between atoms: O5'_5  and  C5'_6 
REMARK    3  A    between atoms: C5'_6  and  C4'_7 
REMARK    4  A    between atoms: C3'_9  and  O3'_10 
REMARK    5  A    between atoms: C2'_11  and  O2'_12 
REMARK    6  A    between atoms: C1'_13  and  N1_14 
REMARK    7  A    between atoms: C6_21  and  O1_22 
ROOT
ATOM      1  C4' BMP d          39.156  37.784  37.753  0.00  0.00     0.089 C 
ATOM      2  O4' BMP d          39.985  38.599  38.591  0.00  0.00    -0.353 OA
ATOM      3  C3' BMP d          38.466  38.726  36.789  0.00  0.00     0.091 C 
ATOM      4  C2' BMP d          39.489  39.858  36.668  0.00  0.00     0.105 C 
ATOM      5  C1' BMP d          40.156  39.869  38.046  0.00  0.00     0.143 C 
ATOM      6  H3  BMP d          38.367  37.324  38.367  0.00  0.00     0.090 H 
ATOM      7  H4  BMP d          38.290  38.238  35.819  0.00  0.00     0.091 H 
ATOM      8  H6  BMP d          40.235  39.598  35.903  0.00  0.00     0.093 H 
ATOM      9  H8  BMP d          39.560  40.566  38.653  0.00  0.00     0.123 H 
ENDROOT
BRANCH   5  10
ATOM     10  N1  BMP d          41.544  40.340  38.194  0.00  0.00    -0.249 N 
ATOM     11  C6  BMP d          42.538  39.887  37.307  0.00  0.00     0.153 A 
ATOM     12  C5  BMP d          43.805  40.300  37.429  0.00  0.00     0.032 A 
ATOM     13  C4  BMP d          44.198  41.218  38.463  0.00  0.00     0.253 A 
ATOM     14  H10 BMP d          44.554  39.933  36.729  0.00  0.00     0.098 H 
ATOM     15  N3  BMP d          43.158  41.631  39.296  0.00  0.00    -0.275 N 
ATOM     16  O4  BMP d          45.309  41.664  38.675  0.00  0.00    -0.268 OA
ATOM     17  C2  BMP d          41.849  41.248  39.223  0.00  0.00     0.333 A 
ATOM     18  H9  BMP d          43.397  42.274  40.024  0.00  0.00     0.173 HD
ATOM     19  O2  BMP d          40.976  41.649  39.972  0.00  0.00    -0.246 OA
BRANCH  11  20
ATOM     20  O1  BMP d          42.173  39.095  36.404  0.00  0.00    -0.346 OA
ATOM     21  H11 BMP d          42.660  39.277  35.608  0.00  0.00     0.219 HD
ENDBRANCH  11  20
ENDBRANCH   5  10
BRANCH   4  22
ATOM     22  O2' BMP d          38.911  41.123  36.295  0.00  0.00    -0.388 OA
ATOM     23  H7  BMP d          38.512  41.524  37.057  0.00  0.00     0.210 HD
ENDBRANCH   4  22
BRANCH   1  24
ATOM     24  C5' BMP d          39.995  36.649  37.211  0.00  0.00     0.059 C 
ATOM     25  H1  BMP d          40.786  37.044  36.558  0.00  0.00     0.079 H 
ATOM     26  H2  BMP d          40.452  36.090  38.041  0.00  0.00     0.079 H 
BRANCH  24  27
ATOM     27  O5' BMP d          39.131  35.796  36.468  0.00  0.00    -0.280 OA
BRANCH  27  28
ATOM     28  P   BMP d          39.298  35.571  34.895  0.00  0.00     0.422 P 
ATOM     29  O3P BMP d          40.593  34.620  34.705  0.00  0.00    -0.617 OA
ATOM     30  O2P BMP d          38.122  34.775  34.483  0.00  0.00    -0.617 OA
ATOM     31  O1P BMP d          39.336  36.853  34.109  0.00  0.00    -0.617 OA
ENDBRANCH  27  28
ENDBRANCH  24  27
ENDBRANCH   1  24
BRANCH   3  32
ATOM     32  O3' BMP d          37.218  39.226  37.302  0.00  0.00    -0.390 OA
ATOM     33  H5  BMP d          37.331  40.126  37.586  0.00  0.00     0.210 HD
ENDBRANCH   3  32
TORSDOF 7
ENDMDL
MODEL 2
REMARK VINA RESULT:      -5.8      2.829      6.091
REMARK  7 active torsions:
REMARK  status: ('A' for Active; 'I' for Inactive)
REMARK    1  A    between atoms: P_1  and  O5'_5 
REMARK    2  A    between atoms: O5'_5  and  C5'_6 
REMARK    3  A    between atoms: C5'_6  and  C4'_7 
REMARK    4  A    between atoms: C3'_9  and  O3'_10 
REMARK    5  A    between atoms: C2'_11  and  O2'_12 
REMARK    6  A    between atoms: C1'_13  and  N1_14 
REMARK    7  A    between atoms: C6_21  and  O1_22 
ROOT
ATOM      1  C4' BMP d          40.428  40.675  37.564  0.00  0.00     0.089 C 
ATOM      2  O4' BMP d          39.876  39.357  37.671  0.00  0.00    -0.353 OA
ATOM      3  C3' BMP d          41.913  40.498  37.328  0.00  0.00     0.091 C 
ATOM      4  C2' BMP d          41.958  39.153  36.598  0.00  0.00     0.105 C 
ATOM      5  C1' BMP d          40.766  38.399  37.191  0.00  0.00     0.143 C 
ATOM      6  H3  BMP d          40.318  41.189  38.530  0.00  0.00     0.090 H 
ATOM      7  H4  BMP d          42.311  41.309  36.701  0.00  0.00     0.091 H 
ATOM      8  H6  BMP d          41.792  39.314  35.523  0.00  0.00     0.093 H 
ATOM      9  H8  BMP d          41.165  37.860  38.063  0.00  0.00     0.123 H 
ENDROOT
BRANCH   5  10
ATOM     10  N1  BMP d          40.075  37.366  36.401  0.00  0.00    -0.249 N 
ATOM     11  C6  BMP d          39.264  37.739  35.312  0.00  0.00     0.153 A 
ATOM     12  C5  BMP d          38.625  36.815  34.585  0.00  0.00     0.032 A 
ATOM     13  C4  BMP d          38.742  35.413  34.884  0.00  0.00     0.253 A 
ATOM     14  H10 BMP d          38.003  37.132  33.749  0.00  0.00     0.098 H 
ATOM     15  N3  BMP d          39.569  35.120  35.967  0.00  0.00    -0.275 N 
ATOM     16  O4  BMP d          38.215  34.485  34.301  0.00  0.00    -0.268 OA
ATOM     17  C2  BMP d          40.248  36.014  36.746  0.00  0.00     0.333 A 
ATOM     18  H9  BMP d          39.676  34.153  36.199  0.00  0.00     0.173 HD
ATOM     19  O2  BMP d          40.969  35.702  37.676  0.00  0.00    -0.246 OA
BRANCH  11  20
ATOM     20  O1  BMP d          39.184  38.966  35.061  0.00  0.00    -0.346 OA
ATOM     21  H11 BMP d          39.631  39.151  34.243  0.00  0.00     0.219 HD
ENDBRANCH  11  20
ENDBRANCH   5  10
BRANCH   4  22
ATOM     22  O2' BMP d          43.211  38.459  36.742  0.00  0.00    -0.388 OA
ATOM     23  H7  BMP d          43.107  37.558  36.461  0.00  0.00     0.210 HD
ENDBRANCH   4  22
BRANCH   1  24
ATOM     24  C5' BMP d          39.604  41.457  36.566  0.00  0.00     0.059 C 
ATOM     25  H1  BMP d          40.239  42.192  36.049  0.00  0.00     0.079 H 
ATOM     26  H2  BMP d          39.160  40.774  35.828  0.00  0.00     0.079 H 
BRANCH  24  27
ATOM     27  O5' BMP d          38.577  42.126  37.290  0.00  0.00    -0.280 OA
BRANCH  27  28
ATOM     28  P   BMP d          37.047  42.090  36.834  0.00  0.00     0.422 P 
ATOM     29  O3P BMP d          36.960  41.035  35.610  0.00  0.00    -0.617 OA
ATOM     30  O2P BMP d          36.310  41.490  37.967  0.00  0.00    -0.617 OA
ATOM     31  O1P BMP d          36.481  43.451  36.534  0.00  0.00    -0.617 OA
ENDBRANCH  27  28
ENDBRANCH  24  27
ENDBRANCH   1  24
BRANCH   3  32
ATOM     32  O3' BMP d          42.664  40.433  38.554  0.00  0.00    -0.390 OA
ATOM     33  H5  BMP d          42.443  39.633  39.017  0.00  0.00     0.210 HD
ENDBRANCH   3  32
TORSDOF 7
ENDMDL
MODEL 3
REMARK VINA RESULT:      -5.5      1.913      3.840
REMARK  7 active torsions:
REMARK  status: ('A' for Active; 'I' for Inactive)
REMARK    1  A    between atoms: P_1  and  O5'_5 
REMARK    2  A    between atoms: O5'_5  and  C5'_6 
REMARK    3  A    between atoms: C5'_6  and  C4'_7 
REMARK    4  A    between atoms: C3'_9  and  O3'_10 
REMARK    5  A    between atoms: C2'_11  and  O2'_12 
REMARK    6  A    between atoms: C1'_13  and  N1_14 
REMARK    7  A    between atoms: C6_21  and  O1_22 
ROOT
ATOM      1  C4' BMP d          39.585  37.318  35.074  0.00  0.00     0.089 C 
ATOM      2  O4' BMP d          40.734  38.068  35.488  0.00  0.00    -0.353 OA
ATOM      3  C3' BMP d          39.490  36.131  36.010  0.00  0.00     0.091 C 
ATOM      4  C2' BMP d          40.119  36.688  37.289  0.00  0.00     0.105 C 
ATOM      5  C1' BMP d          41.152  37.686  36.761  0.00  0.00     0.143 C 
ATOM      6  H3  BMP d          39.764  36.915  34.066  0.00  0.00     0.090 H 
ATOM      7  H4  BMP d          38.442  35.840  36.171  0.00  0.00     0.091 H 
ATOM      8  H6  BMP d          39.354  37.225  37.870  0.00  0.00     0.093 H 
ATOM      9  H8  BMP d          42.080  37.109  36.639  0.00  0.00     0.123 H 
ENDROOT
BRANCH   5  10
ATOM     10  N1  BMP d          41.543  38.850  37.574  0.00  0.00    -0.249 N 
ATOM     11  C6  BMP d          42.660  39.623  37.204  0.00  0.00     0.153 A 
ATOM     12  C5  BMP d          43.032  40.681  37.933  0.00  0.00     0.032 A 
ATOM     13  C4  BMP d          42.311  41.070  39.114  0.00  0.00     0.253 A 
ATOM     14  H10 BMP d          43.901  41.261  37.624  0.00  0.00     0.098 H 
ATOM     15  N3  BMP d          41.212  40.265  39.412  0.00  0.00    -0.275 N 
ATOM     16  O4  BMP d          42.549  42.005  39.854  0.00  0.00    -0.268 OA
ATOM     17  C2  BMP d          40.779  39.175  38.709  0.00  0.00     0.333 A 
ATOM     18  H9  BMP d          40.684  40.511  40.225  0.00  0.00     0.173 HD
ATOM     19  O2  BMP d          39.803  38.512  39.008  0.00  0.00    -0.246 OA
BRANCH  11  20
ATOM     20  O1  BMP d          43.270  39.274  36.164  0.00  0.00    -0.346 OA
ATOM     21  H11 BMP d          43.940  38.639  36.389  0.00  0.00     0.219 HD
ENDBRANCH  11  20
ENDBRANCH   5  10
BRANCH   4  22
ATOM     22  O2' BMP d          40.679  35.675  38.146  0.00  0.00    -0.388 OA
ATOM     23  H7  BMP d          40.769  34.865  37.660  0.00  0.00     0.210 HD
ENDBRANCH   4  22
BRANCH   1  24
ATOM     24  C5' BMP d          38.414  38.267  34.955  0.00  0.00     0.059 C 
ATOM     25  H1  BMP d          38.000  38.227  33.936  0.00  0.00     0.079 H 
ATOM     26  H2  BMP d          37.633  37.992  35.678  0.00  0.00     0.079 H 
BRANCH  24  27
ATOM     27  O5' BMP d          38.895  39.577  35.233  0.00  0.00    -0.280 OA
BRANCH  27  28
ATOM     28  P   BMP d          38.292  40.478  36.407  0.00  0.00     0.422 P 
ATOM     29  O3P BMP d          37.084  41.332  35.752  0.00  0.00    -0.617 OA
ATOM     30  O2P BMP d          37.675  39.527  37.357  0.00  0.00    -0.617 OA
ATOM     31  O1P BMP d          39.330  41.298  37.122  0.00  0.00    -0.617 OA
ENDBRANCH  27  28
ENDBRANCH  24  27
ENDBRANCH   1  24
BRANCH   3  32
ATOM     32  O3' BMP d          40.233  34.993  35.536  0.00  0.00    -0.390 OA
ATOM     33  H5  BMP d          40.674  34.577  36.268  0.00  0.00     0.210 HD
ENDBRANCH   3  32
TORSDOF 7
ENDMDL
MODEL 4
REMARK VINA RESULT:      -5.2      1.905      4.066
REMARK  7 active torsions:
REMARK  status: ('A' for Active; 'I' for Inactive)
REMARK    1  A    between atoms: P_1  and  O5'_5 
REMARK    2  A    between atoms: O5'_5  and  C5'_6 
REMARK    3  A    between atoms: C5'_6  and  C4'_7 
REMARK    4  A    between atoms: C3'_9  and  O3'_10 
REMARK    5  A    between atoms: C2'_11  and  O2'_12 
REMARK    6  A    between atoms: C1'_13  and  N1_14 
REMARK    7  A    between atoms: C6_21  and  O1_22 
ROOT
ATOM      1  C4' BMP d          39.549  37.126  35.070  0.00  0.00     0.089 C 
ATOM      2  O4' BMP d          40.686  37.903  35.468  0.00  0.00    -0.353 OA
ATOM      3  C3' BMP d          39.485  35.946  36.017  0.00  0.00     0.091 C 
ATOM      4  C2' BMP d          40.111  36.528  37.286  0.00  0.00     0.105 C 
ATOM      5  C1' BMP d          41.120  37.541  36.741  0.00  0.00     0.143 C 
ATOM      6  H3  BMP d          39.728  36.717  34.064  0.00  0.00     0.090 H 
ATOM      7  H4  BMP d          38.444  35.636  36.189  0.00  0.00     0.091 H 
ATOM      8  H6  BMP d          39.340  37.054  37.867  0.00  0.00     0.093 H 
ATOM      9  H8  BMP d          42.059  36.981  36.617  0.00  0.00     0.123 H 
ENDROOT
BRANCH   5  10
ATOM     10  N1  BMP d          41.493  38.720  37.541  0.00  0.00    -0.249 N 
ATOM     11  C6  BMP d          40.721  39.082  38.662  0.00  0.00     0.153 A 
ATOM     12  C5  BMP d          41.042  40.152  39.398  0.00  0.00     0.032 A 
ATOM     13  C4  BMP d          42.181  40.969  39.077  0.00  0.00     0.253 A 
ATOM     14  H10 BMP d          40.427  40.410  40.259  0.00  0.00     0.098 H 
ATOM     15  N3  BMP d          42.903  40.543  37.962  0.00  0.00    -0.275 N 
ATOM     16  O4  BMP d          42.573  41.958  39.666  0.00  0.00    -0.268 OA
ATOM     17  C2  BMP d          42.629  39.462  37.173  0.00  0.00     0.333 A 
ATOM     18  H9  BMP d          43.705  41.086  37.715  0.00  0.00     0.173 HD
ATOM     19  O2  BMP d          43.301  39.127  36.214  0.00  0.00    -0.246 OA
BRANCH  11  20
ATOM     20  O1  BMP d          39.737  38.351  38.931  0.00  0.00    -0.346 OA
ATOM     21  H11 BMP d          39.939  37.452  38.699  0.00  0.00     0.219 HD
ENDBRANCH  11  20
ENDBRANCH   5  10
BRANCH   4  22
ATOM     22  O2' BMP d          40.697  35.534  38.149  0.00  0.00    -0.388 OA
ATOM     23  H7  BMP d          40.609  35.810  39.053  0.00  0.00     0.210 HD
ENDBRANCH   4  22
BRANCH   1  24
ATOM     24  C5' BMP d          38.358  38.050  34.950  0.00  0.00     0.059 C 
ATOM     25  H1  BMP d          37.909  37.956  33.950  0.00  0.00     0.079 H 
ATOM     26  H2  BMP d          37.608  37.797  35.713  0.00  0.00     0.079 H 
BRANCH  24  27
ATOM     27  O5' BMP d          38.826  39.379  35.150  0.00  0.00    -0.280 OA
BRANCH  27  28
ATOM     28  P   BMP d          38.205  40.346  36.260  0.00  0.00     0.422 P 
ATOM     29  O3P BMP d          37.724  39.395  37.476  0.00  0.00    -0.617 OA
ATOM     30  O2P BMP d          39.341  41.145  36.768  0.00  0.00    -0.617 OA
ATOM     31  O1P BMP d          37.146  41.268  35.722  0.00  0.00    -0.617 OA
ENDBRANCH  27  28
ENDBRANCH  24  27
ENDBRANCH   1  24
BRANCH   3  32
ATOM     32  O3' BMP d          40.246  34.819  35.548  0.00  0.00    -0.390 OA
ATOM     33  H5  BMP d          40.309  34.170  36.240  0.00  0.00     0.210 HD
ENDBRANCH   3  32
TORSDOF 7
ENDMDL
MODEL 5
REMARK VINA RESULT:      -5.1      2.764      6.065
REMARK  7 active torsions:
REMARK  status: ('A' for Active; 'I' for Inactive)
REMARK    1  A    between atoms: P_1  and  O5'_5 
REMARK    2  A    between atoms: O5'_5  and  C5'_6 
REMARK    3  A    between atoms: C5'_6  and  C4'_7 
REMARK    4  A    between atoms: C3'_9  and  O3'_10 
REMARK    5  A    between atoms: C2'_11  and  O2'_12 
REMARK    6  A    between atoms: C1'_13  and  N1_14 
REMARK    7  A    between atoms: C6_21  and  O1_22 
ROOT
ATOM      1  C4' BMP d          40.618  40.607  37.599  0.00  0.00     0.089 C 
ATOM      2  O4' BMP d          40.068  39.290  37.731  0.00  0.00    -0.353 OA
ATOM      3  C3' BMP d          42.095  40.426  37.317  0.00  0.00     0.091 C 
ATOM      4  C2' BMP d          42.115  39.077  36.595  0.00  0.00     0.105 C 
ATOM      5  C1' BMP d          40.941  38.328  37.230  0.00  0.00     0.143 C 
ATOM      6  H3  BMP d          40.540  41.128  38.564  0.00  0.00     0.090 H 
ATOM      7  H4  BMP d          42.474  41.232  36.673  0.00  0.00     0.091 H 
ATOM      8  H6  BMP d          41.915  39.231  35.525  0.00  0.00     0.093 H 
ATOM      9  H8  BMP d          41.367  37.794  38.092  0.00  0.00     0.123 H 
ENDROOT
BRANCH   5  10
ATOM     10  N1  BMP d          40.224  37.291  36.468  0.00  0.00    -0.249 N 
ATOM     11  C6  BMP d          40.361  35.936  36.825  0.00  0.00     0.153 A 
ATOM     12  C5  BMP d          39.721  34.980  36.142  0.00  0.00     0.032 A 
ATOM     13  C4  BMP d          38.872  35.296  35.026  0.00  0.00     0.253 A 
ATOM     14  H10 BMP d          39.846  33.939  36.439  0.00  0.00     0.098 H 
ATOM     15  N3  BMP d          38.777  36.657  34.739  0.00  0.00    -0.275 N 
ATOM     16  O4  BMP d          38.241  34.521  34.332  0.00  0.00    -0.268 OA
ATOM     17  C2  BMP d          39.401  37.679  35.396  0.00  0.00     0.333 A 
ATOM     18  H9  BMP d          38.189  36.912  33.970  0.00  0.00     0.173 HD
ATOM     19  O2  BMP d          39.274  38.855  35.110  0.00  0.00    -0.246 OA
BRANCH  11  20
ATOM     20  O1  BMP d          41.098  35.681  37.809  0.00  0.00    -0.346 OA
ATOM     21  H11 BMP d          40.577  35.288  38.500  0.00  0.00     0.219 HD
ENDBRANCH  11  20
ENDBRANCH   5  10
BRANCH   4  22
ATOM     22  O2' BMP d          43.371  38.382  36.704  0.00  0.00    -0.388 OA
ATOM     23  H7  BMP d          43.675  38.417  37.603  0.00  0.00     0.210 HD
ENDBRANCH   4  22
BRANCH   1  24
ATOM     24  C5' BMP d          39.764  41.384  36.622  0.00  0.00     0.059 C 
ATOM     25  H1  BMP d          40.365  42.170  36.141  0.00  0.00     0.079 H 
ATOM     26  H2  BMP d          39.363  40.709  35.853  0.00  0.00     0.079 H 
BRANCH  24  27
ATOM     27  O5' BMP d          38.698  41.971  37.360  0.00  0.00    -0.280 OA
BRANCH  27  28
ATOM     28  P   BMP d          37.222  42.112  36.763  0.00  0.00     0.422 P 
ATOM     29  O3P BMP d          37.045  40.910  35.694  0.00  0.00    -0.617 OA
ATOM     30  O2P BMP d          36.311  41.817  37.890  0.00  0.00    -0.617 OA
ATOM     31  O1P BMP d          36.925  43.485  36.224  0.00  0.00    -0.617 OA
ENDBRANCH  27  28
ENDBRANCH  24  27
ENDBRANCH   1  24
BRANCH   3  32
ATOM     32  O3' BMP d          42.883  40.367  38.519  0.00  0.00    -0.390 OA
ATOM     33  H5  BMP d          43.681  39.880  38.350  0.00  0.00     0.210 HD
ENDBRANCH   3  32
TORSDOF 7
ENDMDL
