MODEL 1
REMARK VINA RESULT:      -6.3      0.000      0.000
REMARK  8 active torsions:
REMARK  status: ('A' for Active; 'I' for Inactive)
REMARK    1  A    between atoms: C2_2  and  C6_6 
REMARK    2  A    between atoms: C3_3  and  O20_16 
REMARK    3  A    between atoms: C5_5  and  C9_9 
REMARK    4  A    between atoms: C11_11  and  N29_21 
REMARK    5  A    between atoms: O20_16  and  C21_17 
REMARK    6  A    between atoms: C21_17  and  C22_18 
REMARK    7  A    between atoms: N29_21  and  C30_22 
REMARK    8  A    between atoms: C30_22  and  C31_23 
ROOT
ATOM      1  C9  MOL d          47.045  11.777   0.724  0.00  0.00    -0.015 A 
ATOM      2  C10 MOL d          46.931  10.580   1.510  0.00  0.00    -0.046 A 
ATOM      3  C11 MOL d          47.605   9.389   1.109  0.00  0.00     0.029 A 
ATOM      4  C12 MOL d          48.407   9.384  -0.093  0.00  0.00    -0.058 A 
ATOM      5  C13 MOL d          48.530  10.575  -0.883  0.00  0.00    -0.080 A 
ATOM      6  C14 MOL d          47.844  11.762  -0.467  0.00  0.00    -0.072 A 
ATOM      7  H1  MOL d          46.330  10.583   2.412  0.00  0.00     0.088 H 
ATOM      8  H2  MOL d          48.918   8.478  -0.398  0.00  0.00     0.086 H 
ATOM      9  H3  MOL d          49.134  10.577  -1.784  0.00  0.00     0.083 H 
ATOM     10  H4  MOL d          47.931  12.664  -1.063  0.00  0.00     0.084 H 
ENDROOT
BRANCH   1  11
ATOM     11  C5  MOL d          46.342  13.039   1.121  0.00  0.00     0.036 A 
ATOM     12  S1  MOL d          45.253  13.795   0.079  0.00  0.00    -0.078 SA
ATOM     13  C2  MOL d          44.867  15.085   1.129  0.00  0.00     0.117 A 
ATOM     14  C3  MOL d          45.594  14.943   2.341  0.00  0.00     0.112 A 
ATOM     15  C4  MOL d          46.424  13.789   2.322  0.00  0.00     0.064 A 
ATOM     16 BR19 MOL d          47.522  13.328   3.796  0.00  0.00    -0.047 Br
BRANCH  13  17
ATOM     17  C6  MOL d          43.943  16.079   0.736  0.00  0.00     0.219 C 
ATOM     18  O7  MOL d          43.415  16.816   1.566  0.00  0.00    -0.643 OA
ATOM     19  O8  MOL d          43.692  16.178  -0.469  0.00  0.00    -0.643 OA
ENDBRANCH  13  17
BRANCH  14  20
ATOM     20  O20 MOL d          45.545  15.812   3.486  0.00  0.00    -0.338 OA
BRANCH  20  21
ATOM     21  C21 MOL d          46.265  17.042   3.347  0.00  0.00     0.106 C 
ATOM     22  H5  MOL d          45.591  17.886   3.558  0.00  0.00     0.091 H 
ATOM     23  H6  MOL d          46.649  17.127   2.320  0.00  0.00     0.091 H 
BRANCH  21  24
ATOM     24  C22 MOL d          47.435  17.069   4.330  0.00  0.00     0.198 C 
ATOM     25  O25 MOL d          47.242  17.472   5.491  0.00  0.00    -0.646 OA
ATOM     26  O26 MOL d          48.540  16.686   3.935  0.00  0.00    -0.646 OA
ENDBRANCH  21  24
ENDBRANCH  20  21
ENDBRANCH  14  20
ENDBRANCH   1  11
BRANCH   3  27
ATOM     27  N29 MOL d          47.444   8.275   1.915  0.00  0.00    -0.386 N 
ATOM     28  H7  MOL d          46.769   8.346   2.690  0.00  0.00     0.160 HD
BRANCH  27  29
ATOM     29  C30 MOL d          48.159   6.999   1.753  0.00  0.00     0.016 C 
ATOM     30  H8  MOL d          48.702   7.021   0.797  0.00  0.00     0.071 H 
ATOM     31  H9  MOL d          47.421   6.184   1.738  0.00  0.00     0.071 H 
BRANCH  29  32
ATOM     32  C31 MOL d          49.153   6.726   2.863  0.00  0.00    -0.041 A 
ATOM     33  C34 MOL d          50.463   7.324   2.807  0.00  0.00    -0.075 A 
ATOM     34  C35 MOL d          51.406   7.075   3.855  0.00  0.00    -0.082 A 
ATOM     35  H10 MOL d          50.733   7.962   1.974  0.00  0.00     0.084 H 
ATOM     36  C36 MOL d          51.023   6.227   4.947  0.00  0.00    -0.083 A 
ATOM     37  H11 MOL d          52.394   7.520   3.823  0.00  0.00     0.083 H 
ATOM     38  C37 MOL d          49.715   5.625   5.009  0.00  0.00    -0.082 A 
ATOM     39  H12 MOL d          51.733   6.034   5.744  0.00  0.00     0.083 H 
ATOM     40  C38 MOL d          48.772   5.879   3.957  0.00  0.00    -0.075 A 
ATOM     41  H13 MOL d          49.445   4.986   5.843  0.00  0.00     0.083 H 
ATOM     42  H14 MOL d          47.783   5.435   3.987  0.00  0.00     0.084 H 
ENDBRANCH  29  32
ENDBRANCH  27  29
ENDBRANCH   3  27
TORSDOF 8
ENDMDL
MODEL 2
REMARK VINA RESULT:      -5.5      1.805      3.326
REMARK  8 active torsions:
REMARK  status: ('A' for Active; 'I' for Inactive)
REMARK    1  A    between atoms: C2_2  and  C6_6 
REMARK    2  A    between atoms: C3_3  and  O20_16 
REMARK    3  A    between atoms: C5_5  and  C9_9 
REMARK    4  A    between atoms: C11_11  and  N29_21 
REMARK    5  A    between atoms: O20_16  and  C21_17 
REMARK    6  A    between atoms: C21_17  and  C22_18 
REMARK    7  A    between atoms: N29_21  and  C30_22 
REMARK    8  A    between atoms: C30_22  and  C31_23 
ROOT
ATOM      1  C9  MOL d          47.327  11.108   1.087  0.00  0.00    -0.015 A 
ATOM      2  C10 MOL d          48.695  10.746   1.331  0.00  0.00    -0.046 A 
ATOM      3  C11 MOL d          49.233   9.547   0.778  0.00  0.00     0.029 A 
ATOM      4  C12 MOL d          48.398   8.691  -0.035  0.00  0.00    -0.058 A 
ATOM      5  C13 MOL d          47.031   9.045  -0.288  0.00  0.00    -0.080 A 
ATOM      6  C14 MOL d          46.507  10.252   0.279  0.00  0.00    -0.072 A 
ATOM      7  H1  MOL d          49.322  11.387   1.940  0.00  0.00     0.088 H 
ATOM      8  H2  MOL d          48.806   7.778  -0.455  0.00  0.00     0.086 H 
ATOM      9  H3  MOL d          46.403   8.408  -0.899  0.00  0.00     0.083 H 
ATOM     10  H4  MOL d          45.474  10.523   0.093  0.00  0.00     0.084 H 
ENDROOT
BRANCH   1  11
ATOM     11  C5  MOL d          46.738  12.360   1.663  0.00  0.00     0.036 A 
ATOM     12  S1  MOL d          47.395  13.080   3.037  0.00  0.00    -0.078 SA
ATOM     13  C2  MOL d          46.286  14.376   3.107  0.00  0.00     0.117 A 
ATOM     14  C3  MOL d          45.365  14.270   2.032  0.00  0.00     0.112 A 
ATOM     15  C4  MOL d          45.628  13.128   1.228  0.00  0.00     0.064 A 
ATOM     16 BR19 MOL d          44.566  12.711  -0.286  0.00  0.00    -0.047 Br
BRANCH  13  17
ATOM     17  C6  MOL d          46.380  15.347   4.129  0.00  0.00     0.219 C 
ATOM     18  O7  MOL d          45.407  15.633   4.824  0.00  0.00    -0.643 OA
ATOM     19  O8  MOL d          47.476  15.893   4.298  0.00  0.00    -0.643 OA
ENDBRANCH  13  17
BRANCH  14  20
ATOM     20  O20 MOL d          44.283  15.167   1.728  0.00  0.00    -0.338 OA
BRANCH  20  21
ATOM     21  C21 MOL d          44.679  16.466   1.273  0.00  0.00     0.106 C 
ATOM     22  H5  MOL d          45.768  16.576   1.385  0.00  0.00     0.091 H 
ATOM     23  H6  MOL d          44.169  17.234   1.872  0.00  0.00     0.091 H 
BRANCH  21  24
ATOM     24  C22 MOL d          44.300  16.635  -0.197  0.00  0.00     0.198 C 
ATOM     25  O25 MOL d          44.891  17.490  -0.882  0.00  0.00    -0.646 OA
ATOM     26  O26 MOL d          43.413  15.912  -0.661  0.00  0.00    -0.646 OA
ENDBRANCH  21  24
ENDBRANCH  20  21
ENDBRANCH  14  20
ENDBRANCH   1  11
BRANCH   3  27
ATOM     27  N29 MOL d          50.557   9.263   1.061  0.00  0.00    -0.386 N 
ATOM     28  H7  MOL d          51.189  10.061   1.220  0.00  0.00     0.160 HD
BRANCH  27  29
ATOM     29  C30 MOL d          51.136   7.912   1.154  0.00  0.00     0.016 C 
ATOM     30  H8  MOL d          52.231   8.003   1.189  0.00  0.00     0.071 H 
ATOM     31  H9  MOL d          50.843   7.344   0.258  0.00  0.00     0.071 H 
BRANCH  29  32
ATOM     32  C31 MOL d          50.677   7.148   2.378  0.00  0.00    -0.041 A 
ATOM     33  C34 MOL d          51.350   7.349   3.636  0.00  0.00    -0.075 A 
ATOM     34  C35 MOL d          50.919   6.634   4.798  0.00  0.00    -0.082 A 
ATOM     35  H10 MOL d          52.181   8.041   3.701  0.00  0.00     0.084 H 
ATOM     36  C36 MOL d          49.815   5.724   4.684  0.00  0.00    -0.083 A 
ATOM     37  H11 MOL d          51.418   6.778   5.749  0.00  0.00     0.083 H 
ATOM     38  C37 MOL d          49.138   5.517   3.429  0.00  0.00    -0.082 A 
ATOM     39  H12 MOL d          49.484   5.179   5.561  0.00  0.00     0.083 H 
ATOM     40  C38 MOL d          49.573   6.237   2.266  0.00  0.00    -0.075 A 
ATOM     41  H13 MOL d          48.306   4.824   3.364  0.00  0.00     0.083 H 
ATOM     42  H14 MOL d          49.075   6.095   1.314  0.00  0.00     0.084 H 
ENDBRANCH  29  32
ENDBRANCH  27  29
ENDBRANCH   3  27
TORSDOF 8
ENDMDL
MODEL 3
REMARK VINA RESULT:      -4.3      1.723      2.069
REMARK  8 active torsions:
REMARK  status: ('A' for Active; 'I' for Inactive)
REMARK    1  A    between atoms: C2_2  and  C6_6 
REMARK    2  A    between atoms: C3_3  and  O20_16 
REMARK    3  A    between atoms: C5_5  and  C9_9 
REMARK    4  A    between atoms: C11_11  and  N29_21 
REMARK    5  A    between atoms: O20_16  and  C21_17 
REMARK    6  A    between atoms: C21_17  and  C22_18 
REMARK    7  A    between atoms: N29_21  and  C30_22 
REMARK    8  A    between atoms: C30_22  and  C31_23 
ROOT
ATOM      1  C9  MOL d          48.015  11.192   0.024  0.00  0.00    -0.015 A 
ATOM      2  C10 MOL d          47.627   9.816  -0.107  0.00  0.00    -0.046 A 
ATOM      3  C11 MOL d          48.599   8.819  -0.414  0.00  0.00     0.029 A 
ATOM      4  C12 MOL d          49.984   9.194  -0.593  0.00  0.00    -0.058 A 
ATOM      5  C13 MOL d          50.383  10.566  -0.461  0.00  0.00    -0.080 A 
ATOM      6  C14 MOL d          49.392  11.554  -0.155  0.00  0.00    -0.072 A 
ATOM      7  H1  MOL d          46.589   9.533   0.027  0.00  0.00     0.088 H 
ATOM      8  H2  MOL d          50.723   8.437  -0.828  0.00  0.00     0.086 H 
ATOM      9  H3  MOL d          51.420  10.851  -0.591  0.00  0.00     0.083 H 
ATOM     10  H4  MOL d          49.687  12.593  -0.057  0.00  0.00     0.084 H 
ENDROOT
BRANCH   1  11
ATOM     11  C5  MOL d          47.011  12.258   0.340  0.00  0.00     0.036 A 
ATOM     12  S1  MOL d          46.324  13.197  -0.880  0.00  0.00    -0.078 SA
ATOM     13  C2  MOL d          45.337  14.134   0.151  0.00  0.00     0.117 A 
ATOM     14  C3  MOL d          45.526  13.719   1.496  0.00  0.00     0.112 A 
ATOM     15  C4  MOL d          46.474  12.663   1.589  0.00  0.00     0.064 A 
ATOM     16 BR19 MOL d          46.945  11.893   3.255  0.00  0.00    -0.047 Br
BRANCH  13  17
ATOM     17  C6  MOL d          44.497  15.140  -0.378  0.00  0.00     0.219 C 
ATOM     18  O7  MOL d          43.412  14.858  -0.884  0.00  0.00    -0.643 OA
ATOM     19  O8  MOL d          44.894  16.308  -0.310  0.00  0.00    -0.643 OA
ENDBRANCH  13  17
BRANCH  14  20
ATOM     20  O20 MOL d          44.875  14.246   2.664  0.00  0.00    -0.338 OA
BRANCH  20  21
ATOM     21  C21 MOL d          45.639  15.200   3.409  0.00  0.00     0.106 C 
ATOM     22  H5  MOL d          46.582  15.407   2.879  0.00  0.00     0.091 H 
ATOM     23  H6  MOL d          45.861  14.793   4.406  0.00  0.00     0.091 H 
BRANCH  21  24
ATOM     24  C22 MOL d          44.845  16.497   3.555  0.00  0.00     0.198 C 
ATOM     25  O25 MOL d          44.506  16.876   4.691  0.00  0.00    -0.646 OA
ATOM     26  O26 MOL d          44.566  17.131   2.534  0.00  0.00    -0.646 OA
ENDBRANCH  21  24
ENDBRANCH  20  21
ENDBRANCH  14  20
ENDBRANCH   1  11
BRANCH   3  27
ATOM     27  N29 MOL d          48.149   7.516  -0.529  0.00  0.00    -0.386 N 
ATOM     28  H7  MOL d          47.326   7.350  -1.127  0.00  0.00     0.160 HD
BRANCH  27  29
ATOM     29  C30 MOL d          48.750   6.347   0.134  0.00  0.00     0.016 C 
ATOM     30  H8  MOL d          49.757   6.189  -0.281  0.00  0.00     0.071 H 
ATOM     31  H9  MOL d          48.125   5.466  -0.075  0.00  0.00     0.071 H 
BRANCH  29  32
ATOM     32  C31 MOL d          48.869   6.507   1.635  0.00  0.00    -0.041 A 
ATOM     33  C34 MOL d          50.025   5.982   2.317  0.00  0.00    -0.075 A 
ATOM     34  C35 MOL d          50.147   6.134   3.735  0.00  0.00    -0.082 A 
ATOM     35  H10 MOL d          50.801   5.474   1.756  0.00  0.00     0.084 H 
ATOM     36  C36 MOL d          49.105   6.811   4.453  0.00  0.00    -0.083 A 
ATOM     37  H11 MOL d          51.012   5.743   4.258  0.00  0.00     0.083 H 
ATOM     38  C37 MOL d          47.946   7.338   3.778  0.00  0.00    -0.082 A 
ATOM     39  H12 MOL d          49.191   6.929   5.527  0.00  0.00     0.083 H 
ATOM     40  C38 MOL d          47.828   7.184   2.355  0.00  0.00    -0.075 A 
ATOM     41  H13 MOL d          47.169   7.845   4.339  0.00  0.00     0.083 H 
ATOM     42  H14 MOL d          46.964   7.575   1.831  0.00  0.00     0.084 H 
ENDBRANCH  29  32
ENDBRANCH  27  29
ENDBRANCH   3  27
TORSDOF 8
ENDMDL
MODEL 4
REMARK VINA RESULT:      -3.7      5.149      8.818
REMARK  8 active torsions:
REMARK  status: ('A' for Active; 'I' for Inactive)
REMARK    1  A    between atoms: C2_2  and  C6_6 
REMARK    2  A    between atoms: C3_3  and  O20_16 
REMARK    3  A    between atoms: C5_5  and  C9_9 
REMARK    4  A    between atoms: C11_11  and  N29_21 
REMARK    5  A    between atoms: O20_16  and  C21_17 
REMARK    6  A    between atoms: C21_17  and  C22_18 
REMARK    7  A    between atoms: N29_21  and  C30_22 
REMARK    8  A    between atoms: C30_22  and  C31_23 
ROOT
ATOM      1  C9  MOL d          46.890   9.653   0.935  0.00  0.00    -0.015 A 
ATOM      2  C10 MOL d          46.815  10.918   1.611  0.00  0.00    -0.046 A 
ATOM      3  C11 MOL d          45.698  11.780   1.405  0.00  0.00     0.029 A 
ATOM      4  C12 MOL d          44.633  11.379   0.513  0.00  0.00    -0.058 A 
ATOM      5  C13 MOL d          44.697  10.116  -0.165  0.00  0.00    -0.080 A 
ATOM      6  C14 MOL d          45.828   9.264   0.052  0.00  0.00    -0.072 A 
ATOM      7  H1  MOL d          47.612  11.219   2.281  0.00  0.00     0.088 H 
ATOM      8  H2  MOL d          43.784  12.034   0.356  0.00  0.00     0.086 H 
ATOM      9  H3  MOL d          43.899   9.810  -0.832  0.00  0.00     0.083 H 
ATOM     10  H4  MOL d          45.883   8.310  -0.460  0.00  0.00     0.084 H 
ENDROOT
BRANCH   1  11
ATOM     11  C5  MOL d          48.056   8.733   1.130  0.00  0.00     0.036 A 
ATOM     12  S1  MOL d          48.538   7.667  -0.083  0.00  0.00    -0.078 SA
ATOM     13  C2  MOL d          49.843   6.987   0.784  0.00  0.00     0.117 A 
ATOM     14  C3  MOL d          49.931   7.598   2.063  0.00  0.00     0.112 A 
ATOM     15  C4  MOL d          48.917   8.577   2.247  0.00  0.00     0.064 A 
ATOM     16 BR19 MOL d          48.769   9.566   3.856  0.00  0.00    -0.047 Br
BRANCH  13  17
ATOM     17  C6  MOL d          50.643   5.978   0.203  0.00  0.00     0.219 C 
ATOM     18  O7  MOL d          51.662   5.577   0.762  0.00  0.00    -0.643 OA
ATOM     19  O8  MOL d          50.278   5.516  -0.883  0.00  0.00    -0.643 OA
ENDBRANCH  13  17
BRANCH  14  20
ATOM     20  O20 MOL d          50.897   7.318   3.090  0.00  0.00    -0.338 OA
BRANCH  20  21
ATOM     21  C21 MOL d          50.669   6.112   3.828  0.00  0.00     0.106 C 
ATOM     22  H5  MOL d          51.369   6.064   4.676  0.00  0.00     0.091 H 
ATOM     23  H6  MOL d          50.830   5.246   3.170  0.00  0.00     0.091 H 
BRANCH  21  24
ATOM     24  C22 MOL d          49.234   6.091   4.353  0.00  0.00     0.198 C 
ATOM     25  O25 MOL d          48.356   5.504   3.695  0.00  0.00    -0.646 OA
ATOM     26  O26 MOL d          48.993   6.661   5.421  0.00  0.00    -0.646 OA
ENDBRANCH  21  24
ENDBRANCH  20  21
ENDBRANCH  14  20
ENDBRANCH   1  11
BRANCH   3  27
ATOM     27  N29 MOL d          45.699  12.983   2.088  0.00  0.00    -0.386 N 
ATOM     28  H7  MOL d          44.796  13.323   2.449  0.00  0.00     0.160 HD
BRANCH  27  29
ATOM     29  C30 MOL d          46.886  13.816   2.340  0.00  0.00     0.016 C 
ATOM     30  H8  MOL d          47.229  14.235   1.382  0.00  0.00     0.071 H 
ATOM     31  H9  MOL d          47.676  13.180   2.766  0.00  0.00     0.071 H 
BRANCH  29  32
ATOM     32  C31 MOL d          46.623  14.960   3.297  0.00  0.00    -0.041 A 
ATOM     33  C34 MOL d          47.649  15.361   4.225  0.00  0.00    -0.075 A 
ATOM     34  C35 MOL d          47.409  16.443   5.130  0.00  0.00    -0.082 A 
ATOM     35  H10 MOL d          48.601  14.843   4.238  0.00  0.00     0.084 H 
ATOM     36  C36 MOL d          46.139  17.112   5.092  0.00  0.00    -0.083 A 
ATOM     37  H11 MOL d          48.174  16.754   5.833  0.00  0.00     0.083 H 
ATOM     38  C37 MOL d          45.108  16.716   4.167  0.00  0.00    -0.082 A 
ATOM     39  H12 MOL d          45.951  17.933   5.775  0.00  0.00     0.083 H 
ATOM     40  C38 MOL d          45.354  15.629   3.260  0.00  0.00    -0.075 A 
ATOM     41  H13 MOL d          44.155  17.233   4.155  0.00  0.00     0.083 H 
ATOM     42  H14 MOL d          44.590  15.319   2.557  0.00  0.00     0.084 H 
ENDBRANCH  29  32
ENDBRANCH  27  29
ENDBRANCH   3  27
TORSDOF 8
ENDMDL
