MODEL 1
REMARK VINA RESULT:      -7.4      0.000      0.000
REMARK  7 active torsions:
REMARK  status: ('A' for Active; 'I' for Inactive)
REMARK    1  A    between atoms: CAB_1  and  N3_2 
REMARK    2  A    between atoms: N1_5  and  CAA_6 
REMARK    3  A    between atoms: N7_13  and  CAI_14 
REMARK    4  A    between atoms: CAI_14  and  CAO_15 
REMARK    5  A    between atoms: CAO_15  and  OAF_16 
REMARK    6  A    between atoms: CAO_15  and  CAH_17 
REMARK    7  A    between atoms: CAH_17  and  OAE_18 
ROOT
ATOM      1  N3  X0T d          35.028  45.777  22.077  0.00  0.00    -0.286 N 
ATOM      2  C2  X0T d          36.129  44.928  22.146  0.00  0.00     0.332 A 
ATOM      3  O2  X0T d          37.251  45.441  22.153  0.00  0.00    -0.246 OA
ATOM      4  N1  X0T d          35.955  43.514  22.192  0.00  0.00    -0.269 N 
ATOM      5  C6  X0T d          34.660  42.968  22.176  0.00  0.00     0.282 A 
ATOM      6  O6  X0T d          34.485  41.740  22.223  0.00  0.00    -0.265 OA
ATOM      7  C5  X0T d          33.565  43.842  22.108  0.00  0.00     0.151 A 
ATOM      8  C4  X0T d          33.738  45.224  22.060  0.00  0.00     0.167 A 
ATOM      9  N9  X0T d          32.528  45.795  22.012  0.00  0.00    -0.223 NA
ATOM     10  C8  X0T d          31.609  44.820  22.039  0.00  0.00     0.069 A 
ATOM     11  N7  X0T d          32.249  43.653  22.094  0.00  0.00    -0.331 N 
ATOM     12  H7  X0T d          30.529  44.957  22.018  0.00  0.00     0.143 H 
ENDROOT
BRANCH  11  13
ATOM     13  CAI X0T d          31.636  42.318  22.134  0.00  0.00     0.027 C 
ATOM     14  H8  X0T d          32.182  41.711  22.871  0.00  0.00     0.069 H 
ATOM     15  H9  X0T d          31.738  41.864  21.137  0.00  0.00     0.069 H 
BRANCH  13  16
ATOM     16  CAO X0T d          30.174  42.307  22.508  0.00  0.00     0.071 C 
ATOM     17  H10 X0T d          29.665  43.191  22.097  0.00  0.00     0.088 H 
BRANCH  16  18
ATOM     18  OAF X0T d          30.050  42.291  23.930  0.00  0.00    -0.392 OA
ATOM     19  H11 X0T d          29.608  43.081  24.217  0.00  0.00     0.210 HD
ENDBRANCH  16  18
BRANCH  16  20
ATOM     20  CAH X0T d          29.571  41.031  21.929  0.00  0.00     0.042 C 
ATOM     21  H12 X0T d          29.655  40.212  22.659  0.00  0.00     0.077 H 
ATOM     22  H13 X0T d          30.098  40.753  21.004  0.00  0.00     0.077 H 
BRANCH  20  23
ATOM     23  OAE X0T d          28.211  41.289  21.650  0.00  0.00    -0.398 OA
ATOM     24  H14 X0T d          28.112  42.193  21.376  0.00  0.00     0.209 HD
ENDBRANCH  20  23
ENDBRANCH  16  20
ENDBRANCH  13  16
ENDBRANCH  11  13
BRANCH   4  25
ATOM     25  CAA X0T d          37.138  42.623  22.283  0.00  0.00    -0.007 C 
ATOM     26  H4  X0T d          37.632  42.569  21.301  0.00  0.00     0.057 H 
ATOM     27  H5  X0T d          36.817  41.616  22.588  0.00  0.00     0.057 H 
ATOM     28  H6  X0T d          37.843  43.024  23.026  0.00  0.00     0.057 H 
ENDBRANCH   4  25
BRANCH   1  29
ATOM     29  CAB X0T d          35.209  47.264  22.012  0.00  0.00    -0.008 C 
ATOM     30  H1  X0T d          34.225  47.753  21.986  0.00  0.00     0.057 H 
ATOM     31  H2  X0T d          35.772  47.525  21.103  0.00  0.00     0.057 H 
ATOM     32  H3  X0T d          35.765  47.605  22.898  0.00  0.00     0.057 H 
ENDBRANCH   1  29
TORSDOF 7
ENDMDL
