MODEL 1
REMARK VINA RESULT:      -7.1      0.000      0.000
REMARK  4 active torsions:
REMARK  status: ('A' for Active; 'I' for Inactive)
REMARK    1  A    between atoms: C4_4  and  O18_18 
REMARK    2  A    between atoms: C8_8  and  C21_21 
REMARK    3  A    between atoms: N9_9  and  C10_10 
REMARK    4  A    between atoms: C11_11  and  C16_16 
ROOT
ATOM      1  C10 LGB d          54.372   2.320   3.684  0.00  0.00     0.068 A 
ATOM      2  C11 LGB d          53.094   2.591   4.220  0.00  0.00    -0.010 A 
ATOM      3  C12 LGB d          52.642   3.906   4.167  0.00  0.00     0.062 A 
ATOM      4  C13 LGB d          53.414   4.942   3.605  0.00  0.00     0.067 A 
ATOM      5  C14 LGB d          54.662   4.685   3.083  0.00  0.00    -0.059 A 
ATOM      6  C15 LGB d          55.139   3.373   3.124  0.00  0.00    -0.053 A 
ATOM      7 CL17 LGB d          51.112   4.266   4.800  0.00  0.00    -0.082 Cl
ATOM      8  C19 LGB d          52.978   6.280   3.543  0.00  0.00     0.101 C 
ATOM      9  N20 LGB d          52.514   7.323   3.551  0.00  0.00    -0.191 NA
ATOM     10  H8  LGB d          55.258   5.480   2.651  0.00  0.00     0.086 H 
ATOM     11  H9  LGB d          56.121   3.155   2.718  0.00  0.00     0.087 H 
ENDROOT
BRANCH   2  12
ATOM     12  C16 LGB d          52.259   1.487   4.823  0.00  0.00    -0.047 C 
ATOM     13  H10 LGB d          52.920   0.701   5.219  0.00  0.00     0.033 H 
ATOM     14  H11 LGB d          51.602   1.060   4.051  0.00  0.00     0.033 H 
ATOM     15  H12 LGB d          51.647   1.896   5.641  0.00  0.00     0.033 H 
ENDBRANCH   2  12
BRANCH   1  16
ATOM     16  N9  LGB d          54.822   1.041   3.730  0.00  0.00    -0.213 NA
ATOM     17  C6  LGB d          56.007   0.599   4.166  0.00  0.00     0.223 C 
ATOM     18  N2  LGB d          56.327  -0.767   4.338  0.00  0.00    -0.237 NA
ATOM     19  O7  LGB d          57.034   1.392   4.495  0.00  0.00    -0.309 OA
ATOM     20  C1  LGB d          55.845  -1.821   3.410  0.00  0.00    -0.010 C 
ATOM     21  C3  LGB d          57.790  -0.750   4.319  0.00  0.00     0.061 C 
ATOM     22  C5  LGB d          57.065  -2.511   2.798  0.00  0.00    -0.028 C 
ATOM     23  H1  LGB d          55.236  -1.367   2.614  0.00  0.00     0.056 H 
ATOM     24  H2  LGB d          55.240  -2.554   3.962  0.00  0.00     0.056 H 
ATOM     25  C4  LGB d          58.201  -1.449   3.005  0.00  0.00     0.055 C 
ATOM     26  H5  LGB d          56.907  -2.720   1.730  0.00  0.00     0.038 H 
ATOM     27  H6  LGB d          57.296  -3.448   3.325  0.00  0.00     0.038 H 
ATOM     28  H4  LGB d          58.227  -0.731   2.173  0.00  0.00     0.085 H 
ATOM     29  C8  LGB d          58.225   0.696   4.543  0.00  0.00     0.159 C 
ATOM     30  H3  LGB d          58.186  -1.347   5.154  0.00  0.00     0.073 H 
ATOM     31  H7  LGB d          58.960   1.028   3.795  0.00  0.00     0.101 H 
BRANCH  25  32
ATOM     32  O18 LGB d          59.450  -2.076   3.113  0.00  0.00    -0.394 OA
ATOM     33  H13 LGB d          59.461  -2.853   2.567  0.00  0.00     0.210 HD
ENDBRANCH  25  32
BRANCH  29  34
ATOM     34  C21 LGB d          58.728   0.904   5.959  0.00  0.00     0.415 C 
ATOM     35  F22 LGB d          57.678   1.120   6.741  0.00  0.00    -0.168 F 
ATOM     36  F23 LGB d          59.582   1.930   6.066  0.00  0.00    -0.168 F 
ATOM     37  F24 LGB d          59.359  -0.181   6.339  0.00  0.00    -0.168 F 
ENDBRANCH  29  34
ENDBRANCH   1  16
TORSDOF 4
ENDMDL
MODEL 2
REMARK VINA RESULT:      -7.0      1.301      1.877
REMARK  4 active torsions:
REMARK  status: ('A' for Active; 'I' for Inactive)
REMARK    1  A    between atoms: C4_4  and  O18_18 
REMARK    2  A    between atoms: C8_8  and  C21_21 
REMARK    3  A    between atoms: N9_9  and  C10_10 
REMARK    4  A    between atoms: C11_11  and  C16_16 
ROOT
ATOM      1  C10 LGB d          53.353   2.417   4.246  0.00  0.00     0.068 A 
ATOM      2  C11 LGB d          54.050   3.491   3.653  0.00  0.00    -0.010 A 
ATOM      3  C12 LGB d          53.476   4.756   3.742  0.00  0.00     0.062 A 
ATOM      4  C13 LGB d          52.247   4.977   4.394  0.00  0.00     0.067 A 
ATOM      5  C14 LGB d          51.561   3.933   4.973  0.00  0.00    -0.059 A 
ATOM      6  C15 LGB d          52.115   2.654   4.898  0.00  0.00    -0.053 A 
ATOM      7 CL17 LGB d          54.288   6.069   3.041  0.00  0.00    -0.082 Cl
ATOM      8  C19 LGB d          51.647   6.247   4.494  0.00  0.00     0.101 C 
ATOM      9  N20 LGB d          51.264   7.323   4.509  0.00  0.00    -0.191 NA
ATOM     10  H8  LGB d          50.616   4.100   5.475  0.00  0.00     0.086 H 
ATOM     11  H9  LGB d          51.586   1.821   5.348  0.00  0.00     0.087 H 
ENDROOT
BRANCH   2  12
ATOM     12  C16 LGB d          55.368   3.264   2.952  0.00  0.00    -0.047 C 
ATOM     13  H10 LGB d          55.599   4.131   2.314  0.00  0.00     0.033 H 
ATOM     14  H11 LGB d          55.303   2.359   2.331  0.00  0.00     0.033 H 
ATOM     15  H12 LGB d          56.165   3.139   3.701  0.00  0.00     0.033 H 
ENDBRANCH   2  12
BRANCH   1  16
ATOM     16  N9  LGB d          53.904   1.180   4.166  0.00  0.00    -0.213 NA
ATOM     17  C6  LGB d          55.148   0.809   4.488  0.00  0.00     0.223 C 
ATOM     18  N2  LGB d          55.586  -0.534   4.536  0.00  0.00    -0.237 NA
ATOM     19  O7  LGB d          56.132   1.660   4.805  0.00  0.00    -0.309 OA
ATOM     20  C1  LGB d          55.121  -1.558   3.566  0.00  0.00    -0.010 C 
ATOM     21  C3  LGB d          57.038  -0.395   4.419  0.00  0.00     0.061 C 
ATOM     22  C5  LGB d          56.343  -2.101   2.824  0.00  0.00    -0.028 C 
ATOM     23  H1  LGB d          54.422  -1.102   2.849  0.00  0.00     0.056 H 
ATOM     24  H2  LGB d          54.617  -2.376   4.101  0.00  0.00     0.056 H 
ATOM     25  C4  LGB d          57.405  -0.965   3.033  0.00  0.00     0.055 C 
ATOM     26  H5  LGB d          56.125  -2.248   1.756  0.00  0.00     0.038 H 
ATOM     27  H6  LGB d          56.685  -3.049   3.262  0.00  0.00     0.038 H 
ATOM     28  H4  LGB d          57.314  -0.191   2.257  0.00  0.00     0.085 H 
ATOM     29  C8  LGB d          57.374   1.064   4.721  0.00  0.00     0.159 C 
ATOM     30  H3  LGB d          57.539  -1.013   5.179  0.00  0.00     0.073 H 
ATOM     31  H7  LGB d          58.024   1.507   3.952  0.00  0.00     0.101 H 
BRANCH  25  32
ATOM     32  O18 LGB d          58.704  -1.492   3.010  0.00  0.00    -0.394 OA
ATOM     33  H13 LGB d          58.705  -2.347   3.424  0.00  0.00     0.210 HD
ENDBRANCH  25  32
BRANCH  29  34
ATOM     34  C21 LGB d          57.961   1.214   6.112  0.00  0.00     0.415 C 
ATOM     35  F22 LGB d          57.291   2.172   6.740  0.00  0.00    -0.168 F 
ATOM     36  F23 LGB d          59.266   1.519   6.099  0.00  0.00    -0.168 F 
ATOM     37  F24 LGB d          57.823   0.075   6.746  0.00  0.00    -0.168 F 
ENDBRANCH  29  34
ENDBRANCH   1  16
TORSDOF 4
ENDMDL
