MODEL 1
REMARK VINA RESULT:      -7.3      0.000      0.000
REMARK  4 active torsions:
REMARK  status: ('A' for Active; 'I' for Inactive)
REMARK    1  A    between atoms: CG_4  and  CD_1 
REMARK    2  A    between atoms: CA_8  and  C_5 
REMARK    3  A    between atoms: CA_8  and  N_9 
REMARK    4  A    between atoms: CA_8  and  CB_10 
ROOT
ATOM      1  CG  G8M d           6.317  27.273  20.656  0.00  0.00     0.036 C 
ATOM      2  CB  G8M d           7.628  27.164  19.836  0.00  0.00    -0.004 C 
ATOM      3  C6  G8M d           8.376  27.811  21.019  0.00  0.00    -0.058 C 
ATOM      4  C7  G8M d           7.026  28.282  21.587  0.00  0.00    -0.052 C 
ATOM      5  H1  G8M d           5.452  27.671  20.104  0.00  0.00     0.057 H 
ATOM      6  H6  G8M d           7.613  27.834  18.964  0.00  0.00     0.045 H 
ATOM      7  H7  G8M d           9.056  28.627  20.733  0.00  0.00     0.033 H 
ATOM      8  H8  G8M d           8.912  27.095  21.662  0.00  0.00     0.033 H 
ATOM      9  H9  G8M d           6.890  28.082  22.661  0.00  0.00     0.034 H 
ATOM     10  H10 G8M d           6.789  29.336  21.378  0.00  0.00     0.034 H 
ENDROOT
BRANCH   2  11
ATOM     11  CA  G8M d           8.063  25.777  19.285  0.00  0.00     0.186 C 
ATOM     12  H2  G8M d           7.681  25.014  19.980  0.00  0.00     0.102 H 
BRANCH  11  13
ATOM     13  C   G8M d           7.465  25.498  17.888  0.00  0.00     0.204 C 
ATOM     14  OXT G8M d           6.296  25.839  17.636  0.00  0.00    -0.646 OA
ATOM     15  O   G8M d           8.164  24.931  17.024  0.00  0.00    -0.646 OA
ENDBRANCH  11  13
BRANCH  11  16
ATOM     16  N   G8M d           9.533  25.630  19.207  0.00  0.00    -0.065 N 
ATOM     17  H3  G8M d           9.812  24.787  19.683  0.00  0.00     0.275 HD
ATOM     18  H4  G8M d           9.973  26.425  19.645  0.00  0.00     0.275 HD
ATOM     19  H5  G8M d           9.815  25.581  18.241  0.00  0.00     0.275 HD
ENDBRANCH  11  16
ENDBRANCH   2  11
BRANCH   1  20
ATOM     20  CD  G8M d           5.938  25.963  21.380  0.00  0.00     0.177 C 
ATOM     21  OE1 G8M d           5.202  25.142  20.789  0.00  0.00    -0.648 OA
ATOM     22  OE2 G8M d           6.378  25.734  22.529  0.00  0.00    -0.648 OA
ENDBRANCH   1  20
TORSDOF 4
ENDMDL
MODEL 2
REMARK VINA RESULT:      -5.5      2.151      2.801
REMARK  4 active torsions:
REMARK  status: ('A' for Active; 'I' for Inactive)
REMARK    1  A    between atoms: CG_4  and  CD_1 
REMARK    2  A    between atoms: CA_8  and  C_5 
REMARK    3  A    between atoms: CA_8  and  N_9 
REMARK    4  A    between atoms: CA_8  and  CB_10 
ROOT
ATOM      1  CG  G8M d           7.200  26.515  21.816  0.00  0.00     0.036 C 
ATOM      2  CB  G8M d           6.430  25.937  20.601  0.00  0.00    -0.004 C 
ATOM      3  C6  G8M d           5.112  26.250  21.337  0.00  0.00    -0.058 C 
ATOM      4  C7  G8M d           5.903  26.396  22.647  0.00  0.00    -0.052 C 
ATOM      5  H1  G8M d           8.042  25.902  22.170  0.00  0.00     0.057 H 
ATOM      6  H6  G8M d           6.583  24.851  20.508  0.00  0.00     0.045 H 
ATOM      7  H7  G8M d           4.386  25.423  21.336  0.00  0.00     0.033 H 
ATOM      8  H8  G8M d           4.615  27.173  21.002  0.00  0.00     0.033 H 
ATOM      9  H9  G8M d           5.654  27.296  23.230  0.00  0.00     0.034 H 
ATOM     10  H10 G8M d           5.863  25.513  23.303  0.00  0.00     0.034 H 
ENDROOT
BRANCH   2  11
ATOM     11  CA  G8M d           6.706  26.515  19.185  0.00  0.00     0.186 C 
ATOM     12  H2  G8M d           7.179  27.499  19.319  0.00  0.00     0.102 H 
BRANCH  11  13
ATOM     13  C   G8M d           7.674  25.623  18.375  0.00  0.00     0.204 C 
ATOM     14  OXT G8M d           8.869  25.545  18.708  0.00  0.00    -0.646 OA
ATOM     15  O   G8M d           7.243  24.988  17.392  0.00  0.00    -0.646 OA
ENDBRANCH  11  13
BRANCH  11  16
ATOM     16  N   G8M d           5.469  26.706  18.397  0.00  0.00    -0.065 N 
ATOM     17  H3  G8M d           5.115  25.809  18.105  0.00  0.00     0.275 HD
ATOM     18  H4  G8M d           5.671  27.268  17.585  0.00  0.00     0.275 HD
ATOM     19  H5  G8M d           4.777  27.172  18.964  0.00  0.00     0.275 HD
ENDBRANCH  11  16
ENDBRANCH   2  11
BRANCH   1  20
ATOM     20  CD  G8M d           7.644  27.980  21.616  0.00  0.00     0.177 C 
ATOM     21  OE1 G8M d           8.647  28.211  20.904  0.00  0.00    -0.648 OA
ATOM     22  OE2 G8M d           6.996  28.909  22.149  0.00  0.00    -0.648 OA
ENDBRANCH   1  20
TORSDOF 4
ENDMDL
MODEL 3
REMARK VINA RESULT:      -5.1      1.271      1.550
REMARK  4 active torsions:
REMARK  status: ('A' for Active; 'I' for Inactive)
REMARK    1  A    between atoms: CG_4  and  CD_1 
REMARK    2  A    between atoms: CA_8  and  C_5 
REMARK    3  A    between atoms: CA_8  and  N_9 
REMARK    4  A    between atoms: CA_8  and  CB_10 
ROOT
ATOM      1  CG  G8M d           6.872  27.723  21.035  0.00  0.00     0.036 C 
ATOM      2  CB  G8M d           7.492  27.193  19.717  0.00  0.00    -0.004 C 
ATOM      3  C6  G8M d           8.872  27.211  20.404  0.00  0.00    -0.058 C 
ATOM      4  C7  G8M d           8.291  28.121  21.499  0.00  0.00    -0.052 C 
ATOM      5  H1  G8M d           6.165  28.558  20.916  0.00  0.00     0.057 H 
ATOM      6  H6  G8M d           7.439  27.946  18.917  0.00  0.00     0.045 H 
ATOM      7  H7  G8M d           9.670  27.675  19.806  0.00  0.00     0.033 H 
ATOM      8  H8  G8M d           9.210  26.228  20.766  0.00  0.00     0.033 H 
ATOM      9  H9  G8M d           8.536  27.811  22.526  0.00  0.00     0.034 H 
ATOM     10  H10 G8M d           8.526  29.189  21.374  0.00  0.00     0.034 H 
ENDROOT
BRANCH   2  11
ATOM     11  CA  G8M d           6.934  25.884  19.090  0.00  0.00     0.186 C 
ATOM     12  H2  G8M d           5.900  26.088  18.773  0.00  0.00     0.102 H 
BRANCH  11  13
ATOM     13  C   G8M d           7.743  25.449  17.847  0.00  0.00     0.204 C 
ATOM     14  OXT G8M d           7.305  24.549  17.109  0.00  0.00    -0.646 OA
ATOM     15  O   G8M d           8.829  26.007  17.598  0.00  0.00    -0.646 OA
ENDBRANCH  11  13
BRANCH  11  16
ATOM     16  N   G8M d           6.904  24.760  20.052  0.00  0.00    -0.065 N 
ATOM     17  H3  G8M d           6.995  25.118  20.990  0.00  0.00     0.275 HD
ATOM     18  H4  G8M d           7.667  24.131  19.856  0.00  0.00     0.275 HD
ATOM     19  H5  G8M d           6.029  24.266  19.964  0.00  0.00     0.275 HD
ENDBRANCH  11  16
ENDBRANCH   2  11
BRANCH   1  20
ATOM     20  CD  G8M d           6.252  26.611  21.909  0.00  0.00     0.177 C 
ATOM     21  OE1 G8M d           7.006  25.937  22.646  0.00  0.00    -0.648 OA
ATOM     22  OE2 G8M d           5.017  26.409  21.881  0.00  0.00    -0.648 OA
ENDBRANCH   1  20
TORSDOF 4
ENDMDL
