MODEL 1
REMARK VINA RESULT:      -9.7      0.000      0.000
REMARK  8 active torsions:
REMARK  status: ('A' for Active; 'I' for Inactive)
REMARK       I    between atoms: C25_25  and  N1_1 
REMARK    1  A    between atoms: C3_3  and  N5_5 
REMARK       I    between atoms: N5_5  and  C6_6 
REMARK    2  A    between atoms: C6_6  and  C7_7 
REMARK    3  A    between atoms: C24_24  and  N17_17 
REMARK    4  A    between atoms: N20_20  and  C23_23 
REMARK    5  A    between atoms: C20_32  and  C25_25 
REMARK    6  A    between atoms: C29_29  and  C20_32 
REMARK    7  A    between atoms: C20_32  and  O34_35 
REMARK    8  A    between atoms: O34_35  and  C36_34 
ROOT
ATOM      1  N1  MOL d         -41.409 -46.251 -10.039  0.00  0.00    -0.340 N 
ATOM      2  N2  MOL d         -38.959 -47.483 -12.405  0.00  0.00    -0.278 N 
ATOM      3  C3  MOL d         -40.449 -49.121 -12.124  0.00  0.00     0.160 A 
ATOM      4  N4  MOL d         -39.292 -48.822 -12.743  0.00  0.00    -0.156 NA
ATOM      5  C13 MOL d         -39.936 -47.022 -11.598  0.00  0.00     0.057 A 
ATOM      6  C14 MOL d         -40.906 -48.050 -11.382  0.00  0.00     0.033 A 
ATOM      7  C15 MOL d         -41.978 -47.575 -10.452  0.00  0.00     0.027 C 
ATOM      8  C16 MOL d         -40.255 -45.782 -10.836  0.00  0.00     0.038 C 
ATOM      9  C25 MOL d         -41.871 -45.496  -9.031  0.00  0.00     0.254 C 
ATOM     10  O26 MOL d         -41.365 -44.415  -8.736  0.00  0.00    -0.270 OA
ATOM     11  H1  MOL d         -38.127 -46.962 -12.719  0.00  0.00     0.189 HD
ATOM     12  H7  MOL d         -42.943 -47.461 -10.967  0.00  0.00     0.072 H 
ATOM     13  H8  MOL d         -42.100 -48.251  -9.593  0.00  0.00     0.072 H 
ATOM     14  H9  MOL d         -39.417 -45.472 -10.195  0.00  0.00     0.074 H 
ATOM     15  H10 MOL d         -40.531 -44.954 -11.505  0.00  0.00     0.074 H 
ENDROOT
BRANCH   3  16
ATOM     16  N5  MOL d         -40.991 -50.379 -12.271  0.00  0.00    -0.305 N 
ATOM     17  C6  MOL d         -42.279 -50.672 -12.332  0.00  0.00     0.257 C 
ATOM     18  O8  MOL d         -43.174 -49.847 -12.294  0.00  0.00    -0.267 OA
ATOM     19  H2  MOL d         -40.349 -51.143 -12.338  0.00  0.00     0.170 HD
BRANCH  17  20
ATOM     20  C7  MOL d         -42.649 -52.097 -12.474  0.00  0.00     0.032 A 
ATOM     21  C9  MOL d         -43.634 -52.586 -11.629  0.00  0.00    -0.066 A 
ATOM     22  C10 MOL d         -44.046 -53.900 -11.707  0.00  0.00    -0.056 A 
ATOM     23  H3  MOL d         -44.087 -51.927 -10.898  0.00  0.00     0.085 H 
ATOM     24  C24 MOL d         -43.447 -54.721 -12.637  0.00  0.00     0.030 A 
ATOM     25  H4  MOL d         -44.823 -54.278 -11.051  0.00  0.00     0.086 H 
ATOM     26  C11 MOL d         -42.442 -54.226 -13.489  0.00  0.00    -0.056 A 
ATOM     27  C12 MOL d         -42.036 -52.906 -13.419  0.00  0.00    -0.066 A 
ATOM     28  H5  MOL d         -41.980 -54.890 -14.210  0.00  0.00     0.086 H 
ATOM     29  H6  MOL d         -41.268 -52.518 -14.079  0.00  0.00     0.085 H 
BRANCH  24  30
ATOM     30  N17 MOL d         -43.866 -56.060 -12.720  0.00  0.00    -0.378 N 
ATOM     31  C18 MOL d         -44.822 -56.518 -12.012  0.00  0.00     0.018 C 
ATOM     32  C19 MOL d         -44.628 -57.694 -11.396  0.00  0.00     0.098 C 
ATOM     33  H11 MOL d         -45.695 -56.632 -12.672  0.00  0.00     0.066 H 
ATOM     34  H12 MOL d         -45.044 -55.771 -11.235  0.00  0.00     0.066 H 
ATOM     35  N20 MOL d         -43.624 -58.623 -11.850  0.00  0.00    -0.072 N 
ATOM     36  H13 MOL d         -45.588 -58.228 -11.438  0.00  0.00     0.078 H 
ATOM     37  H14 MOL d         -44.384 -57.459 -10.350  0.00  0.00     0.078 H 
ATOM     38  C21 MOL d         -42.569 -57.992 -12.691  0.00  0.00     0.098 C 
ATOM     39  H15 MOL d         -44.089 -59.324 -12.404  0.00  0.00     0.279 HD
ATOM     40  C22 MOL d         -43.166 -56.959 -13.644  0.00  0.00     0.018 C 
ATOM     41  H16 MOL d         -42.065 -58.773 -13.279  0.00  0.00     0.078 H 
ATOM     42  H17 MOL d         -41.837 -57.496 -12.036  0.00  0.00     0.078 H 
ATOM     43  H18 MOL d         -42.381 -56.427 -14.200  0.00  0.00     0.066 H 
ATOM     44  H19 MOL d         -43.865 -57.427 -14.352  0.00  0.00     0.066 H 
BRANCH  35  45
ATOM     45  C23 MOL d         -42.960 -59.286 -10.710  0.00  0.00     0.066 C 
ATOM     46  H20 MOL d         -43.709 -59.830 -10.116  0.00  0.00     0.068 H 
ATOM     47  H21 MOL d         -42.471 -58.529 -10.080  0.00  0.00     0.068 H 
ATOM     48  H22 MOL d         -42.206 -59.993 -11.087  0.00  0.00     0.068 H 
ENDBRANCH  35  45
ENDBRANCH  24  30
ENDBRANCH  17  20
ENDBRANCH   3  16
BRANCH   9  49
ATOM     49  C20 MOL d         -43.033 -45.997  -8.230  0.00  0.00     0.140 C 
ATOM     50  H27 MOL d         -43.828 -46.344  -8.906  0.00  0.00     0.106 H 
BRANCH  49  51
ATOM     51  C29 MOL d         -42.557 -47.153  -7.410  0.00  0.00    -0.020 A 
ATOM     52  C27 MOL d         -43.302 -48.356  -7.398  0.00  0.00    -0.074 A 
ATOM     53  C28 MOL d         -42.851 -49.451  -6.662  0.00  0.00    -0.082 A 
ATOM     54  H23 MOL d         -44.224 -48.427  -7.964  0.00  0.00     0.084 H 
ATOM     55  C31 MOL d         -41.656 -49.330  -5.923  0.00  0.00    -0.083 A 
ATOM     56  H24 MOL d         -43.410 -50.379  -6.656  0.00  0.00     0.083 H 
ATOM     57  C35 MOL d         -40.919 -48.142  -5.924  0.00  0.00    -0.082 A 
ATOM     58  H25 MOL d         -41.303 -50.175  -5.344  0.00  0.00     0.083 H 
ATOM     59  C33 MOL d         -41.370 -47.054  -6.654  0.00  0.00    -0.074 A 
ATOM     60  H28 MOL d         -39.998 -48.072  -5.355  0.00  0.00     0.083 H 
ATOM     61  H26 MOL d         -40.809 -46.126  -6.646  0.00  0.00     0.084 H 
ENDBRANCH  49  51
BRANCH  49  62
ATOM     62  O34 MOL d         -43.542 -44.917  -7.444  0.00  0.00    -0.377 OA
BRANCH  62  63
ATOM     63  C36 MOL d         -44.906 -45.086  -7.010  0.00  0.00     0.005 C 
ATOM     64  H29 MOL d         -45.124 -44.375  -6.200  0.00  0.00     0.066 H 
ATOM     65  H30 MOL d         -45.049 -46.114  -6.643  0.00  0.00     0.066 H 
ATOM     66  H31 MOL d         -45.586 -44.900  -7.854  0.00  0.00     0.066 H 
ENDBRANCH  62  63
ENDBRANCH  49  62
ENDBRANCH   9  49
TORSDOF 8
ENDMDL
MODEL 2
REMARK VINA RESULT:      -9.0      1.364      1.627
REMARK  8 active torsions:
REMARK  status: ('A' for Active; 'I' for Inactive)
REMARK       I    between atoms: C25_25  and  N1_1 
REMARK    1  A    between atoms: C3_3  and  N5_5 
REMARK       I    between atoms: N5_5  and  C6_6 
REMARK    2  A    between atoms: C6_6  and  C7_7 
REMARK    3  A    between atoms: C24_24  and  N17_17 
REMARK    4  A    between atoms: N20_20  and  C23_23 
REMARK    5  A    between atoms: C20_32  and  C25_25 
REMARK    6  A    between atoms: C29_29  and  C20_32 
REMARK    7  A    between atoms: C20_32  and  O34_35 
REMARK    8  A    between atoms: O34_35  and  C36_34 
ROOT
ATOM      1  N1  MOL d         -41.432 -46.356 -10.260  0.00  0.00    -0.340 N 
ATOM      2  N2  MOL d         -39.103 -47.844 -12.600  0.00  0.00    -0.278 N 
ATOM      3  C3  MOL d         -40.901 -49.167 -12.565  0.00  0.00     0.160 A 
ATOM      4  N4  MOL d         -39.666 -49.055 -13.087  0.00  0.00    -0.156 NA
ATOM      5  C13 MOL d         -40.028 -47.269 -11.805  0.00  0.00     0.057 A 
ATOM      6  C14 MOL d         -41.194 -48.095 -11.746  0.00  0.00     0.033 A 
ATOM      7  C15 MOL d         -42.218 -47.497 -10.833  0.00  0.00     0.027 C 
ATOM      8  C16 MOL d         -40.154 -46.061 -10.942  0.00  0.00     0.038 C 
ATOM      9  C25 MOL d         -41.811 -45.614  -9.208  0.00  0.00     0.254 C 
ATOM     10  O26 MOL d         -41.127 -44.686  -8.779  0.00  0.00    -0.270 OA
ATOM     11  H1  MOL d         -38.166 -47.476 -12.814  0.00  0.00     0.189 HD
ATOM     12  H7  MOL d         -43.101 -47.146 -11.386  0.00  0.00     0.072 H 
ATOM     13  H8  MOL d         -42.532 -48.207 -10.054  0.00  0.00     0.072 H 
ATOM     14  H9  MOL d         -39.321 -45.983 -10.228  0.00  0.00     0.074 H 
ATOM     15  H10 MOL d         -40.214 -45.140 -11.538  0.00  0.00     0.074 H 
ENDROOT
BRANCH   3  16
ATOM     16  N5  MOL d         -41.666 -50.273 -12.867  0.00  0.00    -0.305 N 
ATOM     17  C6  MOL d         -41.681 -51.416 -12.201  0.00  0.00     0.257 C 
ATOM     18  O8  MOL d         -41.030 -51.635 -11.196  0.00  0.00    -0.267 OA
ATOM     19  H2  MOL d         -42.265 -50.205 -13.664  0.00  0.00     0.170 HD
BRANCH  17  20
ATOM     20  C7  MOL d         -42.565 -52.489 -12.707  0.00  0.00     0.032 A 
ATOM     21  C9  MOL d         -42.016 -53.398 -13.599  0.00  0.00    -0.066 A 
ATOM     22  C10 MOL d         -42.770 -54.435 -14.107  0.00  0.00    -0.056 A 
ATOM     23  H3  MOL d         -40.981 -53.292 -13.900  0.00  0.00     0.085 H 
ATOM     24  C24 MOL d         -44.086 -54.542 -13.716  0.00  0.00     0.030 A 
ATOM     25  H4  MOL d         -42.336 -55.150 -14.797  0.00  0.00     0.086 H 
ATOM     26  C11 MOL d         -44.646 -53.614 -12.817  0.00  0.00    -0.056 A 
ATOM     27  C12 MOL d         -43.888 -52.580 -12.299  0.00  0.00    -0.066 A 
ATOM     28  H5  MOL d         -45.685 -53.712 -12.527  0.00  0.00     0.086 H 
ATOM     29  H6  MOL d         -44.311 -51.868 -11.600  0.00  0.00     0.085 H 
BRANCH  24  30
ATOM     30  N17 MOL d         -44.857 -55.599 -14.230  0.00  0.00    -0.378 N 
ATOM     31  C18 MOL d         -46.079 -55.767 -13.909  0.00  0.00     0.018 C 
ATOM     32  C19 MOL d         -46.468 -57.007 -13.579  0.00  0.00     0.098 C 
ATOM     33  H11 MOL d         -46.691 -55.447 -14.766  0.00  0.00     0.066 H 
ATOM     34  H12 MOL d         -46.286 -55.115 -13.047  0.00  0.00     0.066 H 
ATOM     35  N20 MOL d         -45.719 -58.166 -13.996  0.00  0.00    -0.072 N 
ATOM     36  H13 MOL d         -47.484 -57.132 -13.982  0.00  0.00     0.078 H 
ATOM     37  H14 MOL d         -46.503 -57.039 -12.480  0.00  0.00     0.078 H 
ATOM     38  C21 MOL d         -44.312 -57.857 -14.374  0.00  0.00     0.098 C 
ATOM     39  H15 MOL d         -46.183 -58.552 -14.803  0.00  0.00     0.279 HD
ATOM     40  C22 MOL d         -44.224 -56.546 -15.153  0.00  0.00     0.018 C 
ATOM     41  H16 MOL d         -43.922 -58.673 -15.001  0.00  0.00     0.078 H 
ATOM     42  H17 MOL d         -43.705 -57.774 -13.461  0.00  0.00     0.078 H 
ATOM     43  H18 MOL d         -43.179 -56.271 -15.354  0.00  0.00     0.066 H 
ATOM     44  H19 MOL d         -44.776 -56.609 -16.102  0.00  0.00     0.066 H 
BRANCH  35  45
ATOM     45  C23 MOL d         -45.690 -59.190 -12.934  0.00  0.00     0.066 C 
ATOM     46  H20 MOL d         -45.026 -60.013 -13.237  0.00  0.00     0.068 H 
ATOM     47  H21 MOL d         -46.705 -59.580 -12.772  0.00  0.00     0.068 H 
ATOM     48  H22 MOL d         -45.316 -58.741 -12.002  0.00  0.00     0.068 H 
ENDBRANCH  35  45
ENDBRANCH  24  30
ENDBRANCH  17  20
ENDBRANCH   3  16
BRANCH   9  49
ATOM     49  C20 MOL d         -43.105 -45.938  -8.526  0.00  0.00     0.140 C 
ATOM     50  H27 MOL d         -43.892 -46.095  -9.277  0.00  0.00     0.106 H 
BRANCH  49  51
ATOM     51  C29 MOL d         -42.910 -47.207  -7.759  0.00  0.00    -0.020 A 
ATOM     52  C27 MOL d         -43.837 -48.266  -7.910  0.00  0.00    -0.074 A 
ATOM     53  C28 MOL d         -43.648 -49.464  -7.224  0.00  0.00    -0.082 A 
ATOM     54  H23 MOL d         -44.695 -48.144  -8.561  0.00  0.00     0.084 H 
ATOM     55  C31 MOL d         -42.532 -49.594  -6.373  0.00  0.00    -0.083 A 
ATOM     56  H24 MOL d         -44.348 -50.283  -7.343  0.00  0.00     0.083 H 
ATOM     57  C35 MOL d         -41.615 -48.550  -6.212  0.00  0.00    -0.082 A 
ATOM     58  H25 MOL d         -42.382 -50.521  -5.832  0.00  0.00     0.083 H 
ATOM     59  C33 MOL d         -41.806 -47.359  -6.893  0.00  0.00    -0.074 A 
ATOM     60  H28 MOL d         -40.759 -48.673  -5.559  0.00  0.00     0.083 H 
ATOM     61  H26 MOL d         -41.106 -46.541  -6.760  0.00  0.00     0.084 H 
ENDBRANCH  49  51
BRANCH  49  62
ATOM     62  O34 MOL d         -43.473 -44.830  -7.701  0.00  0.00    -0.377 OA
BRANCH  62  63
ATOM     63  C36 MOL d         -44.734 -44.987  -7.022  0.00  0.00     0.005 C 
ATOM     64  H29 MOL d         -45.532 -45.152  -7.761  0.00  0.00     0.066 H 
ATOM     65  H30 MOL d         -44.955 -44.078  -6.442  0.00  0.00     0.066 H 
ATOM     66  H31 MOL d         -44.681 -45.851  -6.342  0.00  0.00     0.066 H 
ENDBRANCH  62  63
ENDBRANCH  49  62
ENDBRANCH   9  49
TORSDOF 8
ENDMDL
MODEL 3
REMARK VINA RESULT:      -7.1      1.155      2.394
REMARK  8 active torsions:
REMARK  status: ('A' for Active; 'I' for Inactive)
REMARK       I    between atoms: C25_25  and  N1_1 
REMARK    1  A    between atoms: C3_3  and  N5_5 
REMARK       I    between atoms: N5_5  and  C6_6 
REMARK    2  A    between atoms: C6_6  and  C7_7 
REMARK    3  A    between atoms: C24_24  and  N17_17 
REMARK    4  A    between atoms: N20_20  and  C23_23 
REMARK    5  A    between atoms: C20_32  and  C25_25 
REMARK    6  A    between atoms: C29_29  and  C20_32 
REMARK    7  A    between atoms: C20_32  and  O34_35 
REMARK    8  A    between atoms: O34_35  and  C36_34 
ROOT
ATOM      1  N1  MOL d         -41.177 -46.987 -10.096  0.00  0.00    -0.340 N 
ATOM      2  N2  MOL d         -39.329 -48.024 -13.033  0.00  0.00    -0.278 N 
ATOM      3  C3  MOL d         -40.664 -49.728 -12.488  0.00  0.00     0.160 A 
ATOM      4  N4  MOL d         -39.697 -49.360 -13.348  0.00  0.00    -0.156 NA
ATOM      5  C13 MOL d         -40.097 -47.636 -11.996  0.00  0.00     0.057 A 
ATOM      6  C14 MOL d         -40.960 -48.707 -11.607  0.00  0.00     0.033 A 
ATOM      7  C15 MOL d         -41.792 -48.314 -10.427  0.00  0.00     0.027 C 
ATOM      8  C16 MOL d         -40.260 -46.442 -11.120  0.00  0.00     0.038 C 
ATOM      9  C25 MOL d         -41.406 -46.293  -8.970  0.00  0.00     0.254 C 
ATOM     10  O26 MOL d         -40.874 -45.206  -8.751  0.00  0.00    -0.270 OA
ATOM     11  H1  MOL d         -38.611 -47.459 -13.508  0.00  0.00     0.189 HD
ATOM     12  H7  MOL d         -42.855 -48.215 -10.693  0.00  0.00     0.072 H 
ATOM     13  H8  MOL d         -41.687 -49.029  -9.598  0.00  0.00     0.072 H 
ATOM     14  H9  MOL d         -39.302 -46.126 -10.680  0.00  0.00     0.074 H 
ATOM     15  H10 MOL d         -40.710 -45.598 -11.661  0.00  0.00     0.074 H 
ENDROOT
BRANCH   3  16
ATOM     16  N5  MOL d         -41.190 -51.000 -12.565  0.00  0.00    -0.305 N 
ATOM     17  C6  MOL d         -42.473 -51.317 -12.513  0.00  0.00     0.257 C 
ATOM     18  O8  MOL d         -43.378 -50.509 -12.417  0.00  0.00    -0.267 OA
ATOM     19  H2  MOL d         -40.541 -51.753 -12.671  0.00  0.00     0.170 HD
BRANCH  17  20
ATOM     20  C7  MOL d         -42.825 -52.752 -12.596  0.00  0.00     0.032 A 
ATOM     21  C9  MOL d         -43.864 -53.200 -11.795  0.00  0.00    -0.066 A 
ATOM     22  C10 MOL d         -44.262 -54.520 -11.823  0.00  0.00    -0.056 A 
ATOM     23  H3  MOL d         -44.370 -52.503 -11.138  0.00  0.00     0.085 H 
ATOM     24  C24 MOL d         -43.595 -55.388 -12.659  0.00  0.00     0.030 A 
ATOM     25  H4  MOL d         -45.081 -54.866 -11.203  0.00  0.00     0.086 H 
ATOM     26  C11 MOL d         -42.535 -54.935 -13.467  0.00  0.00    -0.056 A 
ATOM     27  C12 MOL d         -42.142 -53.609 -13.447  0.00  0.00    -0.066 A 
ATOM     28  H5  MOL d         -42.019 -55.635 -14.113  0.00  0.00     0.086 H 
ATOM     29  H6  MOL d         -41.332 -53.253 -14.072  0.00  0.00     0.085 H 
BRANCH  24  30
ATOM     30  N17 MOL d         -44.000 -56.733 -12.692  0.00  0.00    -0.378 N 
ATOM     31  C18 MOL d         -45.228 -57.073 -12.729  0.00  0.00     0.018 C 
ATOM     32  C19 MOL d         -45.628 -58.044 -11.895  0.00  0.00     0.098 C 
ATOM     33  H11 MOL d         -45.446 -57.407 -13.754  0.00  0.00     0.066 H 
ATOM     34  H12 MOL d         -45.825 -56.176 -12.502  0.00  0.00     0.066 H 
ATOM     35  N20 MOL d         -44.691 -58.981 -11.329  0.00  0.00    -0.072 N 
ATOM     36  H13 MOL d         -46.369 -58.641 -12.447  0.00  0.00     0.078 H 
ATOM     37  H14 MOL d         -46.118 -57.543 -11.048  0.00  0.00     0.078 H 
ATOM     38  C21 MOL d         -43.281 -58.500 -11.358  0.00  0.00     0.098 C 
ATOM     39  H15 MOL d         -44.744 -59.829 -11.871  0.00  0.00     0.279 HD
ATOM     40  C22 MOL d         -42.971 -57.778 -12.668  0.00  0.00     0.018 C 
ATOM     41  H16 MOL d         -42.606 -59.363 -11.256  0.00  0.00     0.078 H 
ATOM     42  H17 MOL d         -43.121 -57.807 -10.519  0.00  0.00     0.078 H 
ATOM     43  H18 MOL d         -41.961 -57.343 -12.655  0.00  0.00     0.066 H 
ATOM     44  H19 MOL d         -43.068 -58.455 -13.529  0.00  0.00     0.066 H 
BRANCH  35  45
ATOM     45  C23 MOL d         -45.034 -59.295  -9.928  0.00  0.00     0.066 C 
ATOM     46  H20 MOL d         -44.210 -58.984  -9.270  0.00  0.00     0.068 H 
ATOM     47  H21 MOL d         -45.197 -60.377  -9.825  0.00  0.00     0.068 H 
ATOM     48  H22 MOL d         -45.952 -58.758  -9.647  0.00  0.00     0.068 H 
ENDBRANCH  35  45
ENDBRANCH  24  30
ENDBRANCH  17  20
ENDBRANCH   3  16
BRANCH   9  49
ATOM     49  C20 MOL d         -42.330 -46.871  -7.943  0.00  0.00     0.140 C 
ATOM     50  H27 MOL d         -41.874 -46.789  -6.945  0.00  0.00     0.106 H 
BRANCH  49  51
ATOM     51  C29 MOL d         -43.593 -46.071  -7.964  0.00  0.00    -0.020 A 
ATOM     52  C27 MOL d         -44.017 -45.402  -6.792  0.00  0.00    -0.074 A 
ATOM     53  C28 MOL d         -45.176 -44.628  -6.808  0.00  0.00    -0.082 A 
ATOM     54  H23 MOL d         -43.439 -45.491  -5.879  0.00  0.00     0.084 H 
ATOM     55  C31 MOL d         -45.919 -44.538  -8.003  0.00  0.00    -0.083 A 
ATOM     56  H24 MOL d         -45.502 -44.104  -5.917  0.00  0.00     0.083 H 
ATOM     57  C35 MOL d         -45.510 -45.203  -9.164  0.00  0.00    -0.082 A 
ATOM     58  H25 MOL d         -46.824 -43.943  -8.022  0.00  0.00     0.083 H 
ATOM     59  C33 MOL d         -44.359 -45.974  -9.145  0.00  0.00    -0.074 A 
ATOM     60  H28 MOL d         -46.092 -45.115 -10.075  0.00  0.00     0.083 H 
ATOM     61  H26 MOL d         -44.047 -46.502 -10.038  0.00  0.00     0.084 H 
ENDBRANCH  49  51
BRANCH  49  62
ATOM     62  O34 MOL d         -42.531 -48.255  -8.241  0.00  0.00    -0.377 OA
BRANCH  62  63
ATOM     63  C36 MOL d         -43.035 -49.035  -7.139  0.00  0.00     0.005 C 
ATOM     64  H29 MOL d         -43.826 -49.709  -7.498  0.00  0.00     0.066 H 
ATOM     65  H30 MOL d         -43.446 -48.363  -6.371  0.00  0.00     0.066 H 
ATOM     66  H31 MOL d         -42.216 -49.628  -6.705  0.00  0.00     0.066 H 
ENDBRANCH  62  63
ENDBRANCH  49  62
ENDBRANCH   9  49
TORSDOF 8
ENDMDL
MODEL 4
REMARK VINA RESULT:      -6.9      1.125      2.434
REMARK  8 active torsions:
REMARK  status: ('A' for Active; 'I' for Inactive)
REMARK       I    between atoms: C25_25  and  N1_1 
REMARK    1  A    between atoms: C3_3  and  N5_5 
REMARK       I    between atoms: N5_5  and  C6_6 
REMARK    2  A    between atoms: C6_6  and  C7_7 
REMARK    3  A    between atoms: C24_24  and  N17_17 
REMARK    4  A    between atoms: N20_20  and  C23_23 
REMARK    5  A    between atoms: C20_32  and  C25_25 
REMARK    6  A    between atoms: C29_29  and  C20_32 
REMARK    7  A    between atoms: C20_32  and  O34_35 
REMARK    8  A    between atoms: O34_35  and  C36_34 
ROOT
ATOM      1  N1  MOL d         -41.133 -45.876  -9.324  0.00  0.00    -0.340 N 
ATOM      2  N2  MOL d         -39.173 -46.729 -12.248  0.00  0.00    -0.278 N 
ATOM      3  C3  MOL d         -40.534 -48.458 -11.868  0.00  0.00     0.160 A 
ATOM      4  N4  MOL d         -39.532 -48.040 -12.663  0.00  0.00    -0.156 NA
ATOM      5  C13 MOL d         -39.981 -46.405 -11.218  0.00  0.00     0.057 A 
ATOM      6  C14 MOL d         -40.862 -47.495 -10.935  0.00  0.00     0.033 A 
ATOM      7  C15 MOL d         -41.739 -47.174  -9.765  0.00  0.00     0.027 C 
ATOM      8  C16 MOL d         -40.174 -45.270 -10.273  0.00  0.00     0.038 C 
ATOM      9  C25 MOL d         -41.405 -45.255  -8.166  0.00  0.00     0.254 C 
ATOM     10  O26 MOL d         -40.879 -44.188  -7.855  0.00  0.00    -0.270 OA
ATOM     11  H1  MOL d         -38.435 -46.139 -12.656  0.00  0.00     0.189 HD
ATOM     12  H7  MOL d         -42.790 -47.052 -10.066  0.00  0.00     0.072 H 
ATOM     13  H8  MOL d         -41.669 -47.943  -8.981  0.00  0.00     0.072 H 
ATOM     14  H9  MOL d         -39.234 -44.989  -9.777  0.00  0.00     0.074 H 
ATOM     15  H10 MOL d         -40.600 -44.390 -10.776  0.00  0.00     0.074 H 
ENDROOT
BRANCH   3  16
ATOM     16  N5  MOL d         -41.061 -49.719 -12.049  0.00  0.00    -0.305 N 
ATOM     17  C6  MOL d         -42.345 -50.020 -12.153  0.00  0.00     0.257 C 
ATOM     18  O8  MOL d         -43.246 -49.203 -12.133  0.00  0.00    -0.267 OA
ATOM     19  H2  MOL d         -40.411 -50.477 -12.106  0.00  0.00     0.170 HD
BRANCH  17  20
ATOM     20  C7  MOL d         -42.699 -51.446 -12.325  0.00  0.00     0.032 A 
ATOM     21  C9  MOL d         -43.731 -51.944 -11.545  0.00  0.00    -0.066 A 
ATOM     22  C10 MOL d         -44.132 -53.259 -11.655  0.00  0.00    -0.056 A 
ATOM     23  H3  MOL d         -44.231 -51.290 -10.840  0.00  0.00     0.085 H 
ATOM     24  C24 MOL d         -43.474 -54.072 -12.551  0.00  0.00     0.030 A 
ATOM     25  H4  MOL d         -44.945 -53.644 -11.050  0.00  0.00     0.086 H 
ATOM     26  C11 MOL d         -42.420 -53.568 -13.338  0.00  0.00    -0.056 A 
ATOM     27  C12 MOL d         -42.026 -52.247 -13.236  0.00  0.00    -0.066 A 
ATOM     28  H5  MOL d         -41.912 -54.226 -14.033  0.00  0.00     0.086 H 
ATOM     29  H6  MOL d         -41.220 -51.852 -13.845  0.00  0.00     0.085 H 
BRANCH  24  30
ATOM     30  N17 MOL d         -43.880 -55.412 -12.668  0.00  0.00    -0.378 N 
ATOM     31  C18 MOL d         -44.028 -56.168 -11.651  0.00  0.00     0.018 C 
ATOM     32  C19 MOL d         -43.499 -57.399 -11.712  0.00  0.00     0.098 C 
ATOM     33  H11 MOL d         -45.109 -56.282 -11.481  0.00  0.00     0.066 H 
ATOM     34  H12 MOL d         -43.574 -55.655 -10.791  0.00  0.00     0.066 H 
ATOM     35  N20 MOL d         -43.195 -58.024 -12.975  0.00  0.00    -0.072 N 
ATOM     36  H13 MOL d         -44.204 -58.066 -11.196  0.00  0.00     0.078 H 
ATOM     37  H14 MOL d         -42.554 -57.358 -11.151  0.00  0.00     0.078 H 
ATOM     38  C21 MOL d         -43.070 -57.057 -14.101  0.00  0.00     0.098 C 
ATOM     39  H15 MOL d         -43.950 -58.658 -13.188  0.00  0.00     0.279 HD
ATOM     40  C22 MOL d         -44.127 -55.959 -14.006  0.00  0.00     0.018 C 
ATOM     41  H16 MOL d         -43.197 -57.596 -15.052  0.00  0.00     0.078 H 
ATOM     42  H17 MOL d         -42.070 -56.598 -14.069  0.00  0.00     0.078 H 
ATOM     43  H18 MOL d         -43.979 -55.194 -14.782  0.00  0.00     0.066 H 
ATOM     44  H19 MOL d         -45.142 -56.374 -14.088  0.00  0.00     0.066 H 
BRANCH  35  45
ATOM     45  C23 MOL d         -41.940 -58.796 -12.897  0.00  0.00     0.066 C 
ATOM     46  H20 MOL d         -41.445 -58.596 -11.935  0.00  0.00     0.068 H 
ATOM     47  H21 MOL d         -41.274 -58.498 -13.720  0.00  0.00     0.068 H 
ATOM     48  H22 MOL d         -42.164 -59.870 -12.978  0.00  0.00     0.068 H 
ENDBRANCH  35  45
ENDBRANCH  24  30
ENDBRANCH  17  20
ENDBRANCH   3  16
BRANCH   9  49
ATOM     49  C20 MOL d         -42.370 -45.893  -7.216  0.00  0.00     0.140 C 
ATOM     50  H27 MOL d         -42.110 -45.621  -6.182  0.00  0.00     0.106 H 
BRANCH  49  51
ATOM     51  C29 MOL d         -43.734 -45.362  -7.526  0.00  0.00    -0.020 A 
ATOM     52  C27 MOL d         -44.312 -45.616  -8.792  0.00  0.00    -0.074 A 
ATOM     53  C28 MOL d         -45.594 -45.152  -9.082  0.00  0.00    -0.082 A 
ATOM     54  H23 MOL d         -43.756 -46.172  -9.539  0.00  0.00     0.084 H 
ATOM     55  C31 MOL d         -46.291 -44.420  -8.100  0.00  0.00    -0.083 A 
ATOM     56  H24 MOL d         -46.048 -45.351 -10.046  0.00  0.00     0.083 H 
ATOM     57  C35 MOL d         -45.724 -44.159  -6.848  0.00  0.00    -0.082 A 
ATOM     58  H25 MOL d         -47.287 -44.051  -8.319  0.00  0.00     0.083 H 
ATOM     59  C33 MOL d         -44.448 -44.618  -6.564  0.00  0.00    -0.074 A 
ATOM     60  H28 MOL d         -46.281 -43.600  -6.104  0.00  0.00     0.083 H 
ATOM     61  H26 MOL d         -43.999 -44.406  -5.600  0.00  0.00     0.084 H 
ENDBRANCH  49  51
BRANCH  49  62
ATOM     62  O34 MOL d         -42.271 -47.312  -7.353  0.00  0.00    -0.377 OA
BRANCH  62  63
ATOM     63  C36 MOL d         -41.718 -47.985  -6.205  0.00  0.00     0.005 C 
ATOM     64  H29 MOL d         -41.990 -49.050  -6.238  0.00  0.00     0.066 H 
ATOM     65  H30 MOL d         -42.119 -47.533  -5.286  0.00  0.00     0.066 H 
ATOM     66  H31 MOL d         -40.622 -47.886  -6.214  0.00  0.00     0.066 H 
ENDBRANCH  62  63
ENDBRANCH  49  62
ENDBRANCH   9  49
TORSDOF 8
ENDMDL
