MODEL 1
REMARK VINA RESULT:      -6.0      0.000      0.000
REMARK  4 active torsions:
REMARK  status: ('A' for Active; 'I' for Inactive)
REMARK    1  A    between atoms: C14_6  and  N2_7 
REMARK    2  A    between atoms: C9_8  and  C8_9 
REMARK       I    between atoms: C8_9  and  N1_11 
REMARK    3  A    between atoms: C4_13  and  C5_14 
REMARK    4  A    between atoms: C2_17  and  C1_18 
ROOT
ATOM      1  C8  SX3 d         -24.742   7.734 -15.884  0.00  0.00     0.256 C 
ATOM      2  O1  SX3 d         -25.468   6.890 -16.409  0.00  0.00    -0.267 OA
ATOM      3  N1  SX3 d         -23.434   7.914 -16.363  0.00  0.00    -0.347 N 
ATOM      4  C6  SX3 d         -22.505   8.770 -15.614  0.00  0.00     0.001 C 
ATOM      5  C4  SX3 d         -21.231   8.053 -15.188  0.00  0.00    -0.042 C 
ATOM      6  C3  SX3 d         -20.561   7.401 -16.389  0.00  0.00    -0.056 C 
ATOM      7  C7  SX3 d         -22.831   7.073 -17.416  0.00  0.00     0.001 C 
ATOM      8  C2  SX3 d         -21.507   6.421 -17.071  0.00  0.00    -0.042 C 
ATOM      9  H6  SX3 d         -23.017   9.135 -14.712  0.00  0.00     0.065 H 
ATOM     10  H7  SX3 d         -22.228   9.624 -16.250  0.00  0.00     0.065 H 
ATOM     11  H8  SX3 d         -21.489   7.266 -14.466  0.00  0.00     0.042 H 
ATOM     12  H12 SX3 d         -19.664   6.861 -16.053  0.00  0.00     0.034 H 
ATOM     13  H13 SX3 d         -20.271   8.182 -17.108  0.00  0.00     0.034 H 
ATOM     14  H14 SX3 d         -22.674   7.705 -18.303  0.00  0.00     0.065 H 
ATOM     15  H15 SX3 d         -23.546   6.273 -17.658  0.00  0.00     0.065 H 
ATOM     16  H16 SX3 d         -21.701   5.586 -16.383  0.00  0.00     0.042 H 
ENDROOT
BRANCH   1  17
ATOM     17  C9  SX3 d         -25.382   8.510 -14.793  0.00  0.00     0.059 A 
ATOM     18  C10 SX3 d         -25.828   9.795 -15.130  0.00  0.00    -0.049 A 
ATOM     19  C11 SX3 d         -26.408  10.608 -14.151  0.00  0.00     0.012 A 
ATOM     20  H1  SX3 d         -25.724  10.158 -16.146  0.00  0.00     0.087 H 
ATOM     21 BR1  SX3 d         -27.006  12.327 -14.673  0.00  0.00    -0.051 Br
ATOM     22  C12 SX3 d         -26.557  10.170 -12.830  0.00  0.00    -0.064 A 
ATOM     23  C13 SX3 d         -26.114   8.874 -12.501  0.00  0.00    -0.055 A 
ATOM     24  H2  SX3 d         -27.003  10.812 -12.079  0.00  0.00     0.085 H 
ATOM     25  C14 SX3 d         -25.512   8.031 -13.461  0.00  0.00     0.041 A 
ATOM     26  H3  SX3 d         -26.237   8.516 -11.486  0.00  0.00     0.087 H 
BRANCH  25  27
ATOM     27  N2  SX3 d         -25.073   6.759 -13.061  0.00  0.00    -0.398 N 
ATOM     28  H4  SX3 d         -25.150   6.474 -12.074  0.00  0.00     0.156 HD
ATOM     29  H5  SX3 d         -24.673   6.111 -13.755  0.00  0.00     0.156 HD
ENDBRANCH  25  27
ENDBRANCH   1  17
BRANCH   5  30
ATOM     30  C5  SX3 d         -20.312   9.049 -14.513  0.00  0.00    -0.071 C 
ATOM     31  H9  SX3 d         -20.853   9.553 -13.699  0.00  0.00     0.028 H 
ATOM     32  H10 SX3 d         -19.977   9.795 -15.249  0.00  0.00     0.028 H 
ATOM     33  H11 SX3 d         -19.438   8.522 -14.101  0.00  0.00     0.028 H 
ENDBRANCH   5  30
BRANCH   8  34
ATOM     34  C1  SX3 d         -20.844   5.875 -18.334  0.00  0.00    -0.071 C 
ATOM     35  H17 SX3 d         -20.056   5.160 -18.054  0.00  0.00     0.028 H 
ATOM     36  H18 SX3 d         -20.400   6.705 -18.904  0.00  0.00     0.028 H 
ATOM     37  H19 SX3 d         -21.597   5.367 -18.953  0.00  0.00     0.028 H 
ENDBRANCH   8  34
TORSDOF 4
ENDMDL
MODEL 2
REMARK VINA RESULT:      -5.9      2.729      6.083
REMARK  4 active torsions:
REMARK  status: ('A' for Active; 'I' for Inactive)
REMARK    1  A    between atoms: C14_6  and  N2_7 
REMARK    2  A    between atoms: C9_8  and  C8_9 
REMARK       I    between atoms: C8_9  and  N1_11 
REMARK    3  A    between atoms: C4_13  and  C5_14 
REMARK    4  A    between atoms: C2_17  and  C1_18 
ROOT
ATOM      1  C8  SX3 d         -24.606  10.394 -16.405  0.00  0.00     0.256 C 
ATOM      2  O1  SX3 d         -24.234  11.248 -17.209  0.00  0.00    -0.267 OA
ATOM      3  N1  SX3 d         -25.850  10.538 -15.768  0.00  0.00    -0.347 N 
ATOM      4  C6  SX3 d         -26.204   9.635 -14.666  0.00  0.00     0.001 C 
ATOM      5  C4  SX3 d         -26.527  10.362 -13.368  0.00  0.00    -0.042 C 
ATOM      6  C3  SX3 d         -27.596  11.419 -13.603  0.00  0.00    -0.056 C 
ATOM      7  C7  SX3 d         -26.715  11.723 -15.936  0.00  0.00     0.001 C 
ATOM      8  C2  SX3 d         -27.147  12.418 -14.661  0.00  0.00    -0.042 C 
ATOM      9  H6  SX3 d         -25.356   8.957 -14.485  0.00  0.00     0.065 H 
ATOM     10  H7  SX3 d         -27.085   9.048 -14.966  0.00  0.00     0.065 H 
ATOM     11  H8  SX3 d         -25.618  10.862 -13.004  0.00  0.00     0.042 H 
ATOM     12  H12 SX3 d         -27.787  11.954 -12.660  0.00  0.00     0.034 H 
ATOM     13  H13 SX3 d         -28.521  10.927 -13.940  0.00  0.00     0.034 H 
ATOM     14  H14 SX3 d         -27.623  11.403 -16.469  0.00  0.00     0.065 H 
ATOM     15  H15 SX3 d         -26.169  12.454 -16.549  0.00  0.00     0.065 H 
ATOM     16  H16 SX3 d         -26.290  12.982 -14.267  0.00  0.00     0.042 H 
ENDROOT
BRANCH   1  17
ATOM     17  C9  SX3 d         -23.670   9.255 -16.233  0.00  0.00     0.059 A 
ATOM     18  C10 SX3 d         -22.541   9.498 -15.440  0.00  0.00    -0.049 A 
ATOM     19  C11 SX3 d         -21.589   8.489 -15.260  0.00  0.00     0.012 A 
ATOM     20  H1  SX3 d         -22.405  10.464 -14.969  0.00  0.00     0.087 H 
ATOM     21 BR1  SX3 d         -20.094   8.874 -14.164  0.00  0.00    -0.051 Br
ATOM     22  C12 SX3 d         -21.734   7.230 -15.855  0.00  0.00    -0.064 A 
ATOM     23  C13 SX3 d         -22.876   6.991 -16.644  0.00  0.00    -0.055 A 
ATOM     24  H2  SX3 d         -20.986   6.459 -15.712  0.00  0.00     0.085 H 
ATOM     25  C14 SX3 d         -23.851   7.990 -16.858  0.00  0.00     0.041 A 
ATOM     26  H3  SX3 d         -23.010   6.017 -17.098  0.00  0.00     0.087 H 
BRANCH  25  27
ATOM     27  N2  SX3 d         -24.955   7.693 -17.673  0.00  0.00    -0.398 N 
ATOM     28  H4  SX3 d         -25.837   8.211 -17.555  0.00  0.00     0.156 HD
ATOM     29  H5  SX3 d         -24.882   6.956 -18.390  0.00  0.00     0.156 HD
ENDBRANCH  25  27
ENDBRANCH   1  17
BRANCH   5  30
ATOM     30  C5  SX3 d         -26.968   9.346 -12.336  0.00  0.00    -0.071 C 
ATOM     31  H9  SX3 d         -28.028   9.509 -12.090  0.00  0.00     0.028 H 
ATOM     32  H10 SX3 d         -26.359   9.460 -11.426  0.00  0.00     0.028 H 
ATOM     33  H11 SX3 d         -26.837   8.331 -12.740  0.00  0.00     0.028 H 
ENDBRANCH   5  30
BRANCH   8  34
ATOM     34  C1  SX3 d         -28.287  13.392 -14.952  0.00  0.00    -0.071 C 
ATOM     35  H17 SX3 d         -29.010  13.369 -14.122  0.00  0.00     0.028 H 
ATOM     36  H18 SX3 d         -28.791  13.099 -15.885  0.00  0.00     0.028 H 
ATOM     37  H19 SX3 d         -27.882  14.409 -15.056  0.00  0.00     0.028 H 
ENDBRANCH   8  34
TORSDOF 4
ENDMDL
MODEL 3
REMARK VINA RESULT:      -5.6      2.420      3.576
REMARK  4 active torsions:
REMARK  status: ('A' for Active; 'I' for Inactive)
REMARK    1  A    between atoms: C14_6  and  N2_7 
REMARK    2  A    between atoms: C9_8  and  C8_9 
REMARK       I    between atoms: C8_9  and  N1_11 
REMARK    3  A    between atoms: C4_13  and  C5_14 
REMARK    4  A    between atoms: C2_17  and  C1_18 
ROOT
ATOM      1  C8  SX3 d         -24.167  10.469 -16.512  0.00  0.00     0.256 C 
ATOM      2  O1  SX3 d         -23.485  11.176 -17.253  0.00  0.00    -0.267 OA
ATOM      3  N1  SX3 d         -23.532   9.592 -15.617  0.00  0.00    -0.347 N 
ATOM      4  C6  SX3 d         -24.336   8.607 -14.882  0.00  0.00     0.001 C 
ATOM      5  C4  SX3 d         -23.894   7.169 -15.115  0.00  0.00    -0.042 C 
ATOM      6  C3  SX3 d         -22.408   7.017 -14.829  0.00  0.00    -0.056 C 
ATOM      7  C7  SX3 d         -22.069   9.392 -15.575  0.00  0.00     0.001 C 
ATOM      8  C2  SX3 d         -21.589   7.961 -15.699  0.00  0.00    -0.042 C 
ATOM      9  H6  SX3 d         -25.384   8.706 -15.199  0.00  0.00     0.065 H 
ATOM     10  H7  SX3 d         -24.257   8.826 -13.806  0.00  0.00     0.065 H 
ATOM     11  H8  SX3 d         -24.074   6.907 -16.168  0.00  0.00     0.042 H 
ATOM     12  H12 SX3 d         -22.105   5.980 -15.038  0.00  0.00     0.034 H 
ATOM     13  H13 SX3 d         -22.219   7.248 -13.770  0.00  0.00     0.034 H 
ATOM     14  H14 SX3 d         -21.703   9.787 -14.615  0.00  0.00     0.065 H 
ATOM     15  H15 SX3 d         -21.627   9.968 -16.400  0.00  0.00     0.065 H 
ATOM     16  H16 SX3 d         -21.696   7.649 -16.749  0.00  0.00     0.042 H 
ENDROOT
BRANCH   1  17
ATOM     17  C9  SX3 d         -25.631  10.670 -16.638  0.00  0.00     0.059 A 
ATOM     18  C10 SX3 d         -26.192  11.657 -15.815  0.00  0.00    -0.049 A 
ATOM     19  C11 SX3 d         -27.572  11.885 -15.844  0.00  0.00     0.012 A 
ATOM     20  H1  SX3 d         -25.558  12.242 -15.159  0.00  0.00     0.087 H 
ATOM     21 BR1  SX3 d         -28.264  13.242 -14.721  0.00  0.00    -0.051 Br
ATOM     22  C12 SX3 d         -28.417  11.146 -16.680  0.00  0.00    -0.064 A 
ATOM     23  C13 SX3 d         -27.846  10.162 -17.509  0.00  0.00    -0.055 A 
ATOM     24  H2  SX3 d         -29.486  11.328 -16.688  0.00  0.00     0.085 H 
ATOM     25  C14 SX3 d         -26.459   9.898 -17.497  0.00  0.00     0.041 A 
ATOM     26  H3  SX3 d         -28.487   9.593 -18.173  0.00  0.00     0.087 H 
BRANCH  25  27
ATOM     27  N2  SX3 d         -25.957   8.887 -18.334  0.00  0.00    -0.398 N 
ATOM     28  H4  SX3 d         -26.011   7.901 -18.040  0.00  0.00     0.156 HD
ATOM     29  H5  SX3 d         -25.536   9.132 -19.241  0.00  0.00     0.156 HD
ENDBRANCH  25  27
ENDBRANCH   1  17
BRANCH   5  30
ATOM     30  C5  SX3 d         -24.725   6.254 -14.240  0.00  0.00    -0.071 C 
ATOM     31  H9  SX3 d         -25.368   5.625 -14.873  0.00  0.00     0.028 H 
ATOM     32  H10 SX3 d         -25.351   6.860 -13.568  0.00  0.00     0.028 H 
ATOM     33  H11 SX3 d         -24.059   5.614 -13.642  0.00  0.00     0.028 H 
ENDBRANCH   5  30
BRANCH   8  34
ATOM     34  C1  SX3 d         -20.117   7.863 -15.305  0.00  0.00    -0.071 C 
ATOM     35  H17 SX3 d         -19.564   7.313 -16.081  0.00  0.00     0.028 H 
ATOM     36  H18 SX3 d         -20.029   7.330 -14.346  0.00  0.00     0.028 H 
ATOM     37  H19 SX3 d         -19.696   8.874 -15.203  0.00  0.00     0.028 H 
ENDBRANCH   8  34
TORSDOF 4
ENDMDL
MODEL 4
REMARK VINA RESULT:      -5.2      2.406      5.796
REMARK  4 active torsions:
REMARK  status: ('A' for Active; 'I' for Inactive)
REMARK    1  A    between atoms: C14_6  and  N2_7 
REMARK    2  A    between atoms: C9_8  and  C8_9 
REMARK       I    between atoms: C8_9  and  N1_11 
REMARK    3  A    between atoms: C4_13  and  C5_14 
REMARK    4  A    between atoms: C2_17  and  C1_18 
ROOT
ATOM      1  C8  SX3 d         -24.914   6.843 -14.817  0.00  0.00     0.256 C 
ATOM      2  O1  SX3 d         -25.292   5.672 -14.784  0.00  0.00    -0.267 OA
ATOM      3  N1  SX3 d         -25.665   7.831 -14.160  0.00  0.00    -0.347 N 
ATOM      4  C6  SX3 d         -25.332   9.246 -14.367  0.00  0.00     0.001 C 
ATOM      5  C4  SX3 d         -26.493  10.070 -14.905  0.00  0.00    -0.042 C 
ATOM      6  C3  SX3 d         -27.720   9.898 -14.021  0.00  0.00    -0.056 C 
ATOM      7  C7  SX3 d         -26.957   7.563 -13.496  0.00  0.00     0.001 C 
ATOM      8  C2  SX3 d         -28.121   8.432 -13.928  0.00  0.00    -0.042 C 
ATOM      9  H6  SX3 d         -24.500   9.307 -15.084  0.00  0.00     0.065 H 
ATOM     10  H7  SX3 d         -25.017   9.674 -13.403  0.00  0.00     0.065 H 
ATOM     11  H8  SX3 d         -26.742   9.718 -15.916  0.00  0.00     0.042 H 
ATOM     12  H12 SX3 d         -28.555  10.474 -14.448  0.00  0.00     0.034 H 
ATOM     13  H13 SX3 d         -27.494  10.275 -13.012  0.00  0.00     0.034 H 
ATOM     14  H14 SX3 d         -26.816   7.704 -12.415  0.00  0.00     0.065 H 
ATOM     15  H15 SX3 d         -27.227   6.516 -13.697  0.00  0.00     0.065 H 
ATOM     16  H16 SX3 d         -28.453   8.098 -14.921  0.00  0.00     0.042 H 
ENDROOT
BRANCH   1  17
ATOM     17  C9  SX3 d         -23.640   7.062 -15.546  0.00  0.00     0.059 A 
ATOM     18  C10 SX3 d         -22.635   7.740 -14.842  0.00  0.00    -0.049 A 
ATOM     19  C11 SX3 d         -21.417   8.022 -15.469  0.00  0.00     0.012 A 
ATOM     20  H1  SX3 d         -22.802   8.045 -13.816  0.00  0.00     0.087 H 
ATOM     21 BR1  SX3 d         -20.095   8.924 -14.459  0.00  0.00    -0.051 Br
ATOM     22  C12 SX3 d         -21.171   7.642 -16.793  0.00  0.00    -0.064 A 
ATOM     23  C13 SX3 d         -22.182   6.954 -17.491  0.00  0.00    -0.055 A 
ATOM     24  H2  SX3 d         -20.225   7.872 -17.270  0.00  0.00     0.085 H 
ATOM     25  C14 SX3 d         -23.429   6.664 -16.894  0.00  0.00     0.041 A 
ATOM     26  H3  SX3 d         -22.000   6.640 -18.512  0.00  0.00     0.087 H 
BRANCH  25  27
ATOM     27  N2  SX3 d         -24.402   5.995 -17.653  0.00  0.00    -0.398 N 
ATOM     28  H4  SX3 d         -24.805   5.111 -17.310  0.00  0.00     0.156 HD
ATOM     29  H5  SX3 d         -24.712   6.387 -18.554  0.00  0.00     0.156 HD
ENDBRANCH  25  27
ENDBRANCH   1  17
BRANCH   5  30
ATOM     30  C5  SX3 d         -26.067  11.520 -14.988  0.00  0.00    -0.071 C 
ATOM     31  H9  SX3 d         -26.438  11.958 -15.927  0.00  0.00     0.028 H 
ATOM     32  H10 SX3 d         -24.969  11.582 -14.963  0.00  0.00     0.028 H 
ATOM     33  H11 SX3 d         -26.485  12.075 -14.134  0.00  0.00     0.028 H 
ENDBRANCH   5  30
BRANCH   8  34
ATOM     34  C1  SX3 d         -29.281   8.286 -12.946  0.00  0.00    -0.071 C 
ATOM     35  H17 SX3 d         -29.603   7.235 -12.911  0.00  0.00     0.028 H 
ATOM     36  H18 SX3 d         -30.121   8.917 -13.274  0.00  0.00     0.028 H 
ATOM     37  H19 SX3 d         -28.954   8.602 -11.944  0.00  0.00     0.028 H 
ENDBRANCH   8  34
TORSDOF 4
ENDMDL
MODEL 5
REMARK VINA RESULT:      -5.2      2.601      5.764
REMARK  4 active torsions:
REMARK  status: ('A' for Active; 'I' for Inactive)
REMARK    1  A    between atoms: C14_6  and  N2_7 
REMARK    2  A    between atoms: C9_8  and  C8_9 
REMARK       I    between atoms: C8_9  and  N1_11 
REMARK    3  A    between atoms: C4_13  and  C5_14 
REMARK    4  A    between atoms: C2_17  and  C1_18 
ROOT
ATOM      1  C8  SX3 d         -24.528   8.472 -16.854  0.00  0.00     0.256 C 
ATOM      2  O1  SX3 d         -24.594   9.456 -17.591  0.00  0.00    -0.267 OA
ATOM      3  N1  SX3 d         -25.709   7.916 -16.336  0.00  0.00    -0.347 N 
ATOM      4  C6  SX3 d         -25.622   6.877 -15.303  0.00  0.00     0.001 C 
ATOM      5  C4  SX3 d         -26.358   7.237 -14.019  0.00  0.00    -0.042 C 
ATOM      6  C3  SX3 d         -27.799   7.619 -14.322  0.00  0.00    -0.056 C 
ATOM      7  C7  SX3 d         -27.046   8.506 -16.549  0.00  0.00     0.001 C 
ATOM      8  C2  SX3 d         -27.857   8.785 -15.300  0.00  0.00    -0.042 C 
ATOM      9  H6  SX3 d         -24.562   6.712 -15.062  0.00  0.00     0.065 H 
ATOM     10  H7  SX3 d         -26.056   5.949 -15.704  0.00  0.00     0.065 H 
ATOM     11  H8  SX3 d         -25.861   8.101 -13.553  0.00  0.00     0.042 H 
ATOM     12  H12 SX3 d         -28.300   7.909 -13.386  0.00  0.00     0.034 H 
ATOM     13  H13 SX3 d         -28.317   6.754 -14.762  0.00  0.00     0.034 H 
ATOM     14  H14 SX3 d         -27.624   7.811 -17.177  0.00  0.00     0.065 H 
ATOM     15  H15 SX3 d         -26.913   9.458 -17.084  0.00  0.00     0.065 H 
ATOM     16  H16 SX3 d         -27.439   9.675 -14.808  0.00  0.00     0.042 H 
ENDROOT
BRANCH   1  17
ATOM     17  C9  SX3 d         -23.154   7.957 -16.629  0.00  0.00     0.059 A 
ATOM     18  C10 SX3 d         -22.389   8.637 -15.673  0.00  0.00    -0.049 A 
ATOM     19  C11 SX3 d         -21.070   8.240 -15.428  0.00  0.00     0.012 A 
ATOM     20  H1  SX3 d         -22.817   9.468 -15.125  0.00  0.00     0.087 H 
ATOM     21 BR1  SX3 d         -20.094   9.188 -14.112  0.00  0.00    -0.051 Br
ATOM     22  C12 SX3 d         -20.488   7.171 -16.119  0.00  0.00    -0.064 A 
ATOM     23  C13 SX3 d         -21.266   6.488 -17.073  0.00  0.00    -0.055 A 
ATOM     24  H2  SX3 d         -19.462   6.877 -15.925  0.00  0.00     0.085 H 
ATOM     25  C14 SX3 d         -22.596   6.869 -17.354  0.00  0.00     0.041 A 
ATOM     26  H3  SX3 d         -20.833   5.648 -17.605  0.00  0.00     0.087 H 
BRANCH  25  27
ATOM     27  N2  SX3 d         -23.309   6.159 -18.334  0.00  0.00    -0.398 N 
ATOM     28  H4  SX3 d         -23.142   5.150 -18.463  0.00  0.00     0.156 HD
ATOM     29  H5  SX3 d         -24.000   6.646 -18.922  0.00  0.00     0.156 HD
ENDBRANCH  25  27
ENDBRANCH   1  17
BRANCH   5  30
ATOM     30  C5  SX3 d         -26.284   6.063 -13.066  0.00  0.00    -0.071 C 
ATOM     31  H9  SX3 d         -26.479   6.410 -12.041  0.00  0.00     0.028 H 
ATOM     32  H10 SX3 d         -25.281   5.613 -13.117  0.00  0.00     0.028 H 
ATOM     33  H11 SX3 d         -27.037   5.313 -13.349  0.00  0.00     0.028 H 
ENDBRANCH   5  30
BRANCH   8  34
ATOM     34  C1  SX3 d         -29.313   9.064 -15.669  0.00  0.00    -0.071 C 
ATOM     35  H17 SX3 d         -29.828   9.518 -14.809  0.00  0.00     0.028 H 
ATOM     36  H18 SX3 d         -29.810   8.121 -15.938  0.00  0.00     0.028 H 
ATOM     37  H19 SX3 d         -29.349   9.755 -16.524  0.00  0.00     0.028 H 
ENDBRANCH   8  34
TORSDOF 4
ENDMDL
MODEL 6
REMARK VINA RESULT:      -5.1      2.550      6.066
REMARK  4 active torsions:
REMARK  status: ('A' for Active; 'I' for Inactive)
REMARK    1  A    between atoms: C14_6  and  N2_7 
REMARK    2  A    between atoms: C9_8  and  C8_9 
REMARK       I    between atoms: C8_9  and  N1_11 
REMARK    3  A    between atoms: C4_13  and  C5_14 
REMARK    4  A    between atoms: C2_17  and  C1_18 
ROOT
ATOM      1  C8  SX3 d         -25.298   8.441 -14.202  0.00  0.00     0.256 C 
ATOM      2  O1  SX3 d         -25.745   7.453 -13.619  0.00  0.00    -0.267 OA
ATOM      3  N1  SX3 d         -25.805   9.714 -13.893  0.00  0.00    -0.347 N 
ATOM      4  C6  SX3 d         -25.422  10.862 -14.724  0.00  0.00     0.001 C 
ATOM      5  C4  SX3 d         -26.611  11.586 -15.341  0.00  0.00    -0.042 C 
ATOM      6  C3  SX3 d         -27.615  11.972 -14.265  0.00  0.00    -0.056 C 
ATOM      7  C7  SX3 d         -26.929   9.937 -12.962  0.00  0.00     0.001 C 
ATOM      8  C2  SX3 d         -28.092  10.743 -13.503  0.00  0.00    -0.042 C 
ATOM      9  H6  SX3 d         -24.772  10.504 -15.536  0.00  0.00     0.065 H 
ATOM     10  H7  SX3 d         -24.866  11.576 -14.097  0.00  0.00     0.065 H 
ATOM     11  H8  SX3 d         -27.108  10.912 -16.054  0.00  0.00     0.042 H 
ATOM     12  H12 SX3 d         -28.480  12.461 -14.738  0.00  0.00     0.034 H 
ATOM     13  H13 SX3 d         -27.138  12.671 -13.561  0.00  0.00     0.034 H 
ATOM     14  H14 SX3 d         -26.536  10.464 -12.079  0.00  0.00     0.065 H 
ATOM     15  H15 SX3 d         -27.315   8.952 -12.659  0.00  0.00     0.065 H 
ATOM     16  H16 SX3 d         -28.665  10.106 -14.192  0.00  0.00     0.042 H 
ENDROOT
BRANCH   1  17
ATOM     17  C9  SX3 d         -24.210   8.151 -15.168  0.00  0.00     0.059 A 
ATOM     18  C10 SX3 d         -22.909   8.443 -14.737  0.00  0.00    -0.049 A 
ATOM     19  C11 SX3 d         -21.828   8.236 -15.601  0.00  0.00     0.012 A 
ATOM     20  H1  SX3 d         -22.740   8.829 -13.739  0.00  0.00     0.087 H 
ATOM     21 BR1  SX3 d         -20.094   8.634 -14.955  0.00  0.00    -0.051 Br
ATOM     22  C12 SX3 d         -22.012   7.739 -16.896  0.00  0.00    -0.064 A 
ATOM     23  C13 SX3 d         -23.322   7.440 -17.319  0.00  0.00    -0.055 A 
ATOM     24  H2  SX3 d         -21.167   7.588 -17.559  0.00  0.00     0.085 H 
ATOM     25  C14 SX3 d         -24.437   7.648 -16.478  0.00  0.00     0.041 A 
ATOM     26  H3  SX3 d         -23.477   7.040 -18.314  0.00  0.00     0.087 H 
BRANCH  25  27
ATOM     27  N2  SX3 d         -25.718   7.350 -16.970  0.00  0.00    -0.398 N 
ATOM     28  H4  SX3 d         -26.333   6.708 -16.448  0.00  0.00     0.156 HD
ATOM     29  H5  SX3 d         -26.042   7.771 -17.852  0.00  0.00     0.156 HD
ENDBRANCH  25  27
ENDBRANCH   1  17
BRANCH   5  30
ATOM     30  C5  SX3 d         -26.108  12.800 -16.093  0.00  0.00    -0.071 C 
ATOM     31  H9  SX3 d         -25.008  12.814 -16.071  0.00  0.00     0.028 H 
ATOM     32  H10 SX3 d         -26.495  13.713 -15.616  0.00  0.00     0.028 H 
ATOM     33  H11 SX3 d         -26.453  12.756 -17.136  0.00  0.00     0.028 H 
ENDBRANCH   5  30
BRANCH   8  34
ATOM     34  C1  SX3 d         -29.007  11.181 -12.361  0.00  0.00    -0.071 C 
ATOM     35  H17 SX3 d         -30.029  10.823 -12.552  0.00  0.00     0.028 H 
ATOM     36  H18 SX3 d         -29.010  12.279 -12.293  0.00  0.00     0.028 H 
ATOM     37  H19 SX3 d         -28.641  10.756 -11.415  0.00  0.00     0.028 H 
ENDBRANCH   8  34
TORSDOF 4
ENDMDL
MODEL 7
REMARK VINA RESULT:      -5.0      2.927      4.008
REMARK  4 active torsions:
REMARK  status: ('A' for Active; 'I' for Inactive)
REMARK    1  A    between atoms: C14_6  and  N2_7 
REMARK    2  A    between atoms: C9_8  and  C8_9 
REMARK       I    between atoms: C8_9  and  N1_11 
REMARK    3  A    between atoms: C4_13  and  C5_14 
REMARK    4  A    between atoms: C2_17  and  C1_18 
ROOT
ATOM      1  C8  SX3 d         -24.349  10.404 -16.520  0.00  0.00     0.256 C 
ATOM      2  O1  SX3 d         -23.709  11.193 -17.216  0.00  0.00    -0.267 OA
ATOM      3  N1  SX3 d         -23.670   9.564 -15.623  0.00  0.00    -0.347 N 
ATOM      4  C6  SX3 d         -24.405   8.489 -14.946  0.00  0.00     0.001 C 
ATOM      5  C4  SX3 d         -23.823   7.105 -15.197  0.00  0.00    -0.042 C 
ATOM      6  C3  SX3 d         -22.340   7.082 -14.855  0.00  0.00    -0.056 C 
ATOM      7  C7  SX3 d         -22.197   9.499 -15.527  0.00  0.00     0.001 C 
ATOM      8  C2  SX3 d         -21.581   8.122 -15.668  0.00  0.00    -0.042 C 
ATOM      9  H6  SX3 d         -25.445   8.500 -15.303  0.00  0.00     0.065 H 
ATOM     10  H7  SX3 d         -24.387   8.683 -13.863  0.00  0.00     0.065 H 
ATOM     11  H8  SX3 d         -23.937   6.858 -16.262  0.00  0.00     0.042 H 
ATOM     12  H12 SX3 d         -21.934   6.084 -15.078  0.00  0.00     0.034 H 
ATOM     13  H13 SX3 d         -22.214   7.299 -13.784  0.00  0.00     0.034 H 
ATOM     14  H14 SX3 d         -21.906   9.899 -14.544  0.00  0.00     0.065 H 
ATOM     15  H15 SX3 d         -21.780  10.137 -16.320  0.00  0.00     0.065 H 
ATOM     16  H16 SX3 d         -21.619   7.833 -16.728  0.00  0.00     0.042 H 
ENDROOT
BRANCH   1  17
ATOM     17  C9  SX3 d         -25.820  10.473 -16.700  0.00  0.00     0.059 A 
ATOM     18  C10 SX3 d         -26.423   9.358 -17.298  0.00  0.00    -0.049 A 
ATOM     19  C11 SX3 d         -27.801   9.358 -17.539  0.00  0.00     0.012 A 
ATOM     20  H1  SX3 d         -25.823   8.499 -17.573  0.00  0.00     0.087 H 
ATOM     21 BR1  SX3 d         -28.556   7.816 -18.334  0.00  0.00    -0.051 Br
ATOM     22  C12 SX3 d         -28.603  10.452 -17.196  0.00  0.00    -0.064 A 
ATOM     23  C13 SX3 d         -27.992  11.566 -16.588  0.00  0.00    -0.055 A 
ATOM     24  H2  SX3 d         -29.669  10.443 -17.394  0.00  0.00     0.085 H 
ATOM     25  C14 SX3 d         -26.602  11.605 -16.341  0.00  0.00     0.041 A 
ATOM     26  H3  SX3 d         -28.603  12.414 -16.303  0.00  0.00     0.087 H 
BRANCH  25  27
ATOM     27  N2  SX3 d         -26.053  12.756 -15.751  0.00  0.00    -0.398 N 
ATOM     28  H4  SX3 d         -26.034  13.643 -16.275  0.00  0.00     0.156 HD
ATOM     29  H5  SX3 d         -25.670  12.712 -14.796  0.00  0.00     0.156 HD
ENDBRANCH  25  27
ENDBRANCH   1  17
BRANCH   5  30
ATOM     30  C5  SX3 d         -24.596   6.093 -14.379  0.00  0.00    -0.071 C 
ATOM     31  H9  SX3 d         -25.314   5.568 -15.028  0.00  0.00     0.028 H 
ATOM     32  H10 SX3 d         -25.140   6.610 -13.575  0.00  0.00     0.028 H 
ATOM     33  H11 SX3 d         -23.898   5.364 -13.940  0.00  0.00     0.028 H 
ENDBRANCH   5  30
BRANCH   8  34
ATOM     34  C1  SX3 d         -20.122   8.149 -15.217  0.00  0.00    -0.071 C 
ATOM     35  H17 SX3 d         -20.072   8.418 -14.151  0.00  0.00     0.028 H 
ATOM     36  H18 SX3 d         -19.569   8.894 -15.809  0.00  0.00     0.028 H 
ATOM     37  H19 SX3 d         -19.674   7.156 -15.366  0.00  0.00     0.028 H 
ENDBRANCH   8  34
TORSDOF 4
ENDMDL
MODEL 8
REMARK VINA RESULT:      -5.0      2.202      2.985
REMARK  4 active torsions:
REMARK  status: ('A' for Active; 'I' for Inactive)
REMARK    1  A    between atoms: C14_6  and  N2_7 
REMARK    2  A    between atoms: C9_8  and  C8_9 
REMARK       I    between atoms: C8_9  and  N1_11 
REMARK    3  A    between atoms: C4_13  and  C5_14 
REMARK    4  A    between atoms: C2_17  and  C1_18 
ROOT
ATOM      1  C8  SX3 d         -25.443   7.309 -13.685  0.00  0.00     0.256 C 
ATOM      2  O1  SX3 d         -25.077   6.531 -12.804  0.00  0.00    -0.267 OA
ATOM      3  N1  SX3 d         -24.571   7.618 -14.742  0.00  0.00    -0.347 N 
ATOM      4  C6  SX3 d         -24.924   8.693 -15.677  0.00  0.00     0.001 C 
ATOM      5  C4  SX3 d         -23.879   9.798 -15.753  0.00  0.00    -0.042 C 
ATOM      6  C3  SX3 d         -22.508   9.211 -16.053  0.00  0.00    -0.056 C 
ATOM      7  C7  SX3 d         -23.178   7.131 -14.814  0.00  0.00     0.001 C 
ATOM      8  C2  SX3 d         -22.111   8.191 -14.994  0.00  0.00    -0.042 C 
ATOM      9  H6  SX3 d         -25.878   9.137 -15.353  0.00  0.00     0.065 H 
ATOM     10  H7  SX3 d         -25.044   8.257 -16.680  0.00  0.00     0.065 H 
ATOM     11  H8  SX3 d         -23.832  10.311 -14.782  0.00  0.00     0.042 H 
ATOM     12  H12 SX3 d         -21.764  10.022 -16.068  0.00  0.00     0.034 H 
ATOM     13  H13 SX3 d         -22.533   8.719 -17.037  0.00  0.00     0.034 H 
ATOM     14  H14 SX3 d         -23.109   6.436 -15.664  0.00  0.00     0.065 H 
ATOM     15  H15 SX3 d         -22.962   6.591 -13.881  0.00  0.00     0.065 H 
ATOM     16  H16 SX3 d         -21.978   8.715 -14.037  0.00  0.00     0.042 H 
ENDROOT
BRANCH   1  17
ATOM     17  C9  SX3 d         -26.831   7.812 -13.531  0.00  0.00     0.059 A 
ATOM     18  C10 SX3 d         -26.963   9.140 -13.103  0.00  0.00    -0.049 A 
ATOM     19  C11 SX3 d         -28.237   9.679 -12.895  0.00  0.00     0.012 A 
ATOM     20  H1  SX3 d         -26.081   9.746 -12.934  0.00  0.00     0.087 H 
ATOM     21 BR1  SX3 d         -28.349  11.484 -12.335  0.00  0.00    -0.051 Br
ATOM     22  C12 SX3 d         -29.395   8.922 -13.104  0.00  0.00    -0.064 A 
ATOM     23  C13 SX3 d         -29.255   7.591 -13.541  0.00  0.00    -0.055 A 
ATOM     24  H2  SX3 d         -30.377   9.350 -12.933  0.00  0.00     0.085 H 
ATOM     25  C14 SX3 d         -27.985   7.010 -13.749  0.00  0.00     0.041 A 
ATOM     26  H3  SX3 d         -30.143   6.997 -13.722  0.00  0.00     0.087 H 
BRANCH  25  27
ATOM     27  N2  SX3 d         -27.915   5.670 -14.165  0.00  0.00    -0.398 N 
ATOM     28  H4  SX3 d         -27.012   5.267 -14.454  0.00  0.00     0.156 HD
ATOM     29  H5  SX3 d         -28.766   5.091 -14.180  0.00  0.00     0.156 HD
ENDBRANCH  25  27
ENDBRANCH   1  17
BRANCH   5  30
ATOM     30  C5  SX3 d         -24.299  10.797 -16.810  0.00  0.00    -0.071 C 
ATOM     31  H9  SX3 d         -25.017  10.323 -17.497  0.00  0.00     0.028 H 
ATOM     32  H10 SX3 d         -23.415  11.126 -17.375  0.00  0.00     0.028 H 
ATOM     33  H11 SX3 d         -24.772  11.665 -16.327  0.00  0.00     0.028 H 
ENDBRANCH   5  30
BRANCH   8  34
ATOM     34  C1  SX3 d         -20.786   7.543 -15.389  0.00  0.00    -0.071 C 
ATOM     35  H17 SX3 d         -20.874   7.111 -16.398  0.00  0.00     0.028 H 
ATOM     36  H18 SX3 d         -20.538   6.747 -14.671  0.00  0.00     0.028 H 
ATOM     37  H19 SX3 d         -19.990   8.302 -15.384  0.00  0.00     0.028 H 
ENDBRANCH   8  34
TORSDOF 4
ENDMDL
MODEL 9
REMARK VINA RESULT:      -4.5      2.543      3.907
REMARK  4 active torsions:
REMARK  status: ('A' for Active; 'I' for Inactive)
REMARK    1  A    between atoms: C14_6  and  N2_7 
REMARK    2  A    between atoms: C9_8  and  C8_9 
REMARK       I    between atoms: C8_9  and  N1_11 
REMARK    3  A    between atoms: C4_13  and  C5_14 
REMARK    4  A    between atoms: C2_17  and  C1_18 
ROOT
ATOM      1  C8  SX3 d         -25.737  10.326 -16.291  0.00  0.00     0.256 C 
ATOM      2  O1  SX3 d         -25.675  10.560 -17.498  0.00  0.00    -0.267 OA
ATOM      3  N1  SX3 d         -24.856   9.394 -15.720  0.00  0.00    -0.347 N 
ATOM      4  C6  SX3 d         -25.060   8.965 -14.332  0.00  0.00     0.001 C 
ATOM      5  C4  SX3 d         -25.237   7.460 -14.181  0.00  0.00    -0.042 C 
ATOM      6  C3  SX3 d         -24.081   6.722 -14.840  0.00  0.00    -0.056 C 
ATOM      7  C7  SX3 d         -23.901   8.590 -16.510  0.00  0.00     0.001 C 
ATOM      8  C2  SX3 d         -23.972   7.089 -16.313  0.00  0.00    -0.042 C 
ATOM      9  H6  SX3 d         -25.961   9.462 -13.943  0.00  0.00     0.065 H 
ATOM     10  H7  SX3 d         -24.186   9.274 -13.739  0.00  0.00     0.065 H 
ATOM     11  H8  SX3 d         -26.170   7.159 -14.680  0.00  0.00     0.042 H 
ATOM     12  H12 SX3 d         -24.248   5.638 -14.750  0.00  0.00     0.034 H 
ATOM     13  H13 SX3 d         -23.144   6.992 -14.330  0.00  0.00     0.034 H 
ATOM     14  H14 SX3 d         -22.885   8.916 -16.243  0.00  0.00     0.065 H 
ATOM     15  H15 SX3 d         -24.085   8.798 -17.574  0.00  0.00     0.065 H 
ATOM     16  H16 SX3 d         -24.865   6.713 -16.834  0.00  0.00     0.042 H 
ENDROOT
BRANCH   1  17
ATOM     17  C9  SX3 d         -26.753  11.121 -15.558  0.00  0.00     0.059 A 
ATOM     18  C10 SX3 d         -27.608  10.402 -14.712  0.00  0.00    -0.049 A 
ATOM     19  C11 SX3 d         -28.619  11.070 -14.014  0.00  0.00     0.012 A 
ATOM     20  H1  SX3 d         -27.486   9.331 -14.600  0.00  0.00     0.087 H 
ATOM     21 BR1  SX3 d         -29.730  10.045 -12.875  0.00  0.00    -0.051 Br
ATOM     22  C12 SX3 d         -28.802  12.452 -14.137  0.00  0.00    -0.064 A 
ATOM     23  C13 SX3 d         -27.934  13.170 -14.983  0.00  0.00    -0.055 A 
ATOM     24  H2  SX3 d         -29.594  12.958 -13.595  0.00  0.00     0.085 H 
ATOM     25  C14 SX3 d         -26.911  12.526 -15.712  0.00  0.00     0.041 A 
ATOM     26  H3  SX3 d         -28.055  14.243 -15.076  0.00  0.00     0.087 H 
BRANCH  25  27
ATOM     27  N2  SX3 d         -26.094  13.297 -16.554  0.00  0.00    -0.398 N 
ATOM     28  H4  SX3 d         -25.608  12.854 -17.347  0.00  0.00     0.156 HD
ATOM     29  H5  SX3 d         -25.981  14.306 -16.379  0.00  0.00     0.156 HD
ENDBRANCH  25  27
ENDBRANCH   1  17
BRANCH   5  30
ATOM     30  C5  SX3 d         -25.344   7.125 -12.709  0.00  0.00    -0.071 C 
ATOM     31  H9  SX3 d         -25.961   7.883 -12.204  0.00  0.00     0.028 H 
ATOM     32  H10 SX3 d         -24.339   7.113 -12.262  0.00  0.00     0.028 H 
ATOM     33  H11 SX3 d         -25.810   6.135 -12.591  0.00  0.00     0.028 H 
ENDBRANCH   5  30
BRANCH   8  34
ATOM     34  C1  SX3 d         -22.736   6.420 -16.911  0.00  0.00    -0.071 C 
ATOM     35  H17 SX3 d         -22.311   7.066 -17.693  0.00  0.00     0.028 H 
ATOM     36  H18 SX3 d         -23.018   5.451 -17.349  0.00  0.00     0.028 H 
ATOM     37  H19 SX3 d         -21.987   6.261 -16.121  0.00  0.00     0.028 H 
ENDBRANCH   8  34
TORSDOF 4
ENDMDL
MODEL 10
REMARK VINA RESULT:      -4.5      2.747      3.953
REMARK  4 active torsions:
REMARK  status: ('A' for Active; 'I' for Inactive)
REMARK    1  A    between atoms: C14_6  and  N2_7 
REMARK    2  A    between atoms: C9_8  and  C8_9 
REMARK       I    between atoms: C8_9  and  N1_11 
REMARK    3  A    between atoms: C4_13  and  C5_14 
REMARK    4  A    between atoms: C2_17  and  C1_18 
ROOT
ATOM      1  C8  SX3 d         -25.047   8.493 -15.262  0.00  0.00     0.256 C 
ATOM      2  O1  SX3 d         -25.139   9.497 -14.556  0.00  0.00    -0.267 OA
ATOM      3  N1  SX3 d         -23.802   7.858 -15.402  0.00  0.00    -0.347 N 
ATOM      4  C6  SX3 d         -23.647   6.789 -16.396  0.00  0.00     0.001 C 
ATOM      5  C4  SX3 d         -22.550   7.065 -17.416  0.00  0.00    -0.042 C 
ATOM      6  C3  SX3 d         -21.238   7.382 -16.712  0.00  0.00    -0.056 C 
ATOM      7  C7  SX3 d         -22.551   8.384 -14.819  0.00  0.00     0.001 C 
ATOM      8  C2  SX3 d         -21.398   8.577 -15.782  0.00  0.00    -0.042 C 
ATOM      9  H6  SX3 d         -24.600   6.671 -16.933  0.00  0.00     0.065 H 
ATOM     10  H7  SX3 d         -23.405   5.854 -15.869  0.00  0.00     0.065 H 
ATOM     11  H8  SX3 d         -22.838   7.936 -18.022  0.00  0.00     0.042 H 
ATOM     12  H12 SX3 d         -20.471   7.612 -17.467  0.00  0.00     0.034 H 
ATOM     13  H13 SX3 d         -20.924   6.507 -16.125  0.00  0.00     0.034 H 
ATOM     14  H14 SX3 d         -22.223   7.683 -14.037  0.00  0.00     0.065 H 
ATOM     15  H15 SX3 d         -22.777   9.360 -14.365  0.00  0.00     0.065 H 
ATOM     16  H16 SX3 d         -21.600   9.470 -16.392  0.00  0.00     0.042 H 
ENDROOT
BRANCH   1  17
ATOM     17  C9  SX3 d         -26.324   8.042 -15.868  0.00  0.00     0.059 A 
ATOM     18  C10 SX3 d         -27.140   7.237 -15.061  0.00  0.00    -0.049 A 
ATOM     19  C11 SX3 d         -28.344   6.737 -15.570  0.00  0.00     0.012 A 
ATOM     20  H1  SX3 d         -26.839   7.002 -14.048  0.00  0.00     0.087 H 
ATOM     21 BR1  SX3 d         -29.408   5.670 -14.425  0.00  0.00    -0.051 Br
ATOM     22  C12 SX3 d         -28.760   7.023 -16.875  0.00  0.00    -0.064 A 
ATOM     23  C13 SX3 d         -27.939   7.839 -17.677  0.00  0.00    -0.055 A 
ATOM     24  H2  SX3 d         -29.693   6.624 -17.260  0.00  0.00     0.085 H 
ATOM     25  C14 SX3 d         -26.712   8.350 -17.201  0.00  0.00     0.041 A 
ATOM     26  H3  SX3 d         -28.257   8.081 -18.685  0.00  0.00     0.087 H 
BRANCH  25  27
ATOM     27  N2  SX3 d         -25.931   9.140 -18.059  0.00  0.00    -0.398 N 
ATOM     28  H4  SX3 d         -26.119  10.150 -18.144  0.00  0.00     0.156 HD
ATOM     29  H5  SX3 d         -25.171   8.710 -18.605  0.00  0.00     0.156 HD
ENDBRANCH  25  27
ENDBRANCH   1  17
BRANCH   5  30
ATOM     30  C5  SX3 d         -22.415   5.863 -18.327  0.00  0.00    -0.071 C 
ATOM     31  H9  SX3 d         -21.782   5.106 -17.842  0.00  0.00     0.028 H 
ATOM     32  H10 SX3 d         -21.954   6.173 -19.276  0.00  0.00     0.028 H 
ATOM     33  H11 SX3 d         -23.411   5.438 -18.523  0.00  0.00     0.028 H 
ENDBRANCH   5  30
BRANCH   8  34
ATOM     34  C1  SX3 d         -20.098   8.793 -15.010  0.00  0.00    -0.071 C 
ATOM     35  H17 SX3 d         -19.263   8.895 -15.719  0.00  0.00     0.028 H 
ATOM     36  H18 SX3 d         -19.915   7.932 -14.351  0.00  0.00     0.028 H 
ATOM     37  H19 SX3 d         -20.178   9.708 -14.405  0.00  0.00     0.028 H 
ENDBRANCH   8  34
TORSDOF 4
ENDMDL
