MODEL 1
REMARK VINA RESULT:      -4.7      0.000      0.000
REMARK  4 active torsions:
REMARK  status: ('A' for Active; 'I' for Inactive)
REMARK    1  A    between atoms: C1_1  and  P1_8 
REMARK    2  A    between atoms: N1_10  and  C1_1 
REMARK    3  A    between atoms: C2_2  and  C3_3 
REMARK    4  A    between atoms: C2_2  and  N1_10 
ROOT
ATOM      1  N1  GPF d          59.667   9.084  29.368  0.00  0.00    -0.053 N 
ATOM      2  H5  GPF d          58.751   9.495  29.446  0.00  0.00     0.278 HD
ATOM      3  H6  GPF d          60.364   9.813  29.379  0.00  0.00     0.278 HD
ENDROOT
BRANCH   1   4
ATOM      4  C1  GPF d          59.740   8.449  28.081  0.00  0.00     0.183 C 
ATOM      5  H1  GPF d          59.954   7.379  28.216  0.00  0.00     0.097 H 
ATOM      6  H2  GPF d          58.777   8.567  27.563  0.00  0.00     0.097 H 
BRANCH   4   7
ATOM      7  P1  GPF d          60.971   9.154  27.143  0.00  0.00     0.285 P 
ATOM      8  O1  GPF d          61.700   8.081  26.368  0.00  0.00    -0.638 OA
ATOM      9  O2  GPF d          61.831   9.842  28.170  0.00  0.00    -0.638 OA
ATOM     10  O3  GPF d          60.250  10.114  26.188  0.00  0.00    -0.638 OA
ENDBRANCH   4   7
ENDBRANCH   1   4
BRANCH   1  11
ATOM     11  C2  GPF d          59.875   8.274  30.550  0.00  0.00     0.161 C 
ATOM     12  H3  GPF d          58.915   8.138  31.070  0.00  0.00     0.092 H 
ATOM     13  H4  GPF d          60.273   7.292  30.252  0.00  0.00     0.092 H 
BRANCH  11  14
ATOM     14  C3  GPF d          60.818   8.920  31.446  0.00  0.00     0.199 C 
ATOM     15  O4  GPF d          61.183  10.144  31.199  0.00  0.00    -0.647 OA
ATOM     16  O5  GPF d          61.183   8.252  32.378  0.00  0.00    -0.647 OA
ENDBRANCH  11  14
ENDBRANCH   1  11
TORSDOF 4
ENDMDL
MODEL 2
REMARK VINA RESULT:      -3.4      1.018      1.290
REMARK  4 active torsions:
REMARK  status: ('A' for Active; 'I' for Inactive)
REMARK    1  A    between atoms: C1_1  and  P1_8 
REMARK    2  A    between atoms: N1_10  and  C1_1 
REMARK    3  A    between atoms: C2_2  and  C3_3 
REMARK    4  A    between atoms: C2_2  and  N1_10 
ROOT
ATOM      1  N1  GPF d          59.175   9.106  28.819  0.00  0.00    -0.053 N 
ATOM      2  H5  GPF d          58.259   8.688  28.858  0.00  0.00     0.278 HD
ATOM      3  H6  GPF d          59.133   9.955  28.277  0.00  0.00     0.278 HD
ENDROOT
BRANCH   1   4
ATOM      4  C1  GPF d          60.029   8.193  28.112  0.00  0.00     0.183 C 
ATOM      5  H1  GPF d          60.582   7.578  28.837  0.00  0.00     0.097 H 
ATOM      6  H2  GPF d          59.415   7.542  27.473  0.00  0.00     0.097 H 
BRANCH   4   7
ATOM      7  P1  GPF d          61.135   9.048  27.142  0.00  0.00     0.285 P 
ATOM      8  O1  GPF d          61.928   8.080  26.295  0.00  0.00    -0.638 OA
ATOM      9  O2  GPF d          61.972   9.788  28.151  0.00  0.00    -0.638 OA
ATOM     10  O3  GPF d          60.273   9.958  26.257  0.00  0.00    -0.638 OA
ENDBRANCH   4   7
ENDBRANCH   1   4
BRANCH   1  11
ATOM     11  C2  GPF d          59.533   9.479  30.172  0.00  0.00     0.161 C 
ATOM     12  H3  GPF d          60.325  10.242  30.140  0.00  0.00     0.092 H 
ATOM     13  H4  GPF d          58.649   9.889  30.681  0.00  0.00     0.092 H 
BRANCH  11  14
ATOM     14  C3  GPF d          60.014   8.320  30.905  0.00  0.00     0.199 C 
ATOM     15  O4  GPF d          59.448   7.167  30.699  0.00  0.00    -0.647 OA
ATOM     16  O5  GPF d          60.931   8.530  31.654  0.00  0.00    -0.647 OA
ENDBRANCH  11  14
ENDBRANCH   1  11
TORSDOF 4
ENDMDL
MODEL 3
REMARK VINA RESULT:      -3.3      0.465      1.764
REMARK  4 active torsions:
REMARK  status: ('A' for Active; 'I' for Inactive)
REMARK    1  A    between atoms: C1_1  and  P1_8 
REMARK    2  A    between atoms: N1_10  and  C1_1 
REMARK    3  A    between atoms: C2_2  and  C3_3 
REMARK    4  A    between atoms: C2_2  and  N1_10 
ROOT
ATOM      1  N1  GPF d          60.275   8.188  29.327  0.00  0.00    -0.053 N 
ATOM      2  H5  GPF d          61.282   8.225  29.304  0.00  0.00     0.278 HD
ATOM      3  H6  GPF d          59.978   7.250  29.548  0.00  0.00     0.278 HD
ENDROOT
BRANCH   1   4
ATOM      4  C1  GPF d          59.809   8.478  27.999  0.00  0.00     0.183 C 
ATOM      5  H1  GPF d          59.508   7.541  27.508  0.00  0.00     0.097 H 
ATOM      6  H2  GPF d          58.945   9.155  28.057  0.00  0.00     0.097 H 
BRANCH   4   7
ATOM      7  P1  GPF d          61.041   9.218  27.090  0.00  0.00     0.285 P 
ATOM      8  O1  GPF d          61.979   9.964  28.011  0.00  0.00    -0.638 OA
ATOM      9  O2  GPF d          60.280  10.117  26.152  0.00  0.00    -0.638 OA
ATOM     10  O3  GPF d          61.775   8.064  26.392  0.00  0.00    -0.638 OA
ENDBRANCH   4   7
ENDBRANCH   1   4
BRANCH   1  11
ATOM     11  C2  GPF d          59.840   9.042  30.413  0.00  0.00     0.161 C 
ATOM     12  H3  GPF d          59.586  10.035  30.013  0.00  0.00     0.092 H 
ATOM     13  H4  GPF d          58.952   8.601  30.888  0.00  0.00     0.092 H 
BRANCH  11  14
ATOM     14  C3  GPF d          60.895   9.179  31.402  0.00  0.00     0.199 C 
ATOM     15  O4  GPF d          61.014   8.270  32.325  0.00  0.00    -0.647 OA
ATOM     16  O5  GPF d          61.600  10.145  31.271  0.00  0.00    -0.647 OA
ENDBRANCH  11  14
ENDBRANCH   1  11
TORSDOF 4
ENDMDL
MODEL 4
REMARK VINA RESULT:      -2.5      1.939      4.052
REMARK  4 active torsions:
REMARK  status: ('A' for Active; 'I' for Inactive)
REMARK    1  A    between atoms: C1_1  and  P1_8 
REMARK    2  A    between atoms: N1_10  and  C1_1 
REMARK    3  A    between atoms: C2_2  and  C3_3 
REMARK    4  A    between atoms: C2_2  and  N1_10 
ROOT
ATOM      1  N1  GPF d          59.205   8.751  27.691  0.00  0.00    -0.053 N 
ATOM      2  H5  GPF d          58.717   9.476  28.192  0.00  0.00     0.278 HD
ATOM      3  H6  GPF d          58.537   8.135  27.255  0.00  0.00     0.278 HD
ENDROOT
BRANCH   1   4
ATOM      4  C1  GPF d          59.925   7.975  28.662  0.00  0.00     0.183 C 
ATOM      5  H1  GPF d          59.477   6.973  28.731  0.00  0.00     0.097 H 
ATOM      6  H2  GPF d          60.976   7.886  28.350  0.00  0.00     0.097 H 
BRANCH   4   7
ATOM      7  P1  GPF d          59.855   8.726  30.187  0.00  0.00     0.285 P 
ATOM      8  O1  GPF d          61.255   9.007  30.683  0.00  0.00    -0.638 OA
ATOM      9  O2  GPF d          59.111   7.724  31.028  0.00  0.00    -0.638 OA
ATOM     10  O3  GPF d          59.092  10.037  29.955  0.00  0.00    -0.638 OA
ENDBRANCH   4   7
ENDBRANCH   1   4
BRANCH   1  11
ATOM     11  C2  GPF d          59.953   9.393  26.629  0.00  0.00     0.161 C 
ATOM     12  H3  GPF d          59.677   8.939  25.666  0.00  0.00     0.092 H 
ATOM     13  H4  GPF d          59.710  10.466  26.612  0.00  0.00     0.092 H 
BRANCH  11  14
ATOM     14  C3  GPF d          61.380   9.228  26.846  0.00  0.00     0.199 C 
ATOM     15  O4  GPF d          61.962   8.150  26.410  0.00  0.00    -0.647 OA
ATOM     16  O5  GPF d          61.922  10.138  27.416  0.00  0.00    -0.647 OA
ENDBRANCH  11  14
ENDBRANCH   1  11
TORSDOF 4
ENDMDL
MODEL 5
REMARK VINA RESULT:      -2.0      1.805      4.129
REMARK  4 active torsions:
REMARK  status: ('A' for Active; 'I' for Inactive)
REMARK    1  A    between atoms: C1_1  and  P1_8 
REMARK    2  A    between atoms: N1_10  and  C1_1 
REMARK    3  A    between atoms: C2_2  and  C3_3 
REMARK    4  A    between atoms: C2_2  and  N1_10 
ROOT
ATOM      1  N1  GPF d          59.093   8.676  28.449  0.00  0.00    -0.053 N 
ATOM      2  H5  GPF d          58.303   9.010  28.979  0.00  0.00     0.278 HD
ATOM      3  H6  GPF d          58.778   8.008  27.763  0.00  0.00     0.278 HD
ENDROOT
BRANCH   1   4
ATOM      4  C1  GPF d          59.950   7.973  29.363  0.00  0.00     0.183 C 
ATOM      5  H1  GPF d          59.382   7.163  29.844  0.00  0.00     0.097 H 
ATOM      6  H2  GPF d          60.799   7.546  28.810  0.00  0.00     0.097 H 
BRANCH   4   7
ATOM      7  P1  GPF d          60.535   9.034  30.558  0.00  0.00     0.285 P 
ATOM      8  O1  GPF d          60.633   8.309  31.881  0.00  0.00    -0.638 OA
ATOM      9  O2  GPF d          59.519  10.144  30.556  0.00  0.00    -0.638 OA
ATOM     10  O3  GPF d          61.927   9.458  30.071  0.00  0.00    -0.638 OA
ENDBRANCH   4   7
ENDBRANCH   1   4
BRANCH   1  11
ATOM     11  C2  GPF d          59.634   9.809  27.728  0.00  0.00     0.161 C 
ATOM     12  H3  GPF d          58.817  10.335  27.213  0.00  0.00     0.092 H 
ATOM     13  H4  GPF d          60.119  10.494  28.440  0.00  0.00     0.092 H 
BRANCH  11  14
ATOM     14  C3  GPF d          60.611   9.365  26.749  0.00  0.00     0.199 C 
ATOM     15  O4  GPF d          61.777   9.941  26.717  0.00  0.00    -0.647 OA
ATOM     16  O5  GPF d          60.252   8.465  26.036  0.00  0.00    -0.647 OA
ENDBRANCH  11  14
ENDBRANCH   1  11
TORSDOF 4
ENDMDL
