MODEL 1
REMARK VINA RESULT:     -11.5      0.000      0.000
REMARK  11 active torsions:
REMARK  status: ('A' for Active; 'I' for Inactive)
REMARK       I    between atoms: N1_3  and  C20_36 
REMARK    1  A    between atoms: C28_44  and  N1_3 
REMARK    2  A    between atoms: O1_4  and  C9_24 
REMARK    3  A    between atoms: C20_36  and  O1_4 
REMARK    4  A    between atoms: N3_10  and  S1_5 
REMARK    5  A    between atoms: S1_5  and  C23_39 
REMARK    6  A    between atoms: C2_6  and  C4_12 
REMARK       I    between atoms: C4_12  and  N3_10 
REMARK       I    between atoms: C35_51  and  N4_13 
REMARK    7  A    between atoms: C9_24  and  C6_18 
REMARK    8  A    between atoms: C9_24  and  C7_20 
REMARK    9  A    between atoms: C9_24  and  C8_22 
REMARK   10  A    between atoms: C30_46  and  O8_23 
REMARK   11  A    between atoms: O8_23  and  C35_51 
ROOT
ATOM      1  C1  TSV d         -12.638  -6.242  17.128  0.00  0.00    -0.023 A 
ATOM      2  C2  TSV d         -12.228  -6.602  15.702  0.00  0.00     0.122 A 
ATOM      3  N2  TSV d         -12.531  -7.949  15.286  0.00  0.00    -0.341 N 
ATOM      4  C3  TSV d         -13.501  -5.771  15.974  0.00  0.00    -0.002 A 
ATOM      5  O3  TSV d         -15.653  -8.225  15.040  0.00  0.00    -0.271 OA
ATOM      6  C5  TSV d         -13.519  -4.297  15.685  0.00  0.00    -0.100 C 
ATOM      7  N5  TSV d         -14.987  -9.535  13.373  0.00  0.00    -0.334 N 
ATOM      8  O7  TSV d         -13.182  -7.319  13.223  0.00  0.00    -0.271 OA
ATOM      9  C10 TSV d         -14.408  -3.729  14.852  0.00  0.00    -0.106 C 
ATOM     10  C11 TSV d         -13.057  -8.188  14.092  0.00  0.00     0.241 C 
ATOM     11  C13 TSV d         -15.494  -4.485  14.113  0.00  0.00    -0.050 C 
ATOM     12  C15 TSV d         -13.600  -9.569  13.873  0.00  0.00     0.094 C 
ATOM     13  C18 TSV d         -15.333  -4.396  12.605  0.00  0.00    -0.062 C 
ATOM     14  C19 TSV d         -16.470  -5.118  11.859  0.00  0.00    -0.065 C 
ATOM     15  C22 TSV d         -16.422  -6.642  12.001  0.00  0.00    -0.063 C 
ATOM     16  C25 TSV d         -17.469  -7.153  12.993  0.00  0.00    -0.038 C 
ATOM     17  C27 TSV d         -12.868 -10.291  12.760  0.00  0.00    -0.011 C 
ATOM     18  C28 TSV d         -17.259  -8.617  13.351  0.00  0.00     0.091 C 
ATOM     19  C30 TSV d         -13.898 -11.205  12.162  0.00  0.00     0.067 C 
ATOM     20  C33 TSV d         -15.899  -8.788  13.989  0.00  0.00     0.243 C 
ATOM     21  C34 TSV d         -15.165 -10.394  12.182  0.00  0.00     0.023 C 
ATOM     22  H1  TSV d         -12.045  -5.513  17.700  0.00  0.00     0.038 H 
ATOM     23  H2  TSV d         -13.009  -7.025  17.806  0.00  0.00     0.038 H 
ATOM     24  H4  TSV d         -12.342  -8.712  15.905  0.00  0.00     0.163 HD
ATOM     25  H5  TSV d         -14.495  -6.207  15.792  0.00  0.00     0.050 H 
ATOM     26  H7  TSV d         -12.780  -3.662  16.171  0.00  0.00     0.077 H 
ATOM     27  H17 TSV d         -14.343  -2.653  14.697  0.00  0.00     0.076 H 
ATOM     28  H19 TSV d         -16.471  -4.063  14.391  0.00  0.00     0.038 H 
ATOM     29  H20 TSV d         -15.454  -5.543  14.411  0.00  0.00     0.038 H 
ATOM     30  H22 TSV d         -13.536 -10.133  14.814  0.00  0.00     0.088 H 
ATOM     31  H25 TSV d         -14.374  -4.855  12.322  0.00  0.00     0.033 H 
ATOM     32  H26 TSV d         -15.332  -3.336  12.311  0.00  0.00     0.033 H 
ATOM     33  H27 TSV d         -16.401  -4.865  10.791  0.00  0.00     0.033 H 
ATOM     34  H28 TSV d         -17.430  -4.761  12.259  0.00  0.00     0.033 H 
ATOM     35  H29 TSV d         -15.423  -6.935  12.356  0.00  0.00     0.033 H 
ATOM     36  H30 TSV d         -16.610  -7.098  11.018  0.00  0.00     0.033 H 
ATOM     37  H32 TSV d         -18.467  -7.038  12.544  0.00  0.00     0.036 H 
ATOM     38  H33 TSV d         -17.409  -6.551  13.912  0.00  0.00     0.036 H 
ATOM     39  H34 TSV d         -12.023 -10.869  13.162  0.00  0.00     0.040 H 
ATOM     40  H35 TSV d         -12.500  -9.577  12.009  0.00  0.00     0.040 H 
ATOM     41  H36 TSV d         -17.317  -9.230  12.439  0.00  0.00     0.087 H 
ATOM     42  H39 TSV d         -13.619 -11.533  11.150  0.00  0.00     0.086 H 
ATOM     43  H43 TSV d         -15.263  -9.789  11.269  0.00  0.00     0.068 H 
ATOM     44  H44 TSV d         -16.048 -11.042  12.289  0.00  0.00     0.068 H 
ENDROOT
BRANCH  18  45
ATOM     45  N1  TSV d         -18.278  -9.035  14.275  0.00  0.00    -0.324 N 
ATOM     46  C20 TSV d         -19.154  -9.986  13.982  0.00  0.00     0.362 C 
ATOM     47  O2  TSV d         -19.229 -10.581  12.904  0.00  0.00    -0.238 OA
ATOM     48  H3  TSV d         -18.329  -8.593  15.171  0.00  0.00     0.165 HD
BRANCH  46  49
ATOM     49  O1  TSV d         -20.046 -10.303  15.067  0.00  0.00    -0.294 OA
BRANCH  49  50
ATOM     50  C9  TSV d         -19.894 -11.421  15.947  0.00  0.00     0.061 C 
BRANCH  50  51
ATOM     51  C6  TSV d         -18.572 -12.128  15.677  0.00  0.00    -0.048 C 
ATOM     52  H8  TSV d         -18.765 -13.177  15.409  0.00  0.00     0.031 H 
ATOM     53  H9  TSV d         -17.945 -12.091  16.580  0.00  0.00     0.031 H 
ATOM     54  H10 TSV d         -18.051 -11.627  14.848  0.00  0.00     0.031 H 
ENDBRANCH  50  51
BRANCH  50  55
ATOM     55  C7  TSV d         -19.929 -10.853  17.363  0.00  0.00    -0.048 C 
ATOM     56  H11 TSV d         -19.038 -11.188  17.914  0.00  0.00     0.031 H 
ATOM     57  H12 TSV d         -20.834 -11.207  17.877  0.00  0.00     0.031 H 
ATOM     58  H13 TSV d         -19.939  -9.753  17.317  0.00  0.00     0.031 H 
ENDBRANCH  50  55
BRANCH  50  59
ATOM     59  C8  TSV d         -21.058 -12.382  15.726  0.00  0.00    -0.048 C 
ATOM     60  H14 TSV d         -21.869 -12.142  16.428  0.00  0.00     0.031 H 
ATOM     61  H15 TSV d         -20.719 -13.414  15.898  0.00  0.00     0.031 H 
ATOM     62  H16 TSV d         -21.425 -12.284  14.694  0.00  0.00     0.031 H 
ENDBRANCH  50  59
ENDBRANCH  49  50
ENDBRANCH  46  49
ENDBRANCH  18  45
BRANCH  19  63
ATOM     63  O8  TSV d         -14.116 -12.308  13.026  0.00  0.00    -0.296 OA
BRANCH  63  64
ATOM     64  C35 TSV d         -13.229 -13.418  12.857  0.00  0.00     0.371 C 
ATOM     65  N4  TSV d         -13.198 -14.220  13.872  0.00  0.00    -0.278 N 
ATOM     66  C12 TSV d         -12.490 -15.509  13.842  0.00  0.00     0.000 A 
ATOM     67  C31 TSV d         -13.890 -13.961  15.135  0.00  0.00     0.003 A 
ATOM     68  C24 TSV d         -12.832 -16.068  15.171  0.00  0.00    -0.005 A 
ATOM     69  H18 TSV d         -11.876 -15.939  13.052  0.00  0.00     0.113 H 
ATOM     70  C16 TSV d         -12.446 -17.308  15.674  0.00  0.00    -0.071 A 
ATOM     71  C26 TSV d         -13.611 -15.226  15.895  0.00  0.00     0.030 A 
ATOM     72  C14 TSV d         -12.877 -17.649  16.939  0.00  0.00    -0.079 A 
ATOM     73  H23 TSV d         -11.828 -17.981  15.092  0.00  0.00     0.084 H 
ATOM     74  C17 TSV d         -13.680 -16.783  17.686  0.00  0.00    -0.045 A 
ATOM     75  H21 TSV d         -12.588 -18.605  17.361  0.00  0.00     0.083 H 
ATOM     76  C21 TSV d         -14.049 -15.541  17.151  0.00  0.00     0.128 A 
ATOM     77  H24 TSV d         -14.016 -17.071  18.676  0.00  0.00     0.088 H 
ATOM     78  F1  TSV d         -14.813 -14.675  17.849  0.00  0.00    -0.205 F 
ATOM     79  H40 TSV d         -14.457 -13.083  15.442  0.00  0.00     0.114 H 
ATOM     80  O5  TSV d         -12.571 -13.565  11.831  0.00  0.00    -0.238 OA
ENDBRANCH  63  64
ENDBRANCH  19  63
BRANCH   2  81
ATOM     81  C4  TSV d         -10.973  -5.952  15.214  0.00  0.00     0.260 C 
ATOM     82  N3  TSV d         -10.298  -6.594  14.266  0.00  0.00    -0.252 N 
ATOM     83  H6  TSV d         -10.601  -7.488  13.936  0.00  0.00     0.181 HD
ATOM     84  O9  TSV d         -10.617  -4.890  15.669  0.00  0.00    -0.270 OA
BRANCH  82  85
ATOM     85  S1  TSV d          -9.004  -5.909  13.673  0.00  0.00     0.237 S 
ATOM     86  O4  TSV d          -8.121  -5.462  14.712  0.00  0.00    -0.205 OA
ATOM     87  O6  TSV d          -9.387  -4.845  12.764  0.00  0.00    -0.205 OA
BRANCH  85  88
ATOM     88  C23 TSV d          -8.281  -7.090  12.744  0.00  0.00     0.063 A 
ATOM     89  C29 TSV d          -6.895  -6.764  12.196  0.00  0.00    -0.046 A 
ATOM     90  C32 TSV d          -7.035  -7.776  13.312  0.00  0.00    -0.046 A 
ATOM     91  H37 TSV d          -6.442  -5.782  12.399  0.00  0.00     0.035 H 
ATOM     92  H38 TSV d          -6.612  -7.096  11.186  0.00  0.00     0.035 H 
ATOM     93  H41 TSV d          -6.855  -8.842  13.112  0.00  0.00     0.035 H 
ATOM     94  H42 TSV d          -6.685  -7.528  14.325  0.00  0.00     0.035 H 
ATOM     95  H31 TSV d          -9.023  -7.646  12.152  0.00  0.00     0.066 H 
ENDBRANCH  85  88
ENDBRANCH  82  85
ENDBRANCH   2  81
TORSDOF 11
ENDMDL
MODEL 2
REMARK VINA RESULT:      -9.3      1.593      2.033
REMARK  11 active torsions:
REMARK  status: ('A' for Active; 'I' for Inactive)
REMARK       I    between atoms: N1_3  and  C20_36 
REMARK    1  A    between atoms: C28_44  and  N1_3 
REMARK    2  A    between atoms: O1_4  and  C9_24 
REMARK    3  A    between atoms: C20_36  and  O1_4 
REMARK    4  A    between atoms: N3_10  and  S1_5 
REMARK    5  A    between atoms: S1_5  and  C23_39 
REMARK    6  A    between atoms: C2_6  and  C4_12 
REMARK       I    between atoms: C4_12  and  N3_10 
REMARK       I    between atoms: C35_51  and  N4_13 
REMARK    7  A    between atoms: C9_24  and  C6_18 
REMARK    8  A    between atoms: C9_24  and  C7_20 
REMARK    9  A    between atoms: C9_24  and  C8_22 
REMARK   10  A    between atoms: C30_46  and  O8_23 
REMARK   11  A    between atoms: O8_23  and  C35_51 
ROOT
ATOM      1  C1  TSV d         -12.710  -6.304  17.131  0.00  0.00    -0.023 A 
ATOM      2  C2  TSV d         -12.283  -6.666  15.711  0.00  0.00     0.122 A 
ATOM      3  N2  TSV d         -12.596  -8.008  15.287  0.00  0.00    -0.341 N 
ATOM      4  C3  TSV d         -13.549  -5.820  15.965  0.00  0.00    -0.002 A 
ATOM      5  O3  TSV d         -15.718  -8.243  14.991  0.00  0.00    -0.271 OA
ATOM      6  C5  TSV d         -13.543  -4.345  15.680  0.00  0.00    -0.100 C 
ATOM      7  N5  TSV d         -15.043  -9.557  13.332  0.00  0.00    -0.334 N 
ATOM      8  O7  TSV d         -13.208  -7.364  13.215  0.00  0.00    -0.271 OA
ATOM      9  C10 TSV d         -14.411  -3.763  14.835  0.00  0.00    -0.106 C 
ATOM     10  C11 TSV d         -13.107  -8.237  14.084  0.00  0.00     0.241 C 
ATOM     11  C13 TSV d         -15.496  -4.503  14.077  0.00  0.00    -0.050 C 
ATOM     12  C15 TSV d         -13.665  -9.610  13.852  0.00  0.00     0.094 C 
ATOM     13  C18 TSV d         -15.310  -4.412  12.572  0.00  0.00    -0.062 C 
ATOM     14  C19 TSV d         -16.445  -5.117  11.807  0.00  0.00    -0.065 C 
ATOM     15  C22 TSV d         -16.419  -6.642  11.946  0.00  0.00    -0.063 C 
ATOM     16  C25 TSV d         -17.488  -7.142  12.920  0.00  0.00    -0.038 C 
ATOM     17  C27 TSV d         -12.925 -10.340  12.749  0.00  0.00    -0.011 C 
ATOM     18  C28 TSV d         -17.303  -8.609  13.277  0.00  0.00     0.091 C 
ATOM     19  C30 TSV d         -13.957 -11.238  12.133  0.00  0.00     0.067 C 
ATOM     20  C33 TSV d         -15.955  -8.800  13.935  0.00  0.00     0.243 C 
ATOM     21  C34 TSV d         -15.214 -10.411  12.136  0.00  0.00     0.023 C 
ATOM     22  H1  TSV d         -12.116  -5.585  17.714  0.00  0.00     0.038 H 
ATOM     23  H2  TSV d         -13.101  -7.084  17.801  0.00  0.00     0.038 H 
ATOM     24  H4  TSV d         -12.427  -8.775  15.906  0.00  0.00     0.163 HD
ATOM     25  H5  TSV d         -14.545  -6.241  15.767  0.00  0.00     0.050 H 
ATOM     26  H7  TSV d         -12.803  -3.720  16.179  0.00  0.00     0.077 H 
ATOM     27  H17 TSV d         -14.330  -2.687  14.684  0.00  0.00     0.076 H 
ATOM     28  H19 TSV d         -16.471  -4.069  14.341  0.00  0.00     0.038 H 
ATOM     29  H20 TSV d         -15.475  -5.562  14.373  0.00  0.00     0.038 H 
ATOM     30  H22 TSV d         -13.623 -10.178  14.794  0.00  0.00     0.088 H 
ATOM     31  H25 TSV d         -14.354  -4.883  12.303  0.00  0.00     0.033 H 
ATOM     32  H26 TSV d         -15.291  -3.351  12.281  0.00  0.00     0.033 H 
ATOM     33  H27 TSV d         -16.357  -4.862  10.741  0.00  0.00     0.033 H 
ATOM     34  H28 TSV d         -17.407  -4.749  12.193  0.00  0.00     0.033 H 
ATOM     35  H29 TSV d         -15.429  -6.949  12.315  0.00  0.00     0.033 H 
ATOM     36  H30 TSV d         -16.598  -7.093  10.959  0.00  0.00     0.033 H 
ATOM     37  H32 TSV d         -18.477  -7.013  12.456  0.00  0.00     0.036 H 
ATOM     38  H33 TSV d         -17.434  -6.543  13.842  0.00  0.00     0.036 H 
ATOM     39  H34 TSV d         -12.094 -10.929  13.162  0.00  0.00     0.040 H 
ATOM     40  H35 TSV d         -12.536  -9.628  12.005  0.00  0.00     0.040 H 
ATOM     41  H36 TSV d         -17.355  -9.219  12.363  0.00  0.00     0.087 H 
ATOM     42  H39 TSV d         -13.668 -11.567  11.125  0.00  0.00     0.086 H 
ATOM     43  H43 TSV d         -15.290  -9.803  11.223  0.00  0.00     0.068 H 
ATOM     44  H44 TSV d         -16.107 -11.048  12.228  0.00  0.00     0.068 H 
ENDROOT
BRANCH  18  45
ATOM     45  N1  TSV d         -18.341  -9.016  14.185  0.00  0.00    -0.324 N 
ATOM     46  C20 TSV d         -19.191  -9.993  13.897  0.00  0.00     0.362 C 
ATOM     47  O2  TSV d         -19.224 -10.623  12.838  0.00  0.00    -0.238 OA
ATOM     48  H3  TSV d         -18.426  -8.547  15.064  0.00  0.00     0.165 HD
BRANCH  46  49
ATOM     49  O1  TSV d         -20.109 -10.291  14.966  0.00  0.00    -0.294 OA
BRANCH  49  50
ATOM     50  C9  TSV d         -19.943 -11.352  15.910  0.00  0.00     0.061 C 
BRANCH  50  51
ATOM     51  C6  TSV d         -20.036 -10.814  17.332  0.00  0.00    -0.048 C 
ATOM     52  H8  TSV d         -21.093 -10.675  17.603  0.00  0.00     0.031 H 
ATOM     53  H9  TSV d         -19.512  -9.848  17.394  0.00  0.00     0.031 H 
ATOM     54  H10 TSV d         -19.569 -11.528  18.026  0.00  0.00     0.031 H 
ENDBRANCH  50  51
BRANCH  50  55
ATOM     55  C7  TSV d         -21.065 -12.348  15.630  0.00  0.00    -0.048 C 
ATOM     56  H11 TSV d         -21.894 -12.172  16.332  0.00  0.00     0.031 H 
ATOM     57  H12 TSV d         -20.687 -13.372  15.758  0.00  0.00     0.031 H 
ATOM     58  H13 TSV d         -21.424 -12.215  14.599  0.00  0.00     0.031 H 
ENDBRANCH  50  55
BRANCH  50  59
ATOM     59  C8  TSV d         -18.581 -12.003  15.684  0.00  0.00    -0.048 C 
ATOM     60  H14 TSV d         -17.867 -11.627  16.430  0.00  0.00     0.031 H 
ATOM     61  H15 TSV d         -18.221 -11.758  14.675  0.00  0.00     0.031 H 
ATOM     62  H16 TSV d         -18.675 -13.095  15.784  0.00  0.00     0.031 H 
ENDBRANCH  50  59
ENDBRANCH  49  50
ENDBRANCH  46  49
ENDBRANCH  18  45
BRANCH  19  63
ATOM     63  O8  TSV d         -14.204 -12.340  12.991  0.00  0.00    -0.296 OA
BRANCH  63  64
ATOM     64  C35 TSV d         -15.207 -13.261  12.550  0.00  0.00     0.371 C 
ATOM     65  N4  TSV d         -15.713 -13.976  13.504  0.00  0.00    -0.278 N 
ATOM     66  C12 TSV d         -16.873 -14.857  13.303  0.00  0.00     0.000 A 
ATOM     67  C31 TSV d         -15.221 -13.960  14.882  0.00  0.00     0.003 A 
ATOM     68  C24 TSV d         -17.108 -15.359  14.677  0.00  0.00    -0.005 A 
ATOM     69  H18 TSV d         -17.416 -15.083  12.386  0.00  0.00     0.113 H 
ATOM     70  C16 TSV d         -18.123 -16.221  15.084  0.00  0.00    -0.071 A 
ATOM     71  C26 TSV d         -16.206 -14.866  15.563  0.00  0.00     0.030 A 
ATOM     72  C14 TSV d         -18.176 -16.565  16.419  0.00  0.00    -0.079 A 
ATOM     73  H23 TSV d         -18.845 -16.609  14.376  0.00  0.00     0.084 H 
ATOM     74  C17 TSV d         -17.248 -16.058  17.332  0.00  0.00    -0.045 A 
ATOM     75  H21 TSV d         -18.950 -17.240  16.765  0.00  0.00     0.083 H 
ATOM     76  C21 TSV d         -16.237 -15.193  16.890  0.00  0.00     0.128 A 
ATOM     77  H24 TSV d         -17.309 -16.333  18.379  0.00  0.00     0.088 H 
ATOM     78  F1  TSV d         -15.317 -14.694  17.741  0.00  0.00    -0.205 F 
ATOM     79  H40 TSV d         -14.366 -13.430  15.301  0.00  0.00     0.114 H 
ATOM     80  O5  TSV d         -15.534 -13.340  11.370  0.00  0.00    -0.238 OA
ENDBRANCH  63  64
ENDBRANCH  19  63
BRANCH   2  81
ATOM     81  C4  TSV d         -11.012  -6.031  15.244  0.00  0.00     0.260 C 
ATOM     82  N3  TSV d         -10.312  -6.697  14.329  0.00  0.00    -0.252 N 
ATOM     83  H6  TSV d         -10.609  -7.598  14.012  0.00  0.00     0.181 HD
ATOM     84  O9  TSV d         -10.664  -4.961  15.684  0.00  0.00    -0.270 OA
BRANCH  82  85
ATOM     85  S1  TSV d          -9.000  -6.030  13.758  0.00  0.00     0.237 S 
ATOM     86  O4  TSV d          -8.093  -7.012  13.238  0.00  0.00    -0.205 OA
ATOM     87  O6  TSV d          -8.396  -5.189  14.775  0.00  0.00    -0.205 OA
BRANCH  85  88
ATOM     88  C23 TSV d          -9.529  -5.008  12.550  0.00  0.00     0.063 A 
ATOM     89  C29 TSV d          -8.857  -5.166  11.190  0.00  0.00    -0.046 A 
ATOM     90  C32 TSV d         -10.284  -5.632  11.373  0.00  0.00    -0.046 A 
ATOM     91  H37 TSV d          -8.051  -5.903  11.059  0.00  0.00     0.035 H 
ATOM     92  H38 TSV d          -8.644  -4.277  10.577  0.00  0.00     0.035 H 
ATOM     93  H41 TSV d         -11.108  -5.083  10.895  0.00  0.00     0.035 H 
ATOM     94  H42 TSV d         -10.514  -6.708  11.377  0.00  0.00     0.035 H 
ATOM     95  H31 TSV d          -9.805  -4.022  12.951  0.00  0.00     0.066 H 
ENDBRANCH  85  88
ENDBRANCH  82  85
ENDBRANCH   2  81
TORSDOF 11
ENDMDL
