MODEL 1
REMARK VINA RESULT:      -8.9      0.000      0.000
REMARK  4 active torsions:
REMARK  status: ('A' for Active; 'I' for Inactive)
REMARK    1  A    between atoms: C9_9  and  O20_18 
REMARK    2  A    between atoms: C10_10  and  O19_17 
REMARK    3  A    between atoms: C15_15  and  O23_21 
REMARK    4  A    between atoms: C16_16  and  O22_20 
ROOT
ATOM      1  C1  REF d          37.344  -4.842   8.004  0.00  0.00     0.042 A 
ATOM      2  C2  REF d          36.896  -5.205   9.259  0.00  0.00     0.030 A 
ATOM      3  C3  REF d          36.585  -4.193  10.127  0.00  0.00     0.030 A 
ATOM      4  C4  REF d          36.729  -2.864   9.740  0.00  0.00     0.126 A 
ATOM      5  O5  REF d          37.149  -2.550   8.543  0.00  0.00    -0.281 OA
ATOM      6  C6  REF d          37.450  -3.486   7.680  0.00  0.00     0.232 A 
ATOM      7  C7  REF d          36.133  -4.558  11.380  0.00  0.00     0.042 A 
ATOM      8  C8  REF d          35.812  -3.578  12.310  0.00  0.00    -0.033 A 
ATOM      9  C9  REF d          35.958  -2.246  11.950  0.00  0.00     0.102 A 
ATOM     10  C10 REF d          36.407  -1.898  10.689  0.00  0.00     0.134 A 
ATOM     11  C11 REF d          36.757  -6.533   9.660  0.00  0.00     0.126 A 
ATOM     12  O12 REF d          36.322  -6.849  10.845  0.00  0.00    -0.281 OA
ATOM     13  C13 REF d          36.012  -5.910  11.694  0.00  0.00     0.232 A 
ATOM     14  C14 REF d          37.676  -5.845   7.102  0.00  0.00    -0.033 A 
ATOM     15  C15 REF d          37.560  -7.176   7.494  0.00  0.00     0.102 A 
ATOM     16  C16 REF d          37.103  -7.526   8.760  0.00  0.00     0.134 A 
ATOM     17  O21 REF d          35.571  -6.230  12.914  0.00  0.00    -0.163 OA
ATOM     18  O24 REF d          37.874  -3.146   6.438  0.00  0.00    -0.163 OA
ATOM     19  H1  REF d          35.456  -3.849  13.297  0.00  0.00     0.089 H 
ATOM     20  H2  REF d          38.023  -5.595   6.106  0.00  0.00     0.089 H 
ENDROOT
BRANCH   9  21
ATOM     21  O20 REF d          35.664  -1.231  12.839  0.00  0.00    -0.358 OA
ATOM     22  H4  REF d          35.201  -1.590  13.587  0.00  0.00     0.217 HD
ENDBRANCH   9  21
BRANCH  10  23
ATOM     23  O19 REF d          36.514  -0.598  10.450  0.00  0.00    -0.356 OA
ATOM     24  H3  REF d          36.835  -0.465   9.566  0.00  0.00     0.218 HD
ENDBRANCH  10  23
BRANCH  16  25
ATOM     25  O22 REF d          37.014  -8.862   9.120  0.00  0.00    -0.356 OA
ATOM     26  H5  REF d          36.805  -8.927  10.044  0.00  0.00     0.218 HD
ENDBRANCH  16  25
BRANCH  15  27
ATOM     27  O23 REF d          37.907  -8.168   6.628  0.00  0.00    -0.358 OA
ATOM     28  H6  REF d          37.461  -8.034   5.800  0.00  0.00     0.217 HD
ENDBRANCH  15  27
TORSDOF 4
ENDMDL
MODEL 2
REMARK VINA RESULT:      -8.9      0.110      6.135
REMARK  4 active torsions:
REMARK  status: ('A' for Active; 'I' for Inactive)
REMARK    1  A    between atoms: C9_9  and  O20_18 
REMARK    2  A    between atoms: C10_10  and  O19_17 
REMARK    3  A    between atoms: C15_15  and  O23_21 
REMARK    4  A    between atoms: C16_16  and  O22_20 
ROOT
ATOM      1  C1  REF d          36.134  -4.542  11.376  0.00  0.00     0.042 A 
ATOM      2  C2  REF d          36.578  -4.151  10.128  0.00  0.00     0.030 A 
ATOM      3  C3  REF d          36.897  -5.144   9.239  0.00  0.00     0.030 A 
ATOM      4  C4  REF d          36.776  -6.481   9.604  0.00  0.00     0.126 A 
ATOM      5  O5  REF d          36.347  -6.822  10.791  0.00  0.00    -0.281 OA
ATOM      6  C6  REF d          36.025  -5.905  11.667  0.00  0.00     0.232 A 
ATOM      7  C7  REF d          37.336  -4.750   7.991  0.00  0.00     0.042 A 
ATOM      8  C8  REF d          37.686  -5.709   7.050  0.00  0.00    -0.033 A 
ATOM      9  C9  REF d          37.584  -7.049   7.395  0.00  0.00     0.102 A 
ATOM     10  C10 REF d          37.138  -7.425   8.648  0.00  0.00     0.134 A 
ATOM     11  C11 REF d          36.711  -2.814   9.754  0.00  0.00     0.126 A 
ATOM     12  O12 REF d          37.121  -2.472   8.568  0.00  0.00    -0.281 OA
ATOM     13  C13 REF d          37.429  -3.392   7.696  0.00  0.00     0.232 A 
ATOM     14  C14 REF d          35.811  -3.559  12.303  0.00  0.00    -0.033 A 
ATOM     15  C15 REF d          35.956  -2.220  11.951  0.00  0.00     0.102 A 
ATOM     16  C16 REF d          36.401  -1.842  10.689  0.00  0.00     0.134 A 
ATOM     17  O21 REF d          37.855  -3.045   6.479  0.00  0.00    -0.163 OA
ATOM     18  O24 REF d          35.570  -6.273  12.891  0.00  0.00    -0.163 OA
ATOM     19  H1  REF d          38.033  -5.417   6.065  0.00  0.00     0.089 H 
ATOM     20  H2  REF d          35.452  -3.832  13.289  0.00  0.00     0.089 H 
ENDROOT
BRANCH   9  21
ATOM     21  O20 REF d          37.930  -8.044   6.501  0.00  0.00    -0.358 OA
ATOM     22  H4  REF d          38.163  -7.653   5.667  0.00  0.00     0.217 HD
ENDBRANCH   9  21
BRANCH  10  23
ATOM     23  O19 REF d          37.082  -8.730   8.877  0.00  0.00    -0.356 OA
ATOM     24  H3  REF d          36.524  -8.896   9.627  0.00  0.00     0.218 HD
ENDBRANCH  10  23
BRANCH  16  25
ATOM     25  O22 REF d          36.546  -0.498  10.379  0.00  0.00    -0.356 OA
ATOM     26  H5  REF d          35.765  -0.191   9.933  0.00  0.00     0.218 HD
ENDBRANCH  16  25
BRANCH  15  27
ATOM     27  O23 REF d          35.667  -1.248  12.860  0.00  0.00    -0.358 OA
ATOM     28  H6  REF d          35.946  -0.407  12.521  0.00  0.00     0.217 HD
ENDBRANCH  15  27
TORSDOF 4
ENDMDL
MODEL 3
REMARK VINA RESULT:      -8.7      1.351      4.509
REMARK  4 active torsions:
REMARK  status: ('A' for Active; 'I' for Inactive)
REMARK    1  A    between atoms: C9_9  and  O20_18 
REMARK    2  A    between atoms: C10_10  and  O19_17 
REMARK    3  A    between atoms: C15_15  and  O23_21 
REMARK    4  A    between atoms: C16_16  and  O22_20 
ROOT
ATOM      1  C1  REF d          37.424  -4.281   7.845  0.00  0.00     0.042 A 
ATOM      2  C2  REF d          36.946  -3.834   9.061  0.00  0.00     0.030 A 
ATOM      3  C3  REF d          36.653  -4.782  10.004  0.00  0.00     0.030 A 
ATOM      4  C4  REF d          36.830  -6.133   9.722  0.00  0.00     0.126 A 
ATOM      5  O5  REF d          37.290  -6.528   8.564  0.00  0.00    -0.281 OA
ATOM      6  C6  REF d          37.590  -5.653   7.638  0.00  0.00     0.232 A 
ATOM      7  C7  REF d          36.179  -4.332  11.220  0.00  0.00     0.042 A 
ATOM      8  C8  REF d          35.852  -5.246  12.214  0.00  0.00    -0.033 A 
ATOM      9  C9  REF d          36.011  -6.598  11.952  0.00  0.00     0.102 A 
ATOM     10  C10 REF d          36.491  -7.032  10.729  0.00  0.00     0.134 A 
ATOM     11  C11 REF d          36.755  -2.483   9.351  0.00  0.00     0.126 A 
ATOM     12  O12 REF d          36.314  -2.086  10.509  0.00  0.00    -0.281 OA
ATOM     13  C13 REF d          36.029  -2.963  11.430  0.00  0.00     0.232 A 
ATOM     14  C14 REF d          37.723  -3.344   6.864  0.00  0.00    -0.033 A 
ATOM     15  C15 REF d          37.521  -1.993   7.132  0.00  0.00     0.102 A 
ATOM     16  C16 REF d          37.042  -1.557   8.363  0.00  0.00     0.134 A 
ATOM     17  O21 REF d          35.571  -2.560  12.619  0.00  0.00    -0.163 OA
ATOM     18  O24 REF d          38.078  -6.076   6.445  0.00  0.00    -0.163 OA
ATOM     19  H1  REF d          35.479  -4.908  13.174  0.00  0.00     0.089 H 
ATOM     20  H2  REF d          38.108  -3.662   5.901  0.00  0.00     0.089 H 
ENDROOT
BRANCH   9  21
ATOM     21  O20 REF d          35.691  -7.551  12.900  0.00  0.00    -0.358 OA
ATOM     22  H4  REF d          36.285  -7.475  13.637  0.00  0.00     0.217 HD
ENDBRANCH   9  21
BRANCH  10  23
ATOM     23  O19 REF d          36.601  -8.345  10.582  0.00  0.00    -0.356 OA
ATOM     24  H3  REF d          35.737  -8.738  10.598  0.00  0.00     0.218 HD
ENDBRANCH  10  23
BRANCH  16  25
ATOM     25  O22 REF d          36.841  -0.204   8.588  0.00  0.00    -0.356 OA
ATOM     26  H5  REF d          37.677   0.248   8.568  0.00  0.00     0.218 HD
ENDBRANCH  16  25
BRANCH  15  27
ATOM     27  O23 REF d          37.786  -1.067   6.169  0.00  0.00    -0.358 OA
ATOM     28  H6  REF d          37.041  -0.998   5.585  0.00  0.00     0.217 HD
ENDBRANCH  15  27
TORSDOF 4
ENDMDL
MODEL 4
REMARK VINA RESULT:      -8.5      1.324      4.151
REMARK  4 active torsions:
REMARK  status: ('A' for Active; 'I' for Inactive)
REMARK    1  A    between atoms: C9_9  and  O20_18 
REMARK    2  A    between atoms: C10_10  and  O19_17 
REMARK    3  A    between atoms: C15_15  and  O23_21 
REMARK    4  A    between atoms: C16_16  and  O22_20 
ROOT
ATOM      1  C1  REF d          36.164  -4.669  11.399  0.00  0.00     0.042 A 
ATOM      2  C2  REF d          36.605  -5.054  10.149  0.00  0.00     0.030 A 
ATOM      3  C3  REF d          36.840  -4.061   9.236  0.00  0.00     0.030 A 
ATOM      4  C4  REF d          36.629  -2.728   9.576  0.00  0.00     0.126 A 
ATOM      5  O5  REF d          36.216  -2.392  10.770  0.00  0.00    -0.281 OA
ATOM      6  C6  REF d          35.987  -3.310  11.674  0.00  0.00     0.232 A 
ATOM      7  C7  REF d          37.286  -4.449   7.988  0.00  0.00     0.042 A 
ATOM      8  C8  REF d          37.530  -3.489   7.015  0.00  0.00    -0.033 A 
ATOM      9  C9  REF d          37.317  -2.155   7.327  0.00  0.00     0.102 A 
ATOM     10  C10 REF d          36.875  -1.783   8.584  0.00  0.00     0.134 A 
ATOM     11  C11 REF d          36.812  -6.387   9.795  0.00  0.00     0.126 A 
ATOM     12  O12 REF d          37.239  -6.724   8.613  0.00  0.00    -0.281 OA
ATOM     13  C13 REF d          37.477  -5.803   7.722  0.00  0.00     0.232 A 
ATOM     14  C14 REF d          35.908  -5.653  12.345  0.00  0.00    -0.033 A 
ATOM     15  C15 REF d          36.092  -6.990  12.002  0.00  0.00     0.102 A 
ATOM     16  C16 REF d          36.541  -7.363  10.739  0.00  0.00     0.134 A 
ATOM     17  O21 REF d          37.910  -6.144   6.505  0.00  0.00    -0.163 OA
ATOM     18  O24 REF d          35.571  -2.946  12.912  0.00  0.00    -0.163 OA
ATOM     19  H1  REF d          37.881  -3.777   6.030  0.00  0.00     0.089 H 
ATOM     20  H2  REF d          35.568  -5.384  13.339  0.00  0.00     0.089 H 
ENDROOT
BRANCH   9  21
ATOM     21  O20 REF d          37.533  -1.160   6.394  0.00  0.00    -0.358 OA
ATOM     22  H4  REF d          37.861  -1.547   5.590  0.00  0.00     0.217 HD
ENDBRANCH   9  21
BRANCH  10  23
ATOM     23  O19 REF d          36.699  -0.483   8.777  0.00  0.00    -0.356 OA
ATOM     24  H3  REF d          37.478  -0.115   9.174  0.00  0.00     0.218 HD
ENDBRANCH  10  23
BRANCH  16  25
ATOM     25  O22 REF d          36.699  -8.704  10.428  0.00  0.00    -0.356 OA
ATOM     26  H5  REF d          36.768  -8.804   9.485  0.00  0.00     0.218 HD
ENDBRANCH  16  25
BRANCH  15  27
ATOM     27  O23 REF d          35.820  -7.965  12.912  0.00  0.00    -0.358 OA
ATOM     28  H6  REF d          35.765  -7.581  13.778  0.00  0.00     0.217 HD
ENDBRANCH  15  27
TORSDOF 4
ENDMDL
MODEL 5
REMARK VINA RESULT:      -8.5      1.307      5.194
REMARK  4 active torsions:
REMARK  status: ('A' for Active; 'I' for Inactive)
REMARK    1  A    between atoms: C9_9  and  O20_18 
REMARK    2  A    between atoms: C10_10  and  O19_17 
REMARK    3  A    between atoms: C15_15  and  O23_21 
REMARK    4  A    between atoms: C16_16  and  O22_20 
ROOT
ATOM      1  C1  REF d          36.442  -2.890  10.348  0.00  0.00     0.042 A 
ATOM      2  C2  REF d          36.785  -3.934   9.513  0.00  0.00     0.030 A 
ATOM      3  C3  REF d          36.620  -5.204   9.999  0.00  0.00     0.030 A 
ATOM      4  C4  REF d          36.131  -5.406  11.285  0.00  0.00     0.126 A 
ATOM      5  O5  REF d          35.808  -4.399  12.053  0.00  0.00    -0.281 OA
ATOM      6  C6  REF d          35.943  -3.170  11.624  0.00  0.00     0.232 A 
ATOM      7  C7  REF d          36.960  -6.246   9.160  0.00  0.00     0.042 A 
ATOM      8  C8  REF d          36.827  -7.556   9.599  0.00  0.00    -0.033 A 
ATOM      9  C9  REF d          36.351  -7.783  10.882  0.00  0.00     0.102 A 
ATOM     10  C10 REF d          36.010  -6.727  11.708  0.00  0.00     0.134 A 
ATOM     11  C11 REF d          37.285  -3.742   8.225  0.00  0.00     0.126 A 
ATOM     12  O12 REF d          37.591  -4.743   7.452  0.00  0.00    -0.281 OA
ATOM     13  C13 REF d          37.441  -5.965   7.883  0.00  0.00     0.232 A 
ATOM     14  C14 REF d          36.606  -1.589   9.888  0.00  0.00    -0.033 A 
ATOM     15  C15 REF d          37.120  -1.381   8.611  0.00  0.00     0.102 A 
ATOM     16  C16 REF d          37.458  -2.443   7.779  0.00  0.00     0.134 A 
ATOM     17  O21 REF d          37.760  -6.996   7.095  0.00  0.00    -0.163 OA
ATOM     18  O24 REF d          35.593  -2.134  12.427  0.00  0.00    -0.163 OA
ATOM     19  H1  REF d          37.089  -8.386   8.952  0.00  0.00     0.089 H 
ATOM     20  H2  REF d          36.337  -0.747  10.516  0.00  0.00     0.089 H 
ENDROOT
BRANCH   9  21
ATOM     21  O20 REF d          36.209  -9.066  11.374  0.00  0.00    -0.358 OA
ATOM     22  H4  REF d          36.206  -9.683  10.651  0.00  0.00     0.217 HD
ENDBRANCH   9  21
BRANCH  10  23
ATOM     23  O19 REF d          35.571  -7.054  12.915  0.00  0.00    -0.356 OA
ATOM     24  H3  REF d          36.216  -6.803  13.565  0.00  0.00     0.218 HD
ENDBRANCH  10  23
BRANCH  16  25
ATOM     25  O22 REF d          37.981  -2.197   6.519  0.00  0.00    -0.356 OA
ATOM     26  H5  REF d          38.302  -1.303   6.480  0.00  0.00     0.218 HD
ENDBRANCH  16  25
BRANCH  15  27
ATOM     27  O23 REF d          37.309  -0.111   8.159  0.00  0.00    -0.358 OA
ATOM     28  H6  REF d          37.086  -0.068   7.237  0.00  0.00     0.217 HD
ENDBRANCH  15  27
TORSDOF 4
ENDMDL
MODEL 6
REMARK VINA RESULT:      -8.1      1.344      3.465
REMARK  4 active torsions:
REMARK  status: ('A' for Active; 'I' for Inactive)
REMARK    1  A    between atoms: C9_9  and  O20_18 
REMARK    2  A    between atoms: C10_10  and  O19_17 
REMARK    3  A    between atoms: C15_15  and  O23_21 
REMARK    4  A    between atoms: C16_16  and  O22_20 
ROOT
ATOM      1  C1  REF d          36.711  -6.168   9.059  0.00  0.00     0.042 A 
ATOM      2  C2  REF d          36.569  -5.068   9.882  0.00  0.00     0.030 A 
ATOM      3  C3  REF d          36.837  -3.841   9.335  0.00  0.00     0.030 A 
ATOM      4  C4  REF d          37.240  -3.734   8.008  0.00  0.00     0.126 A 
ATOM      5  O5  REF d          37.361  -4.793   7.250  0.00  0.00    -0.281 OA
ATOM      6  C6  REF d          37.107  -5.983   7.731  0.00  0.00     0.232 A 
ATOM      7  C7  REF d          36.690  -2.743  10.159  0.00  0.00     0.042 A 
ATOM      8  C8  REF d          36.958  -1.472   9.667  0.00  0.00    -0.033 A 
ATOM      9  C9  REF d          37.372  -1.342   8.350  0.00  0.00     0.102 A 
ATOM     10  C10 REF d          37.510  -2.453   7.537  0.00  0.00     0.134 A 
ATOM     11  C11 REF d          36.174  -5.164  11.216  0.00  0.00     0.126 A 
ATOM     12  O12 REF d          36.036  -4.111  11.967  0.00  0.00    -0.281 OA
ATOM     13  C13 REF d          36.279  -2.928  11.477  0.00  0.00     0.232 A 
ATOM     14  C14 REF d          36.455  -7.428   9.586  0.00  0.00    -0.033 A 
ATOM     15  C15 REF d          36.077  -7.542  10.921  0.00  0.00     0.102 A 
ATOM     16  C16 REF d          35.935  -6.424  11.736  0.00  0.00     0.134 A 
ATOM     17  O21 REF d          36.145  -1.844  12.247  0.00  0.00    -0.163 OA
ATOM     18  O24 REF d          37.225  -7.072   6.931  0.00  0.00    -0.163 OA
ATOM     19  H1  REF d          36.847  -0.599  10.301  0.00  0.00     0.089 H 
ATOM     20  H2  REF d          36.549  -8.311   8.964  0.00  0.00     0.089 H 
ENDROOT
BRANCH   9  21
ATOM     21  O20 REF d          37.663  -0.103   7.812  0.00  0.00    -0.358 OA
ATOM     22  H4  REF d          37.212  -0.005   6.982  0.00  0.00     0.217 HD
ENDBRANCH   9  21
BRANCH  10  23
ATOM     23  O19 REF d          37.915  -2.218   6.297  0.00  0.00    -0.356 OA
ATOM     24  H3  REF d          37.681  -2.954   5.744  0.00  0.00     0.218 HD
ENDBRANCH  10  23
BRANCH  16  25
ATOM     25  O22 REF d          35.571  -6.578  13.065  0.00  0.00    -0.356 OA
ATOM     26  H5  REF d          34.670  -6.296  13.180  0.00  0.00     0.218 HD
ENDBRANCH  16  25
BRANCH  15  27
ATOM     27  O23 REF d          35.849  -8.773  11.455  0.00  0.00    -0.358 OA
ATOM     28  H6  REF d          36.319  -8.853  12.275  0.00  0.00     0.217 HD
ENDBRANCH  15  27
TORSDOF 4
ENDMDL
MODEL 7
REMARK VINA RESULT:      -7.5      0.973      5.002
REMARK  4 active torsions:
REMARK  status: ('A' for Active; 'I' for Inactive)
REMARK    1  A    between atoms: C9_9  and  O20_18 
REMARK    2  A    between atoms: C10_10  and  O19_17 
REMARK    3  A    between atoms: C15_15  and  O23_21 
REMARK    4  A    between atoms: C16_16  and  O22_20 
ROOT
ATOM      1  C1  REF d          37.025  -2.995   8.958  0.00  0.00     0.042 A 
ATOM      2  C2  REF d          36.754  -4.091   9.753  0.00  0.00     0.030 A 
ATOM      3  C3  REF d          36.961  -5.328   9.204  0.00  0.00     0.030 A 
ATOM      4  C4  REF d          37.420  -5.450   7.896  0.00  0.00     0.126 A 
ATOM      5  O5  REF d          37.675  -4.395   7.168  0.00  0.00    -0.281 OA
ATOM      6  C6  REF d          37.497  -3.194   7.657  0.00  0.00     0.232 A 
ATOM      7  C7  REF d          36.693  -6.421  10.003  0.00  0.00     0.042 A 
ATOM      8  C8  REF d          36.872  -7.703   9.500  0.00  0.00    -0.033 A 
ATOM      9  C9  REF d          37.319  -7.849   8.195  0.00  0.00     0.102 A 
ATOM     10  C10 REF d          37.587  -6.743   7.410  0.00  0.00     0.134 A 
ATOM     11  C11 REF d          36.285  -3.980  11.062  0.00  0.00     0.126 A 
ATOM     12  O12 REF d          36.047  -5.028  11.795  0.00  0.00    -0.281 OA
ATOM     13  C13 REF d          36.238  -6.221  11.305  0.00  0.00     0.232 A 
ATOM     14  C14 REF d          36.817  -1.726   9.482  0.00  0.00    -0.033 A 
ATOM     15  C15 REF d          36.332  -1.599  10.781  0.00  0.00     0.102 A 
ATOM     16  C16 REF d          36.066  -2.712  11.572  0.00  0.00     0.134 A 
ATOM     17  O21 REF d          35.990  -7.300  12.052  0.00  0.00    -0.163 OA
ATOM     18  O24 REF d          37.777  -2.108   6.894  0.00  0.00    -0.163 OA
ATOM     19  H1  REF d          36.666  -8.572  10.115  0.00  0.00     0.089 H 
ATOM     20  H2  REF d          37.028  -0.845   8.886  0.00  0.00     0.089 H 
ENDROOT
BRANCH   9  21
ATOM     21  O20 REF d          37.504  -9.101   7.640  0.00  0.00    -0.358 OA
ATOM     22  H4  REF d          38.412  -9.361   7.742  0.00  0.00     0.217 HD
ENDBRANCH   9  21
BRANCH  10  23
ATOM     23  O19 REF d          38.005  -6.994   6.177  0.00  0.00    -0.356 OA
ATOM     24  H3  REF d          38.081  -6.178   5.697  0.00  0.00     0.218 HD
ENDBRANCH  10  23
BRANCH  16  25
ATOM     25  O22 REF d          35.571  -2.547  12.856  0.00  0.00    -0.356 OA
ATOM     26  H5  REF d          34.723  -2.120  12.814  0.00  0.00     0.218 HD
ENDBRANCH  16  25
BRANCH  15  27
ATOM     27  O23 REF d          36.099  -0.361  11.297  0.00  0.00    -0.358 OA
ATOM     28  H6  REF d          36.397  -0.334  12.198  0.00  0.00     0.217 HD
ENDBRANCH  15  27
TORSDOF 4
ENDMDL
