MODEL 1
REMARK VINA RESULT:      -7.5      0.000      0.000
REMARK  4 active torsions:
REMARK  status: ('A' for Active; 'I' for Inactive)
REMARK    1  A    between atoms: C3_2  and  O3_3 
REMARK    2  A    between atoms: C4_4  and  O4_5 
REMARK    3  A    between atoms: C_8  and  C1_12 
REMARK    4  A    between atoms: C1_12  and  O30_10 
ROOT
ATOM      1  C2  FA1 d          44.217   7.432  26.858  0.00  0.00    -0.001 C 
ATOM      2  C3  FA1 d          43.179   7.694  25.780  0.00  0.00     0.067 C 
ATOM      3  C4  FA1 d          43.804   7.435  24.407  0.00  0.00     0.076 C 
ATOM      4  C5  FA1 d          44.470   6.071  24.377  0.00  0.00    -0.074 C 
ATOM      5  C6  FA1 d          44.870   5.440  25.548  0.00  0.00    -0.066 C 
ATOM      6  C1  FA1 d          44.674   5.950  26.856  0.00  0.00     0.145 C 
ATOM      7  H1  FA1 d          43.781   7.671  27.840  0.00  0.00     0.042 H 
ATOM      8  H2  FA1 d          45.091   8.076  26.678  0.00  0.00     0.042 H 
ATOM      9  H3  FA1 d          42.332   7.006  25.922  0.00  0.00     0.087 H 
ATOM     10  H5  FA1 d          44.554   8.208  24.185  0.00  0.00     0.093 H 
ATOM     11  H7  FA1 d          44.637   5.579  23.420  0.00  0.00     0.080 H 
ATOM     12  H8  FA1 d          45.372   4.478  25.454  0.00  0.00     0.081 H 
ENDROOT
BRANCH   6  13
ATOM     13  C   FA1 d          46.051   5.774  27.524  0.00  0.00     0.327 C 
ATOM     14  O1  FA1 d          46.327   6.637  28.623  0.00  0.00    -0.184 OA
ATOM     15  O2  FA1 d          46.313   4.412  27.759  0.00  0.00    -0.184 OA
ENDBRANCH   6  13
BRANCH   6  16
ATOM     16  O30 FA1 d          43.676   5.061  27.476  0.00  0.00    -0.380 OA
ATOM     17  H9  FA1 d          42.967   5.583  27.834  0.00  0.00     0.211 HD
ENDBRANCH   6  16
BRANCH   2  18
ATOM     18  O3  FA1 d          42.690   9.060  25.871  0.00  0.00    -0.393 OA
ATOM     19  H4  FA1 d          42.526   9.396  24.998  0.00  0.00     0.210 HD
ENDBRANCH   2  18
BRANCH   3  20
ATOM     20  O4  FA1 d          42.760   7.495  23.466  0.00  0.00    -0.389 OA
ATOM     21  H6  FA1 d          41.973   7.817  23.889  0.00  0.00     0.210 HD
ENDBRANCH   3  20
TORSDOF 4
ENDMDL
MODEL 2
REMARK VINA RESULT:      -5.5      1.308      4.111
REMARK  4 active torsions:
REMARK  status: ('A' for Active; 'I' for Inactive)
REMARK    1  A    between atoms: C3_2  and  O3_3 
REMARK    2  A    between atoms: C4_4  and  O4_5 
REMARK    3  A    between atoms: C_8  and  C1_12 
REMARK    4  A    between atoms: C1_12  and  O30_10 
ROOT
ATOM      1  C2  FA1 d          44.602   7.393  27.276  0.00  0.00    -0.001 C 
ATOM      2  C3  FA1 d          45.742   6.388  27.292  0.00  0.00     0.067 C 
ATOM      3  C4  FA1 d          45.216   5.023  26.841  0.00  0.00     0.076 C 
ATOM      4  C5  FA1 d          44.458   5.154  25.533  0.00  0.00    -0.074 C 
ATOM      5  C6  FA1 d          43.917   6.370  25.132  0.00  0.00    -0.066 C 
ATOM      6  C1  FA1 d          44.040   7.589  25.844  0.00  0.00     0.145 C 
ATOM      7  H1  FA1 d          44.971   8.359  27.652  0.00  0.00     0.042 H 
ATOM      8  H2  FA1 d          43.795   7.029  27.930  0.00  0.00     0.042 H 
ATOM      9  H3  FA1 d          46.522   6.720  26.590  0.00  0.00     0.087 H 
ATOM     10  H5  FA1 d          44.545   4.609  27.608  0.00  0.00     0.093 H 
ATOM     11  H7  FA1 d          44.335   4.278  24.897  0.00  0.00     0.080 H 
ATOM     12  H8  FA1 d          43.356   6.387  24.199  0.00  0.00     0.081 H 
ENDROOT
BRANCH   6  13
ATOM     13  C   FA1 d          42.604   8.145  25.863  0.00  0.00     0.327 C 
ATOM     14  O1  FA1 d          41.959   8.256  24.598  0.00  0.00    -0.184 OA
ATOM     15  O2  FA1 d          41.845   7.512  26.863  0.00  0.00    -0.184 OA
ENDBRANCH   6  13
BRANCH   6  16
ATOM     16  O30 FA1 d          44.916   8.437  25.016  0.00  0.00    -0.380 OA
ATOM     17  H9  FA1 d          45.485   8.948  25.580  0.00  0.00     0.211 HD
ENDBRANCH   6  16
BRANCH   2  18
ATOM     18  O3  FA1 d          46.320   6.301  28.623  0.00  0.00    -0.393 OA
ATOM     19  H4  FA1 d          46.450   5.389  28.852  0.00  0.00     0.210 HD
ENDBRANCH   2  18
BRANCH   3  20
ATOM     20  O4  FA1 d          46.336   4.188  26.681  0.00  0.00    -0.389 OA
ATOM     21  H6  FA1 d          46.499   4.053  25.756  0.00  0.00     0.210 HD
ENDBRANCH   3  20
TORSDOF 4
ENDMDL
MODEL 3
REMARK VINA RESULT:      -4.9      1.391      4.209
REMARK  4 active torsions:
REMARK  status: ('A' for Active; 'I' for Inactive)
REMARK    1  A    between atoms: C3_2  and  O3_3 
REMARK    2  A    between atoms: C4_4  and  O4_5 
REMARK    3  A    between atoms: C_8  and  C1_12 
REMARK    4  A    between atoms: C1_12  and  O30_10 
ROOT
ATOM      1  C2  FA1 d          44.168   6.282  25.447  0.00  0.00    -0.001 C 
ATOM      2  C3  FA1 d          44.821   5.103  26.151  0.00  0.00     0.067 C 
ATOM      3  C4  FA1 d          45.906   5.622  27.099  0.00  0.00     0.076 C 
ATOM      4  C5  FA1 d          45.347   6.711  27.997  0.00  0.00    -0.074 C 
ATOM      5  C6  FA1 d          44.217   7.433  27.635  0.00  0.00    -0.066 C 
ATOM      6  C1  FA1 d          43.458   7.221  26.457  0.00  0.00     0.145 C 
ATOM      7  H1  FA1 d          43.427   5.903  24.728  0.00  0.00     0.042 H 
ATOM      8  H2  FA1 d          44.942   6.852  24.912  0.00  0.00     0.042 H 
ATOM      9  H3  FA1 d          44.059   4.569  26.738  0.00  0.00     0.087 H 
ATOM     10  H5  FA1 d          46.748   6.028  26.519  0.00  0.00     0.093 H 
ATOM     11  H7  FA1 d          45.842   6.930  28.942  0.00  0.00     0.080 H 
ATOM     12  H8  FA1 d          43.889   8.223  28.308  0.00  0.00     0.081 H 
ENDROOT
BRANCH   6  13
ATOM     13  C   FA1 d          43.269   8.639  25.886  0.00  0.00     0.327 C 
ATOM     14  O1  FA1 d          44.462   9.365  25.608  0.00  0.00    -0.184 OA
ATOM     15  O2  FA1 d          42.324   8.627  24.844  0.00  0.00    -0.184 OA
ENDBRANCH   6  13
BRANCH   6  16
ATOM     16  O30 FA1 d          42.171   6.668  26.917  0.00  0.00    -0.380 OA
ATOM     17  H9  FA1 d          41.462   7.224  26.613  0.00  0.00     0.211 HD
ENDBRANCH   6  16
BRANCH   2  18
ATOM     18  O3  FA1 d          45.388   4.185  25.177  0.00  0.00    -0.393 OA
ATOM     19  H4  FA1 d          45.639   4.666  24.397  0.00  0.00     0.210 HD
ENDBRANCH   2  18
BRANCH   3  20
ATOM     20  O4  FA1 d          46.336   4.523  27.864  0.00  0.00    -0.389 OA
ATOM     21  H6  FA1 d          46.372   3.750  27.314  0.00  0.00     0.210 HD
ENDBRANCH   3  20
TORSDOF 4
ENDMDL
