MODEL 1
REMARK VINA RESULT:      -4.6      0.000      0.000
REMARK  3 active torsions:
REMARK  status: ('A' for Active; 'I' for Inactive)
REMARK    1  A    between atoms: C1'_1  and  C2_7 
REMARK    2  A    between atoms: C2_7  and  C1_8 
REMARK    3  A    between atoms: C1_8  and  N_9 
ROOT
ATOM      1  C1' PEA d          45.853  20.176  50.800  0.00  0.00    -0.057 A 
ATOM      2  C6' PEA d          46.663  21.004  51.558  0.00  0.00    -0.077 A 
ATOM      3  C5' PEA d          46.929  22.319  51.215  0.00  0.00    -0.082 A 
ATOM      4  C4' PEA d          46.389  22.864  50.059  0.00  0.00    -0.083 A 
ATOM      5  C3' PEA d          45.591  22.043  49.284  0.00  0.00    -0.082 A 
ATOM      6  C2' PEA d          45.335  20.742  49.646  0.00  0.00    -0.077 A 
ATOM      7  H1  PEA d          47.110  20.604  52.461  0.00  0.00     0.084 H 
ATOM      8  H2  PEA d          47.561  22.926  51.853  0.00  0.00     0.083 H 
ATOM      9  H3  PEA d          46.585  23.892  49.776  0.00  0.00     0.083 H 
ATOM     10  H4  PEA d          45.159  22.435  48.370  0.00  0.00     0.083 H 
ATOM     11  H5  PEA d          44.705  20.136  49.005  0.00  0.00     0.084 H 
ENDROOT
BRANCH   1  12
ATOM     12  C2  PEA d          45.588  18.848  51.200  0.00  0.00    -0.019 C 
ATOM     13  H6  PEA d          46.371  18.190  50.795  0.00  0.00     0.042 H 
ATOM     14  H7  PEA d          44.609  18.544  50.800  0.00  0.00     0.042 H 
BRANCH  12  15
ATOM     15  C1  PEA d          45.564  18.712  52.753  0.00  0.00     0.083 C 
ATOM     16  H8  PEA d          44.553  18.945  53.116  0.00  0.00     0.075 H 
ATOM     17  H9  PEA d          46.282  19.424  53.185  0.00  0.00     0.075 H 
BRANCH  15  18
ATOM     18  N   PEA d          45.929  17.330  53.189  0.00  0.00    -0.079 N 
ATOM     19  H10 PEA d          46.687  17.376  53.852  0.00  0.00     0.274 HD
ATOM     20  H11 PEA d          46.216  16.790  52.388  0.00  0.00     0.274 HD
ATOM     21  H12 PEA d          45.131  16.891  53.621  0.00  0.00     0.274 HD
ENDBRANCH  15  18
ENDBRANCH  12  15
ENDBRANCH   1  12
TORSDOF 3
ENDMDL
MODEL 2
REMARK VINA RESULT:      -4.5      0.047      1.570
REMARK  3 active torsions:
REMARK  status: ('A' for Active; 'I' for Inactive)
REMARK    1  A    between atoms: C1'_1  and  C2_7 
REMARK    2  A    between atoms: C2_7  and  C1_8 
REMARK    3  A    between atoms: C1_8  and  N_9 
ROOT
ATOM      1  C1' PEA d          45.852  20.181  50.859  0.00  0.00    -0.057 A 
ATOM      2  C6' PEA d          45.335  20.714  49.691  0.00  0.00    -0.077 A 
ATOM      3  C5' PEA d          45.602  22.006  49.267  0.00  0.00    -0.082 A 
ATOM      4  C4' PEA d          46.409  22.839  50.027  0.00  0.00    -0.083 A 
ATOM      5  C3' PEA d          46.919  22.326  51.205  0.00  0.00    -0.082 A 
ATOM      6  C2' PEA d          46.647  21.039  51.604  0.00  0.00    -0.077 A 
ATOM      7  H1  PEA d          44.691  20.092  49.081  0.00  0.00     0.084 H 
ATOM      8  H2  PEA d          45.179  22.367  48.337  0.00  0.00     0.083 H 
ATOM      9  H3  PEA d          46.630  23.852  49.711  0.00  0.00     0.083 H 
ATOM     10  H4  PEA d          47.548  22.952  51.828  0.00  0.00     0.083 H 
ATOM     11  H5  PEA d          47.069  20.681  52.536  0.00  0.00     0.084 H 
ENDROOT
BRANCH   1  12
ATOM     12  C2  PEA d          45.576  18.851  51.240  0.00  0.00    -0.019 C 
ATOM     13  H6  PEA d          46.342  18.189  50.809  0.00  0.00     0.042 H 
ATOM     14  H7  PEA d          44.585  18.568  50.854  0.00  0.00     0.042 H 
BRANCH  12  15
ATOM     15  C1  PEA d          45.580  18.687  52.791  0.00  0.00     0.083 C 
ATOM     16  H8  PEA d          44.580  18.933  53.178  0.00  0.00     0.075 H 
ATOM     17  H9  PEA d          46.320  19.377  53.221  0.00  0.00     0.075 H 
BRANCH  15  18
ATOM     18  N   PEA d          45.926  17.290  53.194  0.00  0.00    -0.079 N 
ATOM     19  H10 PEA d          46.433  16.841  52.448  0.00  0.00     0.274 HD
ATOM     20  H11 PEA d          45.081  16.776  53.383  0.00  0.00     0.274 HD
ATOM     21  H12 PEA d          46.499  17.312  54.024  0.00  0.00     0.274 HD
ENDBRANCH  15  18
ENDBRANCH  12  15
ENDBRANCH   1  12
TORSDOF 3
ENDMDL
MODEL 3
REMARK VINA RESULT:      -4.5      1.462      1.480
REMARK  3 active torsions:
REMARK  status: ('A' for Active; 'I' for Inactive)
REMARK    1  A    between atoms: C1'_1  and  C2_7 
REMARK    2  A    between atoms: C2_7  and  C1_8 
REMARK    3  A    between atoms: C1_8  and  N_9 
ROOT
ATOM      1  C1' PEA d          44.994  20.197  51.170  0.00  0.00    -0.057 A 
ATOM      2  C6' PEA d          45.217  21.233  52.059  0.00  0.00    -0.077 A 
ATOM      3  C5' PEA d          44.736  22.517  51.859  0.00  0.00    -0.082 A 
ATOM      4  C4' PEA d          44.004  22.820  50.720  0.00  0.00    -0.083 A 
ATOM      5  C3' PEA d          43.788  21.798  49.815  0.00  0.00    -0.082 A 
ATOM      6  C2' PEA d          44.269  20.530  50.036  0.00  0.00    -0.077 A 
ATOM      7  H1  PEA d          45.796  21.031  52.953  0.00  0.00     0.084 H 
ATOM      8  H2  PEA d          44.931  23.288  52.596  0.00  0.00     0.083 H 
ATOM      9  H3  PEA d          43.618  23.819  50.547  0.00  0.00     0.083 H 
ATOM     10  H4  PEA d          43.226  22.002  48.910  0.00  0.00     0.083 H 
ATOM     11  H5  PEA d          44.075  19.761  49.297  0.00  0.00     0.084 H 
ENDROOT
BRANCH   1  12
ATOM     12  C2  PEA d          45.481  18.897  51.426  0.00  0.00    -0.019 C 
ATOM     13  H6  PEA d          46.467  18.784  50.949  0.00  0.00     0.042 H 
ATOM     14  H7  PEA d          44.781  18.163  51.001  0.00  0.00     0.042 H 
BRANCH  12  15
ATOM     15  C1  PEA d          45.626  18.630  52.955  0.00  0.00     0.083 C 
ATOM     16  H8  PEA d          44.687  18.908  53.456  0.00  0.00     0.075 H 
ATOM     17  H9  PEA d          46.448  19.246  53.349  0.00  0.00     0.075 H 
BRANCH  15  18
ATOM     18  N   PEA d          45.918  17.192  53.237  0.00  0.00    -0.079 N 
ATOM     19  H10 PEA d          45.069  16.724  53.510  0.00  0.00     0.274 HD
ATOM     20  H11 PEA d          46.592  17.126  53.984  0.00  0.00     0.274 HD
ATOM     21  H12 PEA d          46.291  16.756  52.408  0.00  0.00     0.274 HD
ENDBRANCH  15  18
ENDBRANCH  12  15
ENDBRANCH   1  12
TORSDOF 3
ENDMDL
MODEL 4
REMARK VINA RESULT:      -4.5      1.508      2.171
REMARK  3 active torsions:
REMARK  status: ('A' for Active; 'I' for Inactive)
REMARK    1  A    between atoms: C1'_1  and  C2_7 
REMARK    2  A    between atoms: C2_7  and  C1_8 
REMARK    3  A    between atoms: C1_8  and  N_9 
ROOT
ATOM      1  C1' PEA d          45.109  20.380  51.290  0.00  0.00    -0.057 A 
ATOM      2  C6' PEA d          44.369  20.632  50.148  0.00  0.00    -0.077 A 
ATOM      3  C5' PEA d          43.781  21.858  49.884  0.00  0.00    -0.082 A 
ATOM      4  C4' PEA d          43.904  22.902  50.788  0.00  0.00    -0.083 A 
ATOM      5  C3' PEA d          44.626  22.661  51.942  0.00  0.00    -0.082 A 
ATOM      6  C2' PEA d          45.208  21.438  52.181  0.00  0.00    -0.077 A 
ATOM      7  H1  PEA d          44.244  19.832  49.427  0.00  0.00     0.084 H 
ATOM      8  H2  PEA d          43.222  22.002  48.966  0.00  0.00     0.083 H 
ATOM      9  H3  PEA d          43.451  23.869  50.598  0.00  0.00     0.083 H 
ATOM     10  H4  PEA d          44.737  23.453  52.674  0.00  0.00     0.083 H 
ATOM     11  H5  PEA d          45.763  21.295  53.101  0.00  0.00     0.084 H 
ENDROOT
BRANCH   1  12
ATOM     12  C2  PEA d          45.713  19.124  51.507  0.00  0.00    -0.019 C 
ATOM     13  H6  PEA d          46.755  19.162  51.154  0.00  0.00     0.042 H 
ATOM     14  H7  PEA d          45.161  18.359  50.941  0.00  0.00     0.042 H 
BRANCH  12  15
ATOM     15  C1  PEA d          45.706  18.737  53.018  0.00  0.00     0.083 C 
ATOM     16  H8  PEA d          44.738  19.024  53.455  0.00  0.00     0.075 H 
ATOM     17  H9  PEA d          46.515  19.280  53.529  0.00  0.00     0.075 H 
BRANCH  15  18
ATOM     18  N   PEA d          45.910  17.269  53.211  0.00  0.00    -0.079 N 
ATOM     19  H10 PEA d          45.635  16.779  52.374  0.00  0.00     0.274 HD
ATOM     20  H11 PEA d          45.349  16.951  53.985  0.00  0.00     0.274 HD
ATOM     21  H12 PEA d          46.882  17.087  53.403  0.00  0.00     0.274 HD
ENDBRANCH  15  18
ENDBRANCH  12  15
ENDBRANCH   1  12
TORSDOF 3
ENDMDL
MODEL 5
REMARK VINA RESULT:      -4.3      2.596      4.259
REMARK  3 active torsions:
REMARK  status: ('A' for Active; 'I' for Inactive)
REMARK    1  A    between atoms: C1'_1  and  C2_7 
REMARK    2  A    between atoms: C2_7  and  C1_8 
REMARK    3  A    between atoms: C1_8  and  N_9 
ROOT
ATOM      1  C1' PEA d          45.599  20.711  50.395  0.00  0.00    -0.057 A 
ATOM      2  C6' PEA d          44.765  19.619  50.230  0.00  0.00    -0.077 A 
ATOM      3  C5' PEA d          44.671  18.593  51.157  0.00  0.00    -0.082 A 
ATOM      4  C4' PEA d          45.444  18.618  52.309  0.00  0.00    -0.083 A 
ATOM      5  C3' PEA d          46.294  19.695  52.479  0.00  0.00    -0.082 A 
ATOM      6  C2' PEA d          46.366  20.705  51.550  0.00  0.00    -0.077 A 
ATOM      7  H1  PEA d          44.157  19.563  49.335  0.00  0.00     0.084 H 
ATOM      8  H2  PEA d          43.992  17.767  50.982  0.00  0.00     0.083 H 
ATOM      9  H3  PEA d          45.383  17.825  53.046  0.00  0.00     0.083 H 
ATOM     10  H4  PEA d          46.918  19.743  53.365  0.00  0.00     0.083 H 
ATOM     11  H5  PEA d          47.049  21.529  51.726  0.00  0.00     0.084 H 
ENDROOT
BRANCH   1  12
ATOM     12  C2  PEA d          45.643  21.747  49.438  0.00  0.00    -0.019 C 
ATOM     13  H6  PEA d          45.454  21.320  48.441  0.00  0.00     0.042 H 
ATOM     14  H7  PEA d          46.642  22.208  49.457  0.00  0.00     0.042 H 
BRANCH  12  15
ATOM     15  C1  PEA d          44.574  22.843  49.730  0.00  0.00     0.083 C 
ATOM     16  H8  PEA d          44.992  23.827  49.471  0.00  0.00     0.075 H 
ATOM     17  H9  PEA d          44.324  22.822  50.801  0.00  0.00     0.075 H 
BRANCH  15  18
ATOM     18  N   PEA d          43.327  22.621  48.936  0.00  0.00    -0.079 N 
ATOM     19  H10 PEA d          42.712  22.004  49.443  0.00  0.00     0.274 HD
ATOM     20  H11 PEA d          43.564  22.205  48.049  0.00  0.00     0.274 HD
ATOM     21  H12 PEA d          42.866  23.503  48.781  0.00  0.00     0.274 HD
ENDBRANCH  15  18
ENDBRANCH  12  15
ENDBRANCH   1  12
TORSDOF 3
ENDMDL
MODEL 6
REMARK VINA RESULT:      -3.9      2.142      3.744
REMARK  3 active torsions:
REMARK  status: ('A' for Active; 'I' for Inactive)
REMARK    1  A    between atoms: C1'_1  and  C2_7 
REMARK    2  A    between atoms: C2_7  and  C1_8 
REMARK    3  A    between atoms: C1_8  and  N_9 
ROOT
ATOM      1  C1' PEA d          46.233  21.001  51.275  0.00  0.00    -0.057 A 
ATOM      2  C6' PEA d          45.197  21.020  50.358  0.00  0.00    -0.077 A 
ATOM      3  C5' PEA d          44.325  19.957  50.182  0.00  0.00    -0.082 A 
ATOM      4  C4' PEA d          44.474  18.798  50.929  0.00  0.00    -0.083 A 
ATOM      5  C3' PEA d          45.516  18.759  51.837  0.00  0.00    -0.082 A 
ATOM      6  C2' PEA d          46.365  19.827  52.001  0.00  0.00    -0.077 A 
ATOM      7  H1  PEA d          45.061  21.906  49.750  0.00  0.00     0.084 H 
ATOM      8  H2  PEA d          43.523  20.031  49.456  0.00  0.00     0.083 H 
ATOM      9  H3  PEA d          43.801  17.957  50.806  0.00  0.00     0.083 H 
ATOM     10  H4  PEA d          45.666  17.866  52.433  0.00  0.00     0.083 H 
ATOM     11  H5  PEA d          47.169  19.749  52.725  0.00  0.00     0.084 H 
ENDROOT
BRANCH   1  12
ATOM     12  C2  PEA d          47.082  22.116  51.441  0.00  0.00    -0.019 C 
ATOM     13  H6  PEA d          46.711  22.943  50.817  0.00  0.00     0.042 H 
ATOM     14  H7  PEA d          48.098  21.842  51.120  0.00  0.00     0.042 H 
BRANCH  12  15
ATOM     15  C1  PEA d          47.129  22.584  52.927  0.00  0.00     0.083 C 
ATOM     16  H8  PEA d          47.802  23.451  53.007  0.00  0.00     0.075 H 
ATOM     17  H9  PEA d          47.515  21.762  53.548  0.00  0.00     0.075 H 
BRANCH  15  18
ATOM     18  N   PEA d          45.775  22.974  53.424  0.00  0.00    -0.079 N 
ATOM     19  H10 PEA d          45.115  22.243  53.208  0.00  0.00     0.274 HD
ATOM     20  H11 PEA d          45.486  23.829  52.977  0.00  0.00     0.274 HD
ATOM     21  H12 PEA d          45.809  23.111  54.422  0.00  0.00     0.274 HD
ENDBRANCH  15  18
ENDBRANCH  12  15
ENDBRANCH   1  12
TORSDOF 3
ENDMDL
MODEL 7
REMARK VINA RESULT:      -3.8      2.197      3.503
REMARK  3 active torsions:
REMARK  status: ('A' for Active; 'I' for Inactive)
REMARK    1  A    between atoms: C1'_1  and  C2_7 
REMARK    2  A    between atoms: C2_7  and  C1_8 
REMARK    3  A    between atoms: C1_8  and  N_9 
ROOT
ATOM      1  C1' PEA d          46.200  21.089  51.273  0.00  0.00    -0.057 A 
ATOM      2  C6' PEA d          46.300  19.953  52.057  0.00  0.00    -0.077 A 
ATOM      3  C5' PEA d          45.496  18.839  51.879  0.00  0.00    -0.082 A 
ATOM      4  C4' PEA d          44.525  18.828  50.889  0.00  0.00    -0.083 A 
ATOM      5  C3' PEA d          44.402  19.962  50.109  0.00  0.00    -0.082 A 
ATOM      6  C2' PEA d          45.215  21.055  50.298  0.00  0.00    -0.077 A 
ATOM      7  H1  PEA d          47.042  19.935  52.847  0.00  0.00     0.084 H 
ATOM      8  H2  PEA d          45.627  17.971  52.516  0.00  0.00     0.083 H 
ATOM      9  H3  PEA d          43.887  17.964  50.734  0.00  0.00     0.083 H 
ATOM     10  H4  PEA d          43.648  19.991  49.330  0.00  0.00     0.083 H 
ATOM     11  H5  PEA d          45.080  21.922  49.662  0.00  0.00     0.084 H 
ENDROOT
BRANCH   1  12
ATOM     12  C2  PEA d          47.057  22.192  51.472  0.00  0.00    -0.019 C 
ATOM     13  H6  PEA d          46.729  23.021  50.827  0.00  0.00     0.042 H 
ATOM     14  H7  PEA d          48.083  21.900  51.201  0.00  0.00     0.042 H 
BRANCH  12  15
ATOM     15  C1  PEA d          47.043  22.669  52.956  0.00  0.00     0.083 C 
ATOM     16  H8  PEA d          47.789  23.466  53.082  0.00  0.00     0.075 H 
ATOM     17  H9  PEA d          47.300  21.820  53.607  0.00  0.00     0.075 H 
BRANCH  15  18
ATOM     18  N   PEA d          45.700  23.194  53.351  0.00  0.00    -0.079 N 
ATOM     19  H10 PEA d          45.016  22.459  53.272  0.00  0.00     0.274 HD
ATOM     20  H11 PEA d          45.446  23.956  52.743  0.00  0.00     0.274 HD
ATOM     21  H12 PEA d          45.734  23.520  54.304  0.00  0.00     0.274 HD
ENDBRANCH  15  18
ENDBRANCH  12  15
ENDBRANCH   1  12
TORSDOF 3
ENDMDL
MODEL 8
REMARK VINA RESULT:      -3.8      1.469      1.730
REMARK  3 active torsions:
REMARK  status: ('A' for Active; 'I' for Inactive)
REMARK    1  A    between atoms: C1'_1  and  C2_7 
REMARK    2  A    between atoms: C2_7  and  C1_8 
REMARK    3  A    between atoms: C1_8  and  N_9 
ROOT
ATOM      1  C1' PEA d          45.073  21.192  50.799  0.00  0.00    -0.057 A 
ATOM      2  C6' PEA d          44.848  21.840  52.001  0.00  0.00    -0.077 A 
ATOM      3  C5' PEA d          45.399  23.073  52.309  0.00  0.00    -0.082 A 
ATOM      4  C4' PEA d          46.232  23.713  51.404  0.00  0.00    -0.083 A 
ATOM      5  C3' PEA d          46.480  23.070  50.205  0.00  0.00    -0.082 A 
ATOM      6  C2' PEA d          45.917  21.850  49.917  0.00  0.00    -0.077 A 
ATOM      7  H1  PEA d          44.211  21.360  52.735  0.00  0.00     0.084 H 
ATOM      8  H2  PEA d          45.178  23.540  53.262  0.00  0.00     0.083 H 
ATOM      9  H3  PEA d          46.672  24.679  51.627  0.00  0.00     0.083 H 
ATOM     10  H4  PEA d          47.133  23.539  49.477  0.00  0.00     0.083 H 
ATOM     11  H5  PEA d          46.142  21.383  48.964  0.00  0.00     0.084 H 
ENDROOT
BRANCH   1  12
ATOM     12  C2  PEA d          44.470  19.948  50.515  0.00  0.00    -0.019 C 
ATOM     13  H6  PEA d          44.376  19.837  49.424  0.00  0.00     0.042 H 
ATOM     14  H7  PEA d          43.471  19.923  50.974  0.00  0.00     0.042 H 
BRANCH  12  15
ATOM     15  C1  PEA d          45.313  18.762  51.074  0.00  0.00     0.083 C 
ATOM     16  H8  PEA d          46.064  19.156  51.773  0.00  0.00     0.075 H 
ATOM     17  H9  PEA d          45.820  18.258  50.237  0.00  0.00     0.075 H 
BRANCH  15  18
ATOM     18  N   PEA d          44.457  17.769  51.791  0.00  0.00    -0.079 N 
ATOM     19  H10 PEA d          44.368  18.039  52.758  0.00  0.00     0.274 HD
ATOM     20  H11 PEA d          44.881  16.857  51.735  0.00  0.00     0.274 HD
ATOM     21  H12 PEA d          43.544  17.742  51.364  0.00  0.00     0.274 HD
ENDBRANCH  15  18
ENDBRANCH  12  15
ENDBRANCH   1  12
TORSDOF 3
ENDMDL
MODEL 9
REMARK VINA RESULT:      -3.7      2.522      3.935
REMARK  3 active torsions:
REMARK  status: ('A' for Active; 'I' for Inactive)
REMARK    1  A    between atoms: C1'_1  and  C2_7 
REMARK    2  A    between atoms: C2_7  and  C1_8 
REMARK    3  A    between atoms: C1_8  and  N_9 
ROOT
ATOM      1  C1' PEA d          45.412  21.171  50.203  0.00  0.00    -0.057 A 
ATOM      2  C6' PEA d          46.304  20.920  51.230  0.00  0.00    -0.077 A 
ATOM      3  C5' PEA d          46.299  19.747  51.966  0.00  0.00    -0.082 A 
ATOM      4  C4' PEA d          45.362  18.759  51.701  0.00  0.00    -0.083 A 
ATOM      5  C3' PEA d          44.453  19.003  50.688  0.00  0.00    -0.082 A 
ATOM      6  C2' PEA d          44.480  20.172  49.965  0.00  0.00    -0.077 A 
ATOM      7  H1  PEA d          47.042  21.678  51.470  0.00  0.00     0.084 H 
ATOM      8  H2  PEA d          47.029  19.599  52.753  0.00  0.00     0.083 H 
ATOM      9  H3  PEA d          45.343  17.833  52.265  0.00  0.00     0.083 H 
ATOM     10  H4  PEA d          43.702  18.255  50.458  0.00  0.00     0.083 H 
ATOM     11  H5  PEA d          43.747  20.319  49.181  0.00  0.00     0.084 H 
ENDROOT
BRANCH   1  12
ATOM     12  C2  PEA d          45.470  22.370  49.461  0.00  0.00    -0.019 C 
ATOM     13  H6  PEA d          45.691  22.130  48.410  0.00  0.00     0.042 H 
ATOM     14  H7  PEA d          46.271  23.004  49.869  0.00  0.00     0.042 H 
BRANCH  12  15
ATOM     15  C1  PEA d          44.123  23.152  49.529  0.00  0.00     0.083 C 
ATOM     16  H8  PEA d          43.322  22.520  49.118  0.00  0.00     0.075 H 
ATOM     17  H9  PEA d          44.211  24.069  48.928  0.00  0.00     0.075 H 
BRANCH  15  18
ATOM     18  N   PEA d          43.774  23.525  50.934  0.00  0.00    -0.079 N 
ATOM     19  H10 PEA d          44.602  23.844  51.412  0.00  0.00     0.274 HD
ATOM     20  H11 PEA d          43.401  22.721  51.412  0.00  0.00     0.274 HD
ATOM     21  H12 PEA d          43.086  24.262  50.926  0.00  0.00     0.274 HD
ENDBRANCH  15  18
ENDBRANCH  12  15
ENDBRANCH   1  12
TORSDOF 3
ENDMDL
MODEL 10
REMARK VINA RESULT:      -3.6      2.635      3.001
REMARK  3 active torsions:
REMARK  status: ('A' for Active; 'I' for Inactive)
REMARK    1  A    between atoms: C1'_1  and  C2_7 
REMARK    2  A    between atoms: C2_7  and  C1_8 
REMARK    3  A    between atoms: C1_8  and  N_9 
ROOT
ATOM      1  C1' PEA d          45.045  21.123  51.554  0.00  0.00    -0.057 A 
ATOM      2  C6' PEA d          45.974  21.300  52.565  0.00  0.00    -0.077 A 
ATOM      3  C5' PEA d          46.138  22.499  53.239  0.00  0.00    -0.082 A 
ATOM      4  C4' PEA d          45.366  23.601  52.904  0.00  0.00    -0.083 A 
ATOM      5  C3' PEA d          44.445  23.445  51.884  0.00  0.00    -0.082 A 
ATOM      6  C2' PEA d          44.293  22.243  51.233  0.00  0.00    -0.077 A 
ATOM      7  H1  PEA d          46.601  20.461  52.842  0.00  0.00     0.084 H 
ATOM      8  H2  PEA d          46.874  22.577  54.031  0.00  0.00     0.083 H 
ATOM      9  H3  PEA d          45.480  24.548  53.420  0.00  0.00     0.083 H 
ATOM     10  H4  PEA d          43.829  24.288  51.591  0.00  0.00     0.083 H 
ATOM     11  H5  PEA d          43.559  22.169  50.439  0.00  0.00     0.084 H 
ENDROOT
BRANCH   1  12
ATOM     12  C2  PEA d          44.892  19.876  50.912  0.00  0.00    -0.019 C 
ATOM     13  H6  PEA d          44.258  19.228  51.537  0.00  0.00     0.042 H 
ATOM     14  H7  PEA d          45.883  19.413  50.791  0.00  0.00     0.042 H 
BRANCH  12  15
ATOM     15  C1  PEA d          44.231  20.031  49.509  0.00  0.00     0.083 C 
ATOM     16  H8  PEA d          43.568  20.907  49.522  0.00  0.00     0.075 H 
ATOM     17  H9  PEA d          43.642  19.128  49.290  0.00  0.00     0.075 H 
BRANCH  15  18
ATOM     18  N   PEA d          45.256  20.213  48.436  0.00  0.00    -0.079 N 
ATOM     19  H10 PEA d          45.247  21.172  48.124  0.00  0.00     0.274 HD
ATOM     20  H11 PEA d          45.042  19.606  47.661  0.00  0.00     0.274 HD
ATOM     21  H12 PEA d          46.168  19.987  48.800  0.00  0.00     0.274 HD
ENDBRANCH  15  18
ENDBRANCH  12  15
ENDBRANCH   1  12
TORSDOF 3
ENDMDL
