MODEL 1
REMARK VINA RESULT:      -5.3      0.000      0.000
REMARK  2 active torsions:
REMARK  status: ('A' for Active; 'I' for Inactive)
REMARK    1  A    between atoms: C7_4  and  N6_8 
REMARK    2  A    between atoms: N6_8  and  C5_9 
ROOT
ATOM      1  O13 GZ2 d          -9.381  54.310  11.272  0.00  0.00    -0.293 OA
ATOM      2  C11 GZ2 d          -8.577  53.389  11.261  0.00  0.00     0.151 C 
ATOM      3  C12 GZ2 d          -7.419  53.429  12.181  0.00  0.00    -0.017 C 
ATOM      4  C7  GZ2 d          -6.543  52.408  12.237  0.00  0.00     0.030 C 
ATOM      5  C8  GZ2 d          -6.717  51.165  11.394  0.00  0.00    -0.026 C 
ATOM      6  C9  GZ2 d          -8.135  50.954  10.869  0.00  0.00    -0.054 C 
ATOM      7  C10 GZ2 d          -8.768  52.221  10.316  0.00  0.00    -0.006 C 
ATOM      8  H1  GZ2 d          -7.272  54.296  12.823  0.00  0.00     0.092 H 
ATOM      9  H2  GZ2 d          -6.443  50.292  12.005  0.00  0.00     0.042 H 
ATOM     10  H3  GZ2 d          -6.037  51.236  10.531  0.00  0.00     0.042 H 
ATOM     11  H4  GZ2 d          -8.761  50.583  11.694  0.00  0.00     0.034 H 
ATOM     12  H5  GZ2 d          -8.102  50.201  10.067  0.00  0.00     0.034 H 
ATOM     13  H6  GZ2 d          -8.301  52.463   9.349  0.00  0.00     0.044 H 
ATOM     14  H7  GZ2 d          -9.844  52.050  10.170  0.00  0.00     0.044 H 
ENDROOT
BRANCH   4  15
ATOM     15  N6  GZ2 d          -5.444  52.388  13.004  0.00  0.00    -0.192 N 
ATOM     16  H8  GZ2 d          -5.508  51.845  13.877  0.00  0.00     0.184 HD
BRANCH  15  17
ATOM     17  C5  GZ2 d          -4.248  53.002  12.761  0.00  0.00     0.732 A 
ATOM     18  N4  GZ2 d          -3.674  53.098  11.554  0.00  0.00    -0.115 N 
ATOM     19  N3  GZ2 d          -2.477  53.793  11.797  0.00  0.00     0.008 NA
ATOM     20  H9  GZ2 d          -4.029  52.744  10.656  0.00  0.00     0.203 HD
ATOM     21  N2  GZ2 d          -2.416  54.096  13.170  0.00  0.00     0.033 NA
ATOM     22  N1  GZ2 d          -3.563  53.580  13.771  0.00  0.00     0.030 NA
ENDBRANCH  15  17
ENDBRANCH   4  15
TORSDOF 2
ENDMDL
MODEL 2
REMARK VINA RESULT:      -5.2      1.627      2.276
REMARK  2 active torsions:
REMARK  status: ('A' for Active; 'I' for Inactive)
REMARK    1  A    between atoms: C7_4  and  N6_8 
REMARK    2  A    between atoms: N6_8  and  C5_9 
ROOT
ATOM      1  O13 GZ2 d          -7.496  51.557   9.379  0.00  0.00    -0.293 OA
ATOM      2  C11 GZ2 d          -7.255  52.054  10.469  0.00  0.00     0.151 C 
ATOM      3  C12 GZ2 d          -6.071  52.927  10.622  0.00  0.00    -0.017 C 
ATOM      4  C7  GZ2 d          -5.805  53.535  11.792  0.00  0.00     0.030 C 
ATOM      5  C8  GZ2 d          -6.716  53.387  12.991  0.00  0.00    -0.026 C 
ATOM      6  C9  GZ2 d          -8.130  52.922  12.651  0.00  0.00    -0.054 C 
ATOM      7  C10 GZ2 d          -8.164  51.778  11.649  0.00  0.00    -0.006 C 
ATOM      8  H1  GZ2 d          -5.403  53.079   9.775  0.00  0.00     0.092 H 
ATOM      9  H2  GZ2 d          -6.786  54.363  13.494  0.00  0.00     0.042 H 
ATOM     10  H3  GZ2 d          -6.267  52.653  13.676  0.00  0.00     0.042 H 
ATOM     11  H4  GZ2 d          -8.686  53.772  12.229  0.00  0.00     0.034 H 
ATOM     12  H5  GZ2 d          -8.619  52.588  13.579  0.00  0.00     0.034 H 
ATOM     13  H6  GZ2 d          -7.835  50.855  12.147  0.00  0.00     0.044 H 
ATOM     14  H7  GZ2 d          -9.194  51.651  11.286  0.00  0.00     0.044 H 
ENDROOT
BRANCH   4  15
ATOM     15  N6  GZ2 d          -4.729  54.299  12.028  0.00  0.00    -0.192 N 
ATOM     16  H8  GZ2 d          -4.870  55.317  11.960  0.00  0.00     0.184 HD
BRANCH  15  17
ATOM     17  C5  GZ2 d          -3.467  53.884  12.347  0.00  0.00     0.732 A 
ATOM     18  N4  GZ2 d          -2.887  54.066  13.541  0.00  0.00    -0.115 N 
ATOM     19  N3  GZ2 d          -1.613  53.489  13.397  0.00  0.00     0.008 NA
ATOM     20  H9  GZ2 d          -3.283  54.524  14.373  0.00  0.00     0.203 HD
ATOM     21  N2  GZ2 d          -1.515  52.964  12.094  0.00  0.00     0.033 NA
ATOM     22  N1  GZ2 d          -2.716  53.227  11.437  0.00  0.00     0.030 NA
ENDBRANCH  15  17
ENDBRANCH   4  15
TORSDOF 2
ENDMDL
MODEL 3
REMARK VINA RESULT:      -5.1      1.483      2.264
REMARK  2 active torsions:
REMARK  status: ('A' for Active; 'I' for Inactive)
REMARK    1  A    between atoms: C7_4  and  N6_8 
REMARK    2  A    between atoms: N6_8  and  C5_9 
ROOT
ATOM      1  O13 GZ2 d          -8.629  51.024  10.150  0.00  0.00    -0.293 OA
ATOM      2  C11 GZ2 d          -7.942  51.488  11.048  0.00  0.00     0.151 C 
ATOM      3  C12 GZ2 d          -6.517  51.103  11.143  0.00  0.00    -0.017 C 
ATOM      4  C7  GZ2 d          -5.716  51.635  12.084  0.00  0.00     0.030 C 
ATOM      5  C8  GZ2 d          -6.221  52.673  13.063  0.00  0.00    -0.026 C 
ATOM      6  C9  GZ2 d          -7.495  53.388  12.620  0.00  0.00    -0.054 C 
ATOM      7  C10 GZ2 d          -8.547  52.449  12.051  0.00  0.00    -0.006 C 
ATOM      8  H1  GZ2 d          -6.109  50.377  10.440  0.00  0.00     0.092 H 
ATOM      9  H2  GZ2 d          -5.433  53.427  13.202  0.00  0.00     0.042 H 
ATOM     10  H3  GZ2 d          -6.423  52.172  14.022  0.00  0.00     0.042 H 
ATOM     11  H4  GZ2 d          -7.230  54.125  11.846  0.00  0.00     0.034 H 
ATOM     12  H5  GZ2 d          -7.923  53.908  13.489  0.00  0.00     0.034 H 
ATOM     13  H6  GZ2 d          -8.996  51.873  12.873  0.00  0.00     0.044 H 
ATOM     14  H7  GZ2 d          -9.326  53.044  11.552  0.00  0.00     0.044 H 
ENDROOT
BRANCH   4  15
ATOM     15  N6  GZ2 d          -4.431  51.303  12.270  0.00  0.00    -0.192 N 
ATOM     16  H8  GZ2 d          -4.245  50.317  12.505  0.00  0.00     0.184 HD
BRANCH  15  17
ATOM     17  C5  GZ2 d          -3.340  52.119  12.182  0.00  0.00     0.732 A 
ATOM     18  N4  GZ2 d          -2.428  52.275  13.151  0.00  0.00    -0.115 N 
ATOM     19  N3  GZ2 d          -1.514  53.200  12.618  0.00  0.00     0.008 NA
ATOM     20  H9  GZ2 d          -2.403  51.822  14.074  0.00  0.00     0.203 HD
ATOM     21  N2  GZ2 d          -1.936  53.535  11.318  0.00  0.00     0.033 NA
ATOM     22  N1  GZ2 d          -3.110  52.829  11.056  0.00  0.00     0.030 NA
ENDBRANCH  15  17
ENDBRANCH   4  15
TORSDOF 2
ENDMDL
MODEL 4
REMARK VINA RESULT:      -5.0      3.288      5.148
REMARK  2 active torsions:
REMARK  status: ('A' for Active; 'I' for Inactive)
REMARK    1  A    between atoms: C7_4  and  N6_8 
REMARK    2  A    between atoms: N6_8  and  C5_9 
ROOT
ATOM      1  O13 GZ2 d          -2.384  50.994  10.040  0.00  0.00    -0.293 OA
ATOM      2  C11 GZ2 d          -2.638  51.817  10.907  0.00  0.00     0.151 C 
ATOM      3  C12 GZ2 d          -3.855  51.647  11.732  0.00  0.00    -0.017 C 
ATOM      4  C7  GZ2 d          -4.139  52.502  12.732  0.00  0.00     0.030 C 
ATOM      5  C8  GZ2 d          -3.218  53.650  13.082  0.00  0.00    -0.026 C 
ATOM      6  C9  GZ2 d          -1.789  53.489  12.569  0.00  0.00    -0.054 C 
ATOM      7  C10 GZ2 d          -1.715  52.997  11.132  0.00  0.00    -0.006 C 
ATOM      8  H1  GZ2 d          -4.530  50.817  11.528  0.00  0.00     0.092 H 
ATOM      9  H2  GZ2 d          -3.182  53.742  14.177  0.00  0.00     0.042 H 
ATOM     10  H3  GZ2 d          -3.637  54.571  12.649  0.00  0.00     0.042 H 
ATOM     11  H4  GZ2 d          -1.267  52.764  13.213  0.00  0.00     0.034 H 
ATOM     12  H5  GZ2 d          -1.284  54.464  12.631  0.00  0.00     0.034 H 
ATOM     13  H6  GZ2 d          -2.008  53.815  10.458  0.00  0.00     0.044 H 
ATOM     14  H7  GZ2 d          -0.683  52.691  10.910  0.00  0.00     0.044 H 
ENDROOT
BRANCH   4  15
ATOM     15  N6  GZ2 d          -5.242  52.448  13.491  0.00  0.00    -0.192 N 
ATOM     16  H8  GZ2 d          -5.146  51.971  14.400  0.00  0.00     0.184 HD
BRANCH  15  17
ATOM     17  C5  GZ2 d          -6.477  52.952  13.201  0.00  0.00     0.732 A 
ATOM     18  N4  GZ2 d          -7.358  52.376  12.372  0.00  0.00    -0.115 N 
ATOM     19  N3  GZ2 d          -8.462  53.245  12.382  0.00  0.00     0.008 NA
ATOM     20  H9  GZ2 d          -7.250  51.497  11.847  0.00  0.00     0.203 HD
ATOM     21  N2  GZ2 d          -8.173  54.309  13.258  0.00  0.00     0.033 NA
ATOM     22  N1  GZ2 d          -6.895  54.101  13.774  0.00  0.00     0.030 NA
ENDBRANCH  15  17
ENDBRANCH   4  15
TORSDOF 2
ENDMDL
MODEL 5
REMARK VINA RESULT:      -4.5      3.300      4.978
REMARK  2 active torsions:
REMARK  status: ('A' for Active; 'I' for Inactive)
REMARK    1  A    between atoms: C7_4  and  N6_8 
REMARK    2  A    between atoms: N6_8  and  C5_9 
ROOT
ATOM      1  O13 GZ2 d          -1.549  53.565  13.008  0.00  0.00    -0.293 OA
ATOM      2  C11 GZ2 d          -2.516  52.843  12.817  0.00  0.00     0.151 C 
ATOM      3  C12 GZ2 d          -3.875  53.371  13.068  0.00  0.00    -0.017 C 
ATOM      4  C7  GZ2 d          -4.966  52.625  12.817  0.00  0.00     0.030 C 
ATOM      5  C8  GZ2 d          -4.860  51.232  12.237  0.00  0.00    -0.026 C 
ATOM      6  C9  GZ2 d          -3.532  50.939  11.543  0.00  0.00    -0.054 C 
ATOM      7  C10 GZ2 d          -2.322  51.422  12.327  0.00  0.00    -0.006 C 
ATOM      8  H1  GZ2 d          -3.994  54.380  13.462  0.00  0.00     0.092 H 
ATOM      9  H2  GZ2 d          -5.668  51.101  11.503  0.00  0.00     0.042 H 
ATOM     10  H3  GZ2 d          -4.988  50.508  13.056  0.00  0.00     0.042 H 
ATOM     11  H4  GZ2 d          -3.534  51.438  10.562  0.00  0.00     0.034 H 
ATOM     12  H5  GZ2 d          -3.445  49.852  11.402  0.00  0.00     0.034 H 
ATOM     13  H6  GZ2 d          -2.169  50.762  13.194  0.00  0.00     0.044 H 
ATOM     14  H7  GZ2 d          -1.436  51.385  11.678  0.00  0.00     0.044 H 
ENDROOT
BRANCH   4  15
ATOM     15  N6  GZ2 d          -6.226  53.009  13.063  0.00  0.00    -0.192 N 
ATOM     16  H8  GZ2 d          -6.531  52.968  14.047  0.00  0.00     0.184 HD
BRANCH  15  17
ATOM     17  C5  GZ2 d          -7.153  53.450  12.162  0.00  0.00     0.732 A 
ATOM     18  N4  GZ2 d          -6.858  54.026  10.989  0.00  0.00    -0.115 N 
ATOM     19  N3  GZ2 d          -8.112  54.311  10.420  0.00  0.00     0.008 NA
ATOM     20  H9  GZ2 d          -5.927  54.216  10.595  0.00  0.00     0.203 HD
ATOM     21  N2  GZ2 d          -9.108  53.856  11.304  0.00  0.00     0.033 NA
ATOM     22  N1  GZ2 d          -8.471  53.306  12.416  0.00  0.00     0.030 NA
ENDBRANCH  15  17
ENDBRANCH   4  15
TORSDOF 2
ENDMDL
MODEL 6
REMARK VINA RESULT:      -3.7      3.357      4.954
REMARK  2 active torsions:
REMARK  status: ('A' for Active; 'I' for Inactive)
REMARK    1  A    between atoms: C7_4  and  N6_8 
REMARK    2  A    between atoms: N6_8  and  C5_9 
ROOT
ATOM      1  O13 GZ2 d          -1.513  53.223  13.165  0.00  0.00    -0.293 OA
ATOM      2  C11 GZ2 d          -2.308  52.598  12.478  0.00  0.00     0.151 C 
ATOM      3  C12 GZ2 d          -3.718  52.495  12.913  0.00  0.00    -0.017 C 
ATOM      4  C7  GZ2 d          -4.633  51.862  12.156  0.00  0.00     0.030 C 
ATOM      5  C8  GZ2 d          -4.274  51.257  10.817  0.00  0.00    -0.026 C 
ATOM      6  C9  GZ2 d          -2.992  51.811  10.200  0.00  0.00    -0.054 C 
ATOM      7  C10 GZ2 d          -1.849  51.935  11.195  0.00  0.00    -0.006 C 
ATOM      8  H1  GZ2 d          -4.021  52.940  13.861  0.00  0.00     0.092 H 
ATOM      9  H2  GZ2 d          -5.103  51.450  10.119  0.00  0.00     0.042 H 
ATOM     10  H3  GZ2 d          -4.152  50.172  10.950  0.00  0.00     0.042 H 
ATOM     11  H4  GZ2 d          -3.205  52.808   9.787  0.00  0.00     0.034 H 
ATOM     12  H5  GZ2 d          -2.677  51.138   9.389  0.00  0.00     0.034 H 
ATOM     13  H6  GZ2 d          -1.465  50.932  11.427  0.00  0.00     0.044 H 
ATOM     14  H7  GZ2 d          -1.048  52.540  10.747  0.00  0.00     0.044 H 
ENDROOT
BRANCH   4  15
ATOM     15  N6  GZ2 d          -5.915  51.682  12.501  0.00  0.00    -0.192 N 
ATOM     16  H8  GZ2 d          -6.172  50.737  12.822  0.00  0.00     0.184 HD
BRANCH  15  17
ATOM     17  C5  GZ2 d          -6.921  52.606  12.476  0.00  0.00     0.732 A 
ATOM     18  N4  GZ2 d          -7.727  52.824  11.427  0.00  0.00    -0.115 N 
ATOM     19  N3  GZ2 d          -8.583  53.851  11.859  0.00  0.00     0.008 NA
ATOM     20  H9  GZ2 d          -7.720  52.348  10.515  0.00  0.00     0.203 HD
ATOM     21  N2  GZ2 d          -8.241  54.180  13.183  0.00  0.00     0.033 NA
ATOM     22  N1  GZ2 d          -7.172  53.369  13.561  0.00  0.00     0.030 NA
ENDBRANCH  15  17
ENDBRANCH   4  15
TORSDOF 2
ENDMDL
MODEL 7
REMARK VINA RESULT:      -3.6      3.456      5.225
REMARK  2 active torsions:
REMARK  status: ('A' for Active; 'I' for Inactive)
REMARK    1  A    between atoms: C7_4  and  N6_8 
REMARK    2  A    between atoms: N6_8  and  C5_9 
ROOT
ATOM      1  O13 GZ2 d          -2.627  53.126  11.380  0.00  0.00    -0.293 OA
ATOM      2  C11 GZ2 d          -3.687  53.082  11.987  0.00  0.00     0.151 C 
ATOM      3  C12 GZ2 d          -4.799  52.271  11.445  0.00  0.00    -0.017 C 
ATOM      4  C7  GZ2 d          -5.961  52.155  12.114  0.00  0.00     0.030 C 
ATOM      5  C8  GZ2 d          -6.174  52.813  13.459  0.00  0.00    -0.026 C 
ATOM      6  C9  GZ2 d          -4.885  53.191  14.185  0.00  0.00    -0.054 C 
ATOM      7  C10 GZ2 d          -3.855  53.850  13.282  0.00  0.00    -0.006 C 
ATOM      8  H1  GZ2 d          -4.676  51.761  10.491  0.00  0.00     0.092 H 
ATOM      9  H2  GZ2 d          -6.738  52.118  14.098  0.00  0.00     0.042 H 
ATOM     10  H3  GZ2 d          -6.763  53.730  13.304  0.00  0.00     0.042 H 
ATOM     11  H4  GZ2 d          -4.443  52.276  14.609  0.00  0.00     0.034 H 
ATOM     12  H5  GZ2 d          -5.135  53.888  14.998  0.00  0.00     0.034 H 
ATOM     13  H6  GZ2 d          -4.184  54.874  13.051  0.00  0.00     0.044 H 
ATOM     14  H7  GZ2 d          -2.889  53.886  13.806  0.00  0.00     0.044 H 
ENDROOT
BRANCH   4  15
ATOM     15  N6  GZ2 d          -7.032  51.483  11.670  0.00  0.00    -0.192 N 
ATOM     16  H8  GZ2 d          -7.182  50.547  12.073  0.00  0.00     0.184 HD
BRANCH  15  17
ATOM     17  C5  GZ2 d          -7.949  51.895  10.745  0.00  0.00     0.732 A 
ATOM     18  N4  GZ2 d          -8.391  51.146   9.726  0.00  0.00    -0.115 N 
ATOM     19  N3  GZ2 d          -9.300  51.980   9.053  0.00  0.00     0.008 NA
ATOM     20  H9  GZ2 d          -8.125  50.180   9.490  0.00  0.00     0.203 HD
ATOM     21  N2  GZ2 d          -9.363  53.205   9.743  0.00  0.00     0.033 NA
ATOM     22  N1  GZ2 d          -8.489  53.130  10.826  0.00  0.00     0.030 NA
ENDBRANCH  15  17
ENDBRANCH   4  15
TORSDOF 2
ENDMDL
MODEL 8
REMARK VINA RESULT:      -3.4      3.296      5.102
REMARK  2 active torsions:
REMARK  status: ('A' for Active; 'I' for Inactive)
REMARK    1  A    between atoms: C7_4  and  N6_8 
REMARK    2  A    between atoms: N6_8  and  C5_9 
ROOT
ATOM      1  O13 GZ2 d          -3.538  51.114   9.053  0.00  0.00    -0.293 OA
ATOM      2  C11 GZ2 d          -3.673  51.319  10.251  0.00  0.00     0.151 C 
ATOM      3  C12 GZ2 d          -5.028  51.547  10.799  0.00  0.00    -0.017 C 
ATOM      4  C7  GZ2 d          -5.220  51.722  12.119  0.00  0.00     0.030 C 
ATOM      5  C8  GZ2 d          -4.075  51.660  13.105  0.00  0.00    -0.026 C 
ATOM      6  C9  GZ2 d          -2.833  50.943  12.581  0.00  0.00    -0.054 C 
ATOM      7  C10 GZ2 d          -2.462  51.339  11.161  0.00  0.00    -0.006 C 
ATOM      8  H1  GZ2 d          -5.882  51.573  10.124  0.00  0.00     0.092 H 
ATOM      9  H2  GZ2 d          -4.422  51.133  14.006  0.00  0.00     0.042 H 
ATOM     10  H3  GZ2 d          -3.792  52.690  13.369  0.00  0.00     0.042 H 
ATOM     11  H4  GZ2 d          -3.020  49.859  12.604  0.00  0.00     0.034 H 
ATOM     12  H5  GZ2 d          -1.987  51.182  13.243  0.00  0.00     0.034 H 
ATOM     13  H6  GZ2 d          -2.037  52.353  11.171  0.00  0.00     0.044 H 
ATOM     14  H7  GZ2 d          -1.713  50.632  10.776  0.00  0.00     0.044 H 
ENDROOT
BRANCH   4  15
ATOM     15  N6  GZ2 d          -6.405  51.983  12.689  0.00  0.00    -0.192 N 
ATOM     16  H8  GZ2 d          -6.474  51.797  13.700  0.00  0.00     0.184 HD
BRANCH  15  17
ATOM     17  C5  GZ2 d          -7.531  52.466  12.085  0.00  0.00     0.732 A 
ATOM     18  N4  GZ2 d          -7.912  53.750  12.105  0.00  0.00    -0.115 N 
ATOM     19  N3  GZ2 d          -9.111  53.765  11.371  0.00  0.00     0.008 NA
ATOM     20  H9  GZ2 d          -7.436  54.544  12.556  0.00  0.00     0.203 HD
ATOM     21  N2  GZ2 d          -9.370  52.455  10.928  0.00  0.00     0.033 NA
ATOM     22  N1  GZ2 d          -8.343  51.636  11.396  0.00  0.00     0.030 NA
ENDBRANCH  15  17
ENDBRANCH   4  15
TORSDOF 2
ENDMDL
MODEL 9
REMARK VINA RESULT:      -3.1      3.599      5.157
REMARK  2 active torsions:
REMARK  status: ('A' for Active; 'I' for Inactive)
REMARK    1  A    between atoms: C7_4  and  N6_8 
REMARK    2  A    between atoms: N6_8  and  C5_9 
ROOT
ATOM      1  O13 GZ2 d          -3.398  51.560  13.549  0.00  0.00    -0.293 OA
ATOM      2  C11 GZ2 d          -3.627  51.454  12.353  0.00  0.00     0.151 C 
ATOM      3  C12 GZ2 d          -4.974  51.786  11.841  0.00  0.00    -0.017 C 
ATOM      4  C7  GZ2 d          -5.247  51.734  10.525  0.00  0.00     0.030 C 
ATOM      5  C8  GZ2 d          -4.189  51.371   9.507  0.00  0.00    -0.026 C 
ATOM      6  C9  GZ2 d          -2.755  51.535  10.005  0.00  0.00    -0.054 C 
ATOM      7  C10 GZ2 d          -2.538  50.989  11.408  0.00  0.00    -0.006 C 
ATOM      8  H1  GZ2 d          -5.758  52.076  12.540  0.00  0.00     0.092 H 
ATOM      9  H2  GZ2 d          -4.322  52.015   8.625  0.00  0.00     0.042 H 
ATOM     10  H3  GZ2 d          -4.335  50.319   9.218  0.00  0.00     0.042 H 
ATOM     11  H4  GZ2 d          -2.506  52.607  10.006  0.00  0.00     0.034 H 
ATOM     12  H5  GZ2 d          -2.083  51.003   9.316  0.00  0.00     0.034 H 
ATOM     13  H6  GZ2 d          -2.542  49.890  11.369  0.00  0.00     0.044 H 
ATOM     14  H7  GZ2 d          -1.565  51.338  11.782  0.00  0.00     0.044 H 
ENDROOT
BRANCH   4  15
ATOM     15  N6  GZ2 d          -6.452  51.970   9.985  0.00  0.00    -0.192 N 
ATOM     16  H8  GZ2 d          -6.585  51.654   9.013  0.00  0.00     0.184 HD
BRANCH  15  17
ATOM     17  C5  GZ2 d          -7.523  52.578  10.575  0.00  0.00     0.732 A 
ATOM     18  N4  GZ2 d          -7.738  53.901  10.578  0.00  0.00    -0.115 N 
ATOM     19  N3  GZ2 d          -8.936  54.053  11.297  0.00  0.00     0.008 NA
ATOM     20  H9  GZ2 d          -7.158  54.637  10.152  0.00  0.00     0.203 HD
ATOM     21  N2  GZ2 d          -9.388  52.774  11.672  0.00  0.00     0.033 NA
ATOM     22  N1  GZ2 d          -8.467  51.841  11.198  0.00  0.00     0.030 NA
ENDBRANCH  15  17
ENDBRANCH   4  15
TORSDOF 2
ENDMDL
