MODEL 1
REMARK VINA RESULT:      -5.7      0.000      0.000
REMARK  5 active torsions:
REMARK  status: ('A' for Active; 'I' for Inactive)
REMARK       I    between atoms: N3_3  and  C14_6 
REMARK    1  A    between atoms: C14_6  and  C15_7 
REMARK    2  A    between atoms: C15_7  and  C16_8 
REMARK    3  A    between atoms: C15_7  and  N19_11 
REMARK    4  A    between atoms: C16_8  and  C17_9 
REMARK    5  A    between atoms: C16_8  and  C26_12 
ROOT
ATOM      1  C15 A3M d          82.659  75.047  98.676  0.00  0.00     0.169 C 
ATOM      2  H9  A3M d          82.456  75.358  99.711  0.00  0.00     0.092 H 
ENDROOT
BRANCH   1   3
ATOM      3  C14 A3M d          81.505  74.227  98.280  0.00  0.00     0.384 C 
ATOM      4  N3  A3M d          80.171  74.702  97.915  0.00  0.00     0.134 N 
ATOM      5  C2  A3M d          79.532  75.523  98.958  0.00  0.00     0.117 C 
ATOM      6  C4  A3M d          79.160  73.672  97.579  0.00  0.00     0.117 C 
ATOM      7  C1  A3M d          77.965  75.473  98.616  0.00  0.00    -0.038 C 
ATOM      8  H3  A3M d          79.724  75.100  99.955  0.00  0.00     0.080 H 
ATOM      9  H4  A3M d          79.905  76.557  98.920  0.00  0.00     0.080 H 
ATOM     10  C5  A3M d          77.905  74.542  97.323  0.00  0.00    -0.038 C 
ATOM     11  H1  A3M d          77.577  76.479  98.396  0.00  0.00     0.035 H 
ATOM     12  H2  A3M d          77.393  75.033  99.446  0.00  0.00     0.035 H 
ATOM     13  H7  A3M d          77.991  75.124  96.394  0.00  0.00     0.035 H 
ATOM     14  H8  A3M d          76.986  73.939  97.294  0.00  0.00     0.035 H 
ATOM     15  H5  A3M d          79.003  72.976  98.417  0.00  0.00     0.080 H 
ATOM     16  H6  A3M d          79.447  73.107  96.681  0.00  0.00     0.080 H 
ATOM     17  O18 A3M d          81.720  72.869  98.262  0.00  0.00    -0.186 OA
ENDBRANCH   1   3
BRANCH   1  18
ATOM     18  C16 A3M d          82.940  76.305  97.906  0.00  0.00    -0.029 C 
ATOM     19  H10 A3M d          82.495  76.194  96.905  0.00  0.00     0.042 H 
BRANCH  18  20
ATOM     20  C17 A3M d          82.423  77.537  98.521  0.00  0.00    -0.071 C 
ATOM     21  H11 A3M d          83.260  78.213  98.748  0.00  0.00     0.028 H 
ATOM     22  H12 A3M d          81.891  77.288  99.451  0.00  0.00     0.028 H 
ATOM     23  H13 A3M d          81.731  78.033  97.824  0.00  0.00     0.028 H 
ENDBRANCH  18  20
BRANCH  18  24
ATOM     24  C26 A3M d          84.609  76.548  97.768  0.00  0.00    -0.071 C 
ATOM     25  H17 A3M d          84.803  77.359  97.051  0.00  0.00     0.028 H 
ATOM     26  H18 A3M d          85.087  75.623  97.412  0.00  0.00     0.028 H 
ATOM     27  H19 A3M d          85.022  76.820  98.750  0.00  0.00     0.028 H 
ENDBRANCH  18  24
ENDBRANCH   1  18
BRANCH   1  28
ATOM     28  N19 A3M d          83.923  74.241  98.681  0.00  0.00    -0.070 N 
ATOM     29  H14 A3M d          84.647  74.752  99.162  0.00  0.00     0.274 HD
ATOM     30  H15 A3M d          84.212  74.063  97.732  0.00  0.00     0.274 HD
ATOM     31  H16 A3M d          83.762  73.365  99.152  0.00  0.00     0.274 HD
ENDBRANCH   1  28
TORSDOF 5
ENDMDL
MODEL 2
REMARK VINA RESULT:      -5.5      1.306      4.658
REMARK  5 active torsions:
REMARK  status: ('A' for Active; 'I' for Inactive)
REMARK       I    between atoms: N3_3  and  C14_6 
REMARK    1  A    between atoms: C14_6  and  C15_7 
REMARK    2  A    between atoms: C15_7  and  C16_8 
REMARK    3  A    between atoms: C15_7  and  N19_11 
REMARK    4  A    between atoms: C16_8  and  C17_9 
REMARK    5  A    between atoms: C16_8  and  C26_12 
ROOT
ATOM      1  C15 A3M d          80.246  74.599  97.756  0.00  0.00     0.169 C 
ATOM      2  H9  A3M d          80.083  75.551  97.230  0.00  0.00     0.092 H 
ENDROOT
BRANCH   1   3
ATOM      3  C14 A3M d          81.683  74.561  98.061  0.00  0.00     0.384 C 
ATOM      4  N3  A3M d          82.579  75.705  98.225  0.00  0.00     0.134 N 
ATOM      5  C2  A3M d          82.608  76.602  97.056  0.00  0.00     0.117 C 
ATOM      6  C4  A3M d          84.003  75.407  98.502  0.00  0.00     0.117 C 
ATOM      7  C1  A3M d          83.979  77.422  97.204  0.00  0.00    -0.038 C 
ATOM      8  H3  A3M d          82.603  76.021  96.122  0.00  0.00     0.080 H 
ATOM      9  H4  A3M d          81.745  77.283  97.069  0.00  0.00     0.080 H 
ATOM     10  C5  A3M d          84.615  76.829  98.540  0.00  0.00    -0.038 C 
ATOM     11  H1  A3M d          83.785  78.500  97.304  0.00  0.00     0.035 H 
ATOM     12  H2  A3M d          84.639  77.247  96.341  0.00  0.00     0.035 H 
ATOM     13  H7  A3M d          84.296  77.390  99.430  0.00  0.00     0.035 H 
ATOM     14  H8  A3M d          85.714  76.805  98.496  0.00  0.00     0.035 H 
ATOM     15  H5  A3M d          84.450  74.799  97.701  0.00  0.00     0.080 H 
ATOM     16  H6  A3M d          84.125  74.892  99.466  0.00  0.00     0.080 H 
ATOM     17  O18 A3M d          82.227  73.306  98.199  0.00  0.00    -0.186 OA
ENDBRANCH   1   3
BRANCH   1  18
ATOM     18  C16 A3M d          79.271  74.576  98.898  0.00  0.00    -0.029 C 
ATOM     19  H10 A3M d          79.842  74.705  99.830  0.00  0.00     0.042 H 
BRANCH  18  20
ATOM     20  C17 A3M d          78.221  75.605  98.838  0.00  0.00    -0.071 C 
ATOM     21  H11 A3M d          77.817  75.777  99.847  0.00  0.00     0.028 H 
ATOM     22  H12 A3M d          77.413  75.266  98.173  0.00  0.00     0.028 H 
ATOM     23  H13 A3M d          78.647  76.541  98.449  0.00  0.00     0.028 H 
ENDBRANCH  18  20
BRANCH  18  24
ATOM     24  C26 A3M d          78.442  73.102  98.933  0.00  0.00    -0.071 C 
ATOM     25  H17 A3M d          78.256  72.810  99.977  0.00  0.00     0.028 H 
ATOM     26  H18 A3M d          79.048  72.328  98.439  0.00  0.00     0.028 H 
ATOM     27  H19 A3M d          77.482  73.208  98.405  0.00  0.00     0.028 H 
ENDBRANCH  18  24
ENDBRANCH   1  18
BRANCH   1  28
ATOM     28  N19 A3M d          79.857  73.490  96.823  0.00  0.00    -0.070 N 
ATOM     29  H14 A3M d          80.591  72.799  96.799  0.00  0.00     0.274 HD
ATOM     30  H15 A3M d          79.717  73.863  95.898  0.00  0.00     0.274 HD
ATOM     31  H16 A3M d          79.004  73.063  97.147  0.00  0.00     0.274 HD
ENDBRANCH   1  28
TORSDOF 5
ENDMDL
MODEL 3
REMARK VINA RESULT:      -5.2      1.897      5.005
REMARK  5 active torsions:
REMARK  status: ('A' for Active; 'I' for Inactive)
REMARK       I    between atoms: N3_3  and  C14_6 
REMARK    1  A    between atoms: C14_6  and  C15_7 
REMARK    2  A    between atoms: C15_7  and  C16_8 
REMARK    3  A    between atoms: C15_7  and  N19_11 
REMARK    4  A    between atoms: C16_8  and  C17_9 
REMARK    5  A    between atoms: C16_8  and  C26_12 
ROOT
ATOM      1  C15 A3M d          79.944  74.878  98.704  0.00  0.00     0.169 C 
ATOM      2  H9  A3M d          80.564  74.032  98.375  0.00  0.00     0.092 H 
ENDROOT
BRANCH   1   3
ATOM      3  C14 A3M d          80.797  76.067  98.560  0.00  0.00     0.384 C 
ATOM      4  N3  A3M d          82.123  76.130  97.948  0.00  0.00     0.134 N 
ATOM      5  C2  A3M d          83.099  75.211  98.560  0.00  0.00     0.117 C 
ATOM      6  C4  A3M d          82.801  77.447  97.948  0.00  0.00     0.117 C 
ATOM      7  C1  A3M d          84.533  75.801  98.148  0.00  0.00    -0.038 C 
ATOM      8  H3  A3M d          82.985  75.198  99.653  0.00  0.00     0.080 H 
ATOM      9  H4  A3M d          82.971  74.192  98.165  0.00  0.00     0.080 H 
ATOM     10  C5  A3M d          84.161  77.096  97.295  0.00  0.00    -0.038 C 
ATOM     11  H1  A3M d          85.098  75.079  97.541  0.00  0.00     0.035 H 
ATOM     12  H2  A3M d          85.119  76.071  99.038  0.00  0.00     0.035 H 
ATOM     13  H7  A3M d          84.056  76.867  96.225  0.00  0.00     0.035 H 
ATOM     14  H8  A3M d          84.899  77.901  97.427  0.00  0.00     0.035 H 
ATOM     15  H5  A3M d          82.934  77.830  98.971  0.00  0.00     0.080 H 
ATOM     16  H6  A3M d          82.246  78.184  97.349  0.00  0.00     0.080 H 
ATOM     17  O18 A3M d          80.277  77.236  99.066  0.00  0.00    -0.186 OA
ENDBRANCH   1   3
BRANCH   1  18
ATOM     18  C16 A3M d          78.675  74.808  97.905  0.00  0.00    -0.029 C 
ATOM     19  H10 A3M d          78.729  75.576  97.118  0.00  0.00     0.042 H 
BRANCH  18  20
ATOM     20  C17 A3M d          78.409  73.504  97.278  0.00  0.00    -0.071 C 
ATOM     21  H11 A3M d          78.073  72.790  98.044  0.00  0.00     0.028 H 
ATOM     22  H12 A3M d          79.329  73.129  96.806  0.00  0.00     0.028 H 
ATOM     23  H13 A3M d          77.625  73.617  96.514  0.00  0.00     0.028 H 
ENDBRANCH  18  20
BRANCH  18  24
ATOM     24  C26 A3M d          77.338  75.099  98.900  0.00  0.00    -0.071 C 
ATOM     25  H17 A3M d          77.528  75.989  99.518  0.00  0.00     0.028 H 
ATOM     26  H18 A3M d          77.168  74.229  99.551  0.00  0.00     0.028 H 
ATOM     27  H19 A3M d          76.447  75.269  98.277  0.00  0.00     0.028 H 
ENDBRANCH  18  24
ENDBRANCH   1  18
BRANCH   1  28
ATOM     28  N19 A3M d          79.575  74.644 100.139  0.00  0.00    -0.070 N 
ATOM     29  H14 A3M d          79.370  75.526 100.582  0.00  0.00     0.274 HD
ATOM     30  H15 A3M d          80.344  74.199 100.615  0.00  0.00     0.274 HD
ATOM     31  H16 A3M d          78.763  74.050 100.184  0.00  0.00     0.274 HD
ENDBRANCH   1  28
TORSDOF 5
ENDMDL
MODEL 4
REMARK VINA RESULT:      -5.1      1.804      2.100
REMARK  5 active torsions:
REMARK  status: ('A' for Active; 'I' for Inactive)
REMARK       I    between atoms: N3_3  and  C14_6 
REMARK    1  A    between atoms: C14_6  and  C15_7 
REMARK    2  A    between atoms: C15_7  and  C16_8 
REMARK    3  A    between atoms: C15_7  and  N19_11 
REMARK    4  A    between atoms: C16_8  and  C17_9 
REMARK    5  A    between atoms: C16_8  and  C26_12 
ROOT
ATOM      1  C15 A3M d          82.570  76.174  99.036  0.00  0.00     0.169 C 
ATOM      2  H9  A3M d          82.912  76.890  99.798  0.00  0.00     0.092 H 
ENDROOT
BRANCH   1   3
ATOM      3  C14 A3M d          81.109  76.325  98.984  0.00  0.00     0.384 C 
ATOM      4  N3  A3M d          80.123  75.269  98.764  0.00  0.00     0.134 N 
ATOM      5  C2  A3M d          80.329  74.521  97.512  0.00  0.00     0.117 C 
ATOM      6  C4  A3M d          78.699  75.678  98.724  0.00  0.00     0.117 C 
ATOM      7  C1  A3M d          78.911  73.835  97.206  0.00  0.00    -0.038 C 
ATOM      8  H3  A3M d          80.614  75.202  96.697  0.00  0.00     0.080 H 
ATOM      9  H4  A3M d          81.110  73.756  97.642  0.00  0.00     0.080 H 
ATOM     10  C5  A3M d          77.999  74.332  98.415  0.00  0.00    -0.038 C 
ATOM     11  H1  A3M d          78.996  72.738  97.201  0.00  0.00     0.035 H 
ATOM     12  H2  A3M d          78.508  74.175  96.241  0.00  0.00     0.035 H 
ATOM     13  H7  A3M d          78.039  73.642  99.270  0.00  0.00     0.035 H 
ATOM     14  H8  A3M d          76.952  74.474  98.108  0.00  0.00     0.035 H 
ATOM     15  H5  A3M d          78.516  76.417  97.930  0.00  0.00     0.080 H 
ATOM     16  H6  A3M d          78.372  76.088  99.690  0.00  0.00     0.080 H 
ATOM     17  O18 A3M d          80.638  77.606  99.156  0.00  0.00    -0.186 OA
ENDBRANCH   1   3
BRANCH   1  18
ATOM     18  C16 A3M d          83.365  76.467  97.796  0.00  0.00    -0.029 C 
ATOM     19  H10 A3M d          82.927  75.887  96.970  0.00  0.00     0.042 H 
BRANCH  18  20
ATOM     20  C17 A3M d          83.407  77.886  97.408  0.00  0.00    -0.071 C 
ATOM     21  H11 A3M d          82.753  78.468  98.074  0.00  0.00     0.028 H 
ATOM     22  H12 A3M d          83.062  77.993  96.369  0.00  0.00     0.028 H 
ATOM     23  H13 A3M d          84.439  78.258  97.491  0.00  0.00     0.028 H 
ENDBRANCH  18  20
BRANCH  18  24
ATOM     24  C26 A3M d          84.982  76.022  98.015  0.00  0.00    -0.071 C 
ATOM     25  H17 A3M d          85.385  75.628  97.071  0.00  0.00     0.028 H 
ATOM     26  H18 A3M d          85.047  75.246  98.794  0.00  0.00     0.028 H 
ATOM     27  H19 A3M d          85.566  76.901  98.325  0.00  0.00     0.028 H 
ENDBRANCH  18  24
ENDBRANCH   1  18
BRANCH   1  28
ATOM     28  N19 A3M d          82.959  74.800  99.494  0.00  0.00    -0.070 N 
ATOM     29  H14 A3M d          83.948  74.666  99.354  0.00  0.00     0.274 HD
ATOM     30  H15 A3M d          82.449  74.112  98.963  0.00  0.00     0.274 HD
ATOM     31  H16 A3M d          82.742  74.698 100.473  0.00  0.00     0.274 HD
ENDBRANCH   1  28
TORSDOF 5
ENDMDL
MODEL 5
REMARK VINA RESULT:      -4.9      1.150      1.595
REMARK  5 active torsions:
REMARK  status: ('A' for Active; 'I' for Inactive)
REMARK       I    between atoms: N3_3  and  C14_6 
REMARK    1  A    between atoms: C14_6  and  C15_7 
REMARK    2  A    between atoms: C15_7  and  C16_8 
REMARK    3  A    between atoms: C15_7  and  N19_11 
REMARK    4  A    between atoms: C16_8  and  C17_9 
REMARK    5  A    between atoms: C16_8  and  C26_12 
ROOT
ATOM      1  C15 A3M d          82.165  75.044  98.772  0.00  0.00     0.169 C 
ATOM      2  H9  A3M d          81.944  74.875  99.836  0.00  0.00     0.092 H 
ENDROOT
BRANCH   1   3
ATOM      3  C14 A3M d          80.912  74.755  98.061  0.00  0.00     0.384 C 
ATOM      4  N3  A3M d          79.552  75.001  98.538  0.00  0.00     0.134 N 
ATOM      5  C2  A3M d          79.252  74.346  99.823  0.00  0.00     0.117 C 
ATOM      6  C4  A3M d          78.444  74.593  97.644  0.00  0.00     0.117 C 
ATOM      7  C1  A3M d          77.650  74.278  99.884  0.00  0.00    -0.038 C 
ATOM      8  H3  A3M d          79.684  73.335  99.853  0.00  0.00     0.080 H 
ATOM      9  H4  A3M d          79.647  74.939 100.661  0.00  0.00     0.080 H 
ATOM     10  C5  A3M d          77.206  74.945  98.505  0.00  0.00    -0.038 C 
ATOM     11  H1  A3M d          77.263  74.849 100.740  0.00  0.00     0.035 H 
ATOM     12  H2  A3M d          77.301  73.237  99.949  0.00  0.00     0.035 H 
ATOM     13  H7  A3M d          77.067  76.031  98.601  0.00  0.00     0.035 H 
ATOM     14  H8  A3M d          76.286  74.492  98.107  0.00  0.00     0.035 H 
ATOM     15  H5  A3M d          78.483  73.517  97.419  0.00  0.00     0.080 H 
ATOM     16  H6  A3M d          78.455  75.165  96.705  0.00  0.00     0.080 H 
ATOM     17  O18 A3M d          81.054  74.188  96.816  0.00  0.00    -0.186 OA
ENDBRANCH   1   3
BRANCH   1  18
ATOM     18  C16 A3M d          82.739  76.428  98.676  0.00  0.00    -0.029 C 
ATOM     19  H10 A3M d          83.643  76.463  99.304  0.00  0.00     0.042 H 
BRANCH  18  20
ATOM     20  C17 A3M d          83.090  76.860  97.314  0.00  0.00    -0.071 C 
ATOM     21  H11 A3M d          83.785  77.712  97.367  0.00  0.00     0.028 H 
ATOM     22  H12 A3M d          82.179  77.163  96.779  0.00  0.00     0.028 H 
ATOM     23  H13 A3M d          83.570  76.028  96.778  0.00  0.00     0.028 H 
ENDBRANCH  18  20
BRANCH  18  24
ATOM     24  C26 A3M d          81.616  77.569  99.224  0.00  0.00    -0.071 C 
ATOM     25  H17 A3M d          80.606  77.135  99.190  0.00  0.00     0.028 H 
ATOM     26  H18 A3M d          81.655  78.461  98.581  0.00  0.00     0.028 H 
ATOM     27  H19 A3M d          81.858  77.854 100.259  0.00  0.00     0.028 H 
ENDBRANCH  18  24
ENDBRANCH   1  18
BRANCH   1  28
ATOM     28  N19 A3M d          83.251  74.088  98.374  0.00  0.00    -0.070 N 
ATOM     29  H14 A3M d          83.217  73.937  97.378  0.00  0.00     0.274 HD
ATOM     30  H15 A3M d          83.118  73.211  98.851  0.00  0.00     0.274 HD
ATOM     31  H16 A3M d          84.147  74.475  98.624  0.00  0.00     0.274 HD
ENDBRANCH   1  28
TORSDOF 5
ENDMDL
MODEL 6
REMARK VINA RESULT:      -4.7      1.723      1.958
REMARK  5 active torsions:
REMARK  status: ('A' for Active; 'I' for Inactive)
REMARK       I    between atoms: N3_3  and  C14_6 
REMARK    1  A    between atoms: C14_6  and  C15_7 
REMARK    2  A    between atoms: C15_7  and  C16_8 
REMARK    3  A    between atoms: C15_7  and  N19_11 
REMARK    4  A    between atoms: C16_8  and  C17_9 
REMARK    5  A    between atoms: C16_8  and  C26_12 
ROOT
ATOM      1  C15 A3M d          81.448  74.727  98.091  0.00  0.00     0.169 C 
ATOM      2  H9  A3M d          82.426  74.252  98.254  0.00  0.00     0.092 H 
ENDROOT
BRANCH   1   3
ATOM      3  C14 A3M d          80.522  74.039  99.002  0.00  0.00     0.384 C 
ATOM      4  N3  A3M d          79.061  74.043  98.939  0.00  0.00     0.134 N 
ATOM      5  C2  A3M d          78.473  75.393  98.977  0.00  0.00     0.117 C 
ATOM      6  C4  A3M d          78.343  73.293  99.996  0.00  0.00     0.117 C 
ATOM      7  C1  A3M d          76.953  75.165  99.437  0.00  0.00    -0.038 C 
ATOM      8  H3  A3M d          79.006  76.027  99.701  0.00  0.00     0.080 H 
ATOM      9  H4  A3M d          78.511  75.860  97.982  0.00  0.00     0.080 H 
ATOM     10  C5  A3M d          76.866  73.585  99.633  0.00  0.00    -0.038 C 
ATOM     11  H1  A3M d          76.250  75.505  98.663  0.00  0.00     0.035 H 
ATOM     12  H2  A3M d          76.742  75.691 100.380  0.00  0.00     0.035 H 
ATOM     13  H7  A3M d          76.561  73.073  98.708  0.00  0.00     0.035 H 
ATOM     14  H8  A3M d          76.180  73.309 100.447  0.00  0.00     0.035 H 
ATOM     15  H5  A3M d          78.592  73.672 100.998  0.00  0.00     0.080 H 
ATOM     16  H6  A3M d          78.563  72.217  99.945  0.00  0.00     0.080 H 
ATOM     17  O18 A3M d          81.110  73.325 100.019  0.00  0.00    -0.186 OA
ENDBRANCH   1   3
BRANCH   1  18
ATOM     18  C16 A3M d          81.661  76.203  98.268  0.00  0.00    -0.029 C 
ATOM     19  H10 A3M d          80.745  76.717  97.941  0.00  0.00     0.042 H 
BRANCH  18  20
ATOM     20  C17 A3M d          81.977  76.623  99.642  0.00  0.00    -0.071 C 
ATOM     21  H11 A3M d          81.417  77.538  99.884  0.00  0.00     0.028 H 
ATOM     22  H12 A3M d          83.056  76.820  99.727  0.00  0.00     0.028 H 
ATOM     23  H13 A3M d          81.695  75.824 100.344  0.00  0.00     0.028 H 
ENDBRANCH  18  20
BRANCH  18  24
ATOM     24  C26 A3M d          82.974  76.723  97.336  0.00  0.00    -0.071 C 
ATOM     25  H17 A3M d          82.855  76.365  96.303  0.00  0.00     0.028 H 
ATOM     26  H18 A3M d          83.907  76.319  97.758  0.00  0.00     0.028 H 
ATOM     27  H19 A3M d          83.016  77.822  97.341  0.00  0.00     0.028 H 
ENDBRANCH  18  24
ENDBRANCH   1  18
BRANCH   1  28
ATOM     28  N19 A3M d          81.066  74.506  96.657  0.00  0.00    -0.070 N 
ATOM     29  H14 A3M d          81.021  75.393  96.181  0.00  0.00     0.274 HD
ATOM     30  H15 A3M d          80.165  74.056  96.615  0.00  0.00     0.274 HD
ATOM     31  H16 A3M d          81.755  73.921  96.212  0.00  0.00     0.274 HD
ENDBRANCH   1  28
TORSDOF 5
ENDMDL
MODEL 7
REMARK VINA RESULT:      -4.7      1.754      2.058
REMARK  5 active torsions:
REMARK  status: ('A' for Active; 'I' for Inactive)
REMARK       I    between atoms: N3_3  and  C14_6 
REMARK    1  A    between atoms: C14_6  and  C15_7 
REMARK    2  A    between atoms: C15_7  and  C16_8 
REMARK    3  A    between atoms: C15_7  and  N19_11 
REMARK    4  A    between atoms: C16_8  and  C17_9 
REMARK    5  A    between atoms: C16_8  and  C26_12 
ROOT
ATOM      1  C15 A3M d          81.811  76.657  98.528  0.00  0.00     0.169 C 
ATOM      2  H9  A3M d          81.461  76.756  97.491  0.00  0.00     0.092 H 
ENDROOT
BRANCH   1   3
ATOM      3  C14 A3M d          81.170  75.439  99.044  0.00  0.00     0.384 C 
ATOM      4  N3  A3M d          79.948  74.809  98.546  0.00  0.00     0.134 N 
ATOM      5  C2  A3M d          78.781  75.708  98.541  0.00  0.00     0.117 C 
ATOM      6  C4  A3M d          79.481  73.596  99.256  0.00  0.00     0.117 C 
ATOM      7  C1  A3M d          77.510  74.730  98.497  0.00  0.00    -0.038 C 
ATOM      8  H3  A3M d          78.764  76.325  99.451  0.00  0.00     0.080 H 
ATOM      9  H4  A3M d          78.798  76.361  97.656  0.00  0.00     0.080 H 
ATOM     10  C5  A3M d          78.169  73.278  98.497  0.00  0.00    -0.038 C 
ATOM     11  H1  A3M d          76.917  74.893  97.586  0.00  0.00     0.035 H 
ATOM     12  H2  A3M d          76.871  74.872  99.382  0.00  0.00     0.035 H 
ATOM     13  H7  A3M d          78.362  72.915  97.478  0.00  0.00     0.035 H 
ATOM     14  H8  A3M d          77.550  72.546  99.036  0.00  0.00     0.035 H 
ATOM     15  H5  A3M d          79.290  73.802 100.320  0.00  0.00     0.080 H 
ATOM     16  H6  A3M d          80.206  72.774  99.166  0.00  0.00     0.080 H 
ATOM     17  O18 A3M d          81.797  74.846 100.114  0.00  0.00    -0.186 OA
ENDBRANCH   1   3
BRANCH   1  18
ATOM     18  C16 A3M d          83.311  76.707  98.473  0.00  0.00    -0.029 C 
ATOM     19  H10 A3M d          83.669  77.135  99.422  0.00  0.00     0.042 H 
BRANCH  18  20
ATOM     20  C17 A3M d          83.967  75.407  98.261  0.00  0.00    -0.071 C 
ATOM     21  H11 A3M d          83.535  74.918  97.375  0.00  0.00     0.028 H 
ATOM     22  H12 A3M d          83.811  74.769  99.144  0.00  0.00     0.028 H 
ATOM     23  H13 A3M d          85.045  75.561  98.107  0.00  0.00     0.028 H 
ENDBRANCH  18  20
BRANCH  18  24
ATOM     24  C26 A3M d          83.819  77.672  97.180  0.00  0.00    -0.071 C 
ATOM     25  H17 A3M d          84.905  77.561  97.044  0.00  0.00     0.028 H 
ATOM     26  H18 A3M d          83.582  78.726  97.393  0.00  0.00     0.028 H 
ATOM     27  H19 A3M d          83.301  77.359  96.262  0.00  0.00     0.028 H 
ENDBRANCH  18  24
ENDBRANCH   1  18
BRANCH   1  28
ATOM     28  N19 A3M d          81.357  77.872  99.281  0.00  0.00    -0.070 N 
ATOM     29  H14 A3M d          80.425  77.721  99.634  0.00  0.00     0.274 HD
ATOM     30  H15 A3M d          81.357  78.669  98.665  0.00  0.00     0.274 HD
ATOM     31  H16 A3M d          81.983  78.043 100.052  0.00  0.00     0.274 HD
ENDBRANCH   1  28
TORSDOF 5
ENDMDL
MODEL 8
REMARK VINA RESULT:      -3.9      1.815      2.218
REMARK  5 active torsions:
REMARK  status: ('A' for Active; 'I' for Inactive)
REMARK       I    between atoms: N3_3  and  C14_6 
REMARK    1  A    between atoms: C14_6  and  C15_7 
REMARK    2  A    between atoms: C15_7  and  C16_8 
REMARK    3  A    between atoms: C15_7  and  N19_11 
REMARK    4  A    between atoms: C16_8  and  C17_9 
REMARK    5  A    between atoms: C16_8  and  C26_12 
ROOT
ATOM      1  C15 A3M d          81.345  75.017  98.987  0.00  0.00     0.169 C 
ATOM      2  H9  A3M d          81.783  75.078  99.993  0.00  0.00     0.092 H 
ENDROOT
BRANCH   1   3
ATOM      3  C14 A3M d          79.929  74.684  99.195  0.00  0.00     0.384 C 
ATOM      4  N3  A3M d          79.158  73.649  98.507  0.00  0.00     0.134 N 
ATOM      5  C2  A3M d          79.154  73.793  97.041  0.00  0.00     0.117 C 
ATOM      6  C4  A3M d          77.728  73.523  98.873  0.00  0.00     0.117 C 
ATOM      7  C1  A3M d          77.879  72.953  96.549  0.00  0.00    -0.038 C 
ATOM      8  H3  A3M d          79.054  74.851  96.757  0.00  0.00     0.080 H 
ATOM      9  H4  A3M d          80.079  73.383  96.609  0.00  0.00     0.080 H 
ATOM     10  C5  A3M d          77.260  72.403  97.911  0.00  0.00    -0.038 C 
ATOM     11  H1  A3M d          78.182  72.125  95.891  0.00  0.00     0.035 H 
ATOM     12  H2  A3M d          77.161  73.597  96.021  0.00  0.00     0.035 H 
ATOM     13  H7  A3M d          77.678  71.424  98.187  0.00  0.00     0.035 H 
ATOM     14  H8  A3M d          76.163  72.333  97.865  0.00  0.00     0.035 H 
ATOM     15  H5  A3M d          77.182  74.461  98.691  0.00  0.00     0.080 H 
ATOM     16  H6  A3M d          77.607  73.226  99.924  0.00  0.00     0.080 H 
ATOM     17  O18 A3M d          79.273  75.440 100.138  0.00  0.00    -0.186 OA
ENDBRANCH   1   3
BRANCH   1  18
ATOM     18  C16 A3M d          81.681  76.311  98.301  0.00  0.00    -0.029 C 
ATOM     19  H10 A3M d          80.918  76.492  97.530  0.00  0.00     0.042 H 
BRANCH  18  20
ATOM     20  C17 A3M d          81.748  77.483  99.188  0.00  0.00    -0.071 C 
ATOM     21  H11 A3M d          80.733  77.756  99.512  0.00  0.00     0.028 H 
ATOM     22  H12 A3M d          82.200  78.327  98.647  0.00  0.00     0.028 H 
ATOM     23  H13 A3M d          82.361  77.242 100.069  0.00  0.00     0.028 H 
ENDBRANCH  18  20
BRANCH  18  24
ATOM     24  C26 A3M d          83.210  76.214  97.583  0.00  0.00    -0.071 C 
ATOM     25  H17 A3M d          83.802  77.099  97.860  0.00  0.00     0.028 H 
ATOM     26  H18 A3M d          83.100  76.175  96.489  0.00  0.00     0.028 H 
ATOM     27  H19 A3M d          83.723  75.306  97.933  0.00  0.00     0.028 H 
ENDBRANCH  18  24
ENDBRANCH   1  18
BRANCH   1  28
ATOM     28  N19 A3M d          82.057  73.927  98.243  0.00  0.00    -0.070 N 
ATOM     29  H14 A3M d          83.009  73.863  98.571  0.00  0.00     0.274 HD
ATOM     30  H15 A3M d          82.055  74.134  97.257  0.00  0.00     0.274 HD
ATOM     31  H16 A3M d          81.588  73.049  98.403  0.00  0.00     0.274 HD
ENDBRANCH   1  28
TORSDOF 5
ENDMDL
