MODEL 1
REMARK VINA RESULT:      -8.7      0.000      0.000
REMARK  8 active torsions:
REMARK  status: ('A' for Active; 'I' for Inactive)
REMARK    1  A    between atoms: CAU_6  and  OAS_7 
REMARK    2  A    between atoms: OAS_7  and  CAV_8 
REMARK    3  A    between atoms: CAT_13  and  CAQ_14 
REMARK    4  A    between atoms: CAQ_14  and  CAP_15 
REMARK    5  A    between atoms: CAP_15  and  CAR_16 
REMARK    6  A    between atoms: CAR_16  and  CAW_17 
REMARK    7  A    between atoms: CAW_17  and  PAX_18 
REMARK    8  A    between atoms: CAW_17  and  SAY_22 
ROOT
ATOM      1  CAV B65 d          15.178  52.214  39.501  0.00  0.00     0.076 A 
ATOM      2  CAO B65 d          15.591  51.915  38.204  0.00  0.00    -0.044 A 
ATOM      3  CAN B65 d          15.866  51.678  40.582  0.00  0.00    -0.050 A 
ATOM      4  CAJ B65 d          16.954  50.842  40.359  0.00  0.00    -0.080 A 
ATOM      5  CAK B65 d          17.357  50.536  39.061  0.00  0.00    -0.077 A 
ATOM      6  CAT B65 d          16.669  51.076  37.979  0.00  0.00    -0.056 A 
ATOM      7  H6  B65 d          15.061  52.344  37.361  0.00  0.00     0.088 H 
ATOM      8  H7  B65 d          15.557  51.911  41.594  0.00  0.00     0.087 H 
ATOM      9  H8  B65 d          17.493  50.425  41.201  0.00  0.00     0.083 H 
ATOM     10  H9  B65 d          18.203  49.880  38.895  0.00  0.00     0.084 H 
ENDROOT
BRANCH   6  11
ATOM     11  CAQ B65 d          17.049  50.719  36.537  0.00  0.00    -0.041 C 
ATOM     12  H10 B65 d          16.153  50.794  35.904  0.00  0.00     0.040 H 
ATOM     13  H11 B65 d          17.429  49.688  36.514  0.00  0.00     0.040 H 
BRANCH  11  14
ATOM     14  CAP B65 d          18.125  51.657  35.986  0.00  0.00    -0.059 C 
ATOM     15  H12 B65 d          18.250  51.480  34.908  0.00  0.00     0.033 H 
ATOM     16  H13 B65 d          19.078  51.465  36.502  0.00  0.00     0.033 H 
BRANCH  14  17
ATOM     17  CAR B65 d          17.702  53.107  36.219  0.00  0.00    -0.034 C 
ATOM     18  H14 B65 d          17.078  53.151  37.124  0.00  0.00     0.036 H 
ATOM     19  H15 B65 d          17.116  53.446  35.353  0.00  0.00     0.036 H 
BRANCH  17  20
ATOM     20  CAW B65 d          18.896  54.049  36.402  0.00  0.00     0.169 C 
ATOM     21  H16 B65 d          19.656  53.806  35.646  0.00  0.00     0.090 H 
BRANCH  20  22
ATOM     22  PAX B65 d          19.645  53.853  38.070  0.00  0.00     0.281 P 
ATOM     23  OAB B65 d          20.539  55.163  38.345  0.00  0.00    -0.639 OA
ATOM     24  OAC B65 d          18.417  53.896  39.112  0.00  0.00    -0.639 OA
ATOM     25  OAA B65 d          20.436  52.606  38.190  0.00  0.00    -0.639 OA
ENDBRANCH  20  22
BRANCH  20  26
ATOM     26  SAY B65 d          18.347  55.777  36.157  0.00  0.00     0.119 S 
ATOM     27  OAF B65 d          17.651  56.224  37.325  0.00  0.00    -0.594 OA
ATOM     28  OAE B65 d          17.426  55.853  34.978  0.00  0.00    -0.594 OA
ATOM     29  OAD B65 d          19.542  56.650  35.892  0.00  0.00    -0.594 OA
ENDBRANCH  20  26
ENDBRANCH  17  20
ENDBRANCH  14  17
ENDBRANCH  11  14
ENDBRANCH   6  11
BRANCH   1  30
ATOM     30  OAS B65 d          14.033  52.931  39.640  0.00  0.00    -0.311 OA
BRANCH  30  31
ATOM     31  CAU B65 d          14.111  54.052  40.413  0.00  0.00     0.076 A 
ATOM     32  CAL B65 d          14.993  55.066  40.079  0.00  0.00    -0.050 A 
ATOM     33  CAH B65 d          14.936  56.280  40.768  0.00  0.00    -0.080 A 
ATOM     34  H1  B65 d          15.721  54.919  39.290  0.00  0.00     0.087 H 
ATOM     35  CAG B65 d          14.004  56.469  41.782  0.00  0.00    -0.083 A 
ATOM     36  H2  B65 d          15.622  57.079  40.510  0.00  0.00     0.083 H 
ATOM     37  CAI B65 d          13.126  55.449  42.116  0.00  0.00    -0.080 A 
ATOM     38  H3  B65 d          13.963  57.414  42.312  0.00  0.00     0.083 H 
ATOM     39  CAM B65 d          13.182  54.235  41.432  0.00  0.00    -0.050 A 
ATOM     40  H4  B65 d          12.398  55.594  42.905  0.00  0.00     0.083 H 
ATOM     41  H5  B65 d          12.501  53.433  41.694  0.00  0.00     0.087 H 
ENDBRANCH  30  31
ENDBRANCH   1  30
TORSDOF 8
ENDMDL
MODEL 2
REMARK VINA RESULT:      -8.2      1.758      4.351
REMARK  8 active torsions:
REMARK  status: ('A' for Active; 'I' for Inactive)
REMARK    1  A    between atoms: CAU_6  and  OAS_7 
REMARK    2  A    between atoms: OAS_7  and  CAV_8 
REMARK    3  A    between atoms: CAT_13  and  CAQ_14 
REMARK    4  A    between atoms: CAQ_14  and  CAP_15 
REMARK    5  A    between atoms: CAP_15  and  CAR_16 
REMARK    6  A    between atoms: CAR_16  and  CAW_17 
REMARK    7  A    between atoms: CAW_17  and  PAX_18 
REMARK    8  A    between atoms: CAW_17  and  SAY_22 
ROOT
ATOM      1  CAV B65 d          14.915  54.252  39.644  0.00  0.00     0.076 A 
ATOM      2  CAO B65 d          15.476  54.287  38.369  0.00  0.00    -0.044 A 
ATOM      3  CAN B65 d          14.524  55.437  40.255  0.00  0.00    -0.050 A 
ATOM      4  CAJ B65 d          14.704  56.644  39.592  0.00  0.00    -0.080 A 
ATOM      5  CAK B65 d          15.276  56.677  38.322  0.00  0.00    -0.077 A 
ATOM      6  CAT B65 d          15.664  55.490  37.709  0.00  0.00    -0.056 A 
ATOM      7  H6  B65 d          15.769  53.361  37.887  0.00  0.00     0.088 H 
ATOM      8  H7  B65 d          14.081  55.419  41.244  0.00  0.00     0.087 H 
ATOM      9  H8  B65 d          14.398  57.569  40.067  0.00  0.00     0.083 H 
ATOM     10  H9  B65 d          15.417  57.623  37.814  0.00  0.00     0.084 H 
ENDROOT
BRANCH   6  11
ATOM     11  CAQ B65 d          16.346  55.490  36.336  0.00  0.00    -0.041 C 
ATOM     12  H10 B65 d          17.252  56.111  36.388  0.00  0.00     0.040 H 
ATOM     13  H11 B65 d          15.653  55.914  35.595  0.00  0.00     0.040 H 
BRANCH  11  14
ATOM     14  CAP B65 d          16.736  54.076  35.898  0.00  0.00    -0.059 C 
ATOM     15  H12 B65 d          16.353  53.887  34.885  0.00  0.00     0.033 H 
ATOM     16  H13 B65 d          16.304  53.343  36.596  0.00  0.00     0.033 H 
BRANCH  14  17
ATOM     17  CAR B65 d          18.259  53.947  35.901  0.00  0.00    -0.034 C 
ATOM     18  H14 B65 d          18.698  54.956  35.928  0.00  0.00     0.036 H 
ATOM     19  H15 B65 d          18.570  53.438  34.977  0.00  0.00     0.036 H 
BRANCH  17  20
ATOM     20  CAW B65 d          18.783  53.152  37.100  0.00  0.00     0.169 C 
ATOM     21  H16 B65 d          17.927  52.719  37.637  0.00  0.00     0.090 H 
BRANCH  20  22
ATOM     22  PAX B65 d          19.714  54.236  38.257  0.00  0.00     0.281 P 
ATOM     23  OAB B65 d          19.774  55.700  37.591  0.00  0.00    -0.639 OA
ATOM     24  OAC B65 d          18.800  54.358  39.578  0.00  0.00    -0.639 OA
ATOM     25  OAA B65 d          21.066  53.709  38.560  0.00  0.00    -0.639 OA
ENDBRANCH  20  22
BRANCH  20  26
ATOM     26  SAY B65 d          19.856  51.796  36.504  0.00  0.00     0.119 S 
ATOM     27  OAF B65 d          20.347  51.052  37.624  0.00  0.00    -0.594 OA
ATOM     28  OAE B65 d          21.017  52.364  35.745  0.00  0.00    -0.594 OA
ATOM     29  OAD B65 d          19.071  50.903  35.584  0.00  0.00    -0.594 OA
ENDBRANCH  20  26
ENDBRANCH  17  20
ENDBRANCH  14  17
ENDBRANCH  11  14
ENDBRANCH   6  11
BRANCH   1  30
ATOM     30  OAS B65 d          14.889  53.053  40.280  0.00  0.00    -0.311 OA
BRANCH  30  31
ATOM     31  CAU B65 d          15.471  52.007  39.625  0.00  0.00     0.076 A 
ATOM     32  CAL B65 d          15.073  51.686  38.338  0.00  0.00    -0.050 A 
ATOM     33  CAH B65 d          15.796  50.736  37.613  0.00  0.00    -0.080 A 
ATOM     34  H1  B65 d          14.209  52.169  37.896  0.00  0.00     0.087 H 
ATOM     35  CAG B65 d          16.904  50.115  38.179  0.00  0.00    -0.083 A 
ATOM     36  H2  B65 d          15.492  50.481  36.604  0.00  0.00     0.083 H 
ATOM     37  CAI B65 d          17.295  50.436  39.470  0.00  0.00    -0.080 A 
ATOM     38  H3  B65 d          17.462  49.379  37.611  0.00  0.00     0.083 H 
ATOM     39  CAM B65 d          16.574  51.383  40.197  0.00  0.00    -0.050 A 
ATOM     40  H4  B65 d          18.159  49.953  39.912  0.00  0.00     0.083 H 
ATOM     41  H5  B65 d          16.873  51.632  41.209  0.00  0.00     0.087 H 
ENDBRANCH  30  31
ENDBRANCH   1  30
TORSDOF 8
ENDMDL
MODEL 3
REMARK VINA RESULT:      -8.2      2.594      4.332
REMARK  8 active torsions:
REMARK  status: ('A' for Active; 'I' for Inactive)
REMARK    1  A    between atoms: CAU_6  and  OAS_7 
REMARK    2  A    between atoms: OAS_7  and  CAV_8 
REMARK    3  A    between atoms: CAT_13  and  CAQ_14 
REMARK    4  A    between atoms: CAQ_14  and  CAP_15 
REMARK    5  A    between atoms: CAP_15  and  CAR_16 
REMARK    6  A    between atoms: CAR_16  and  CAW_17 
REMARK    7  A    between atoms: CAW_17  and  PAX_18 
REMARK    8  A    between atoms: CAW_17  and  SAY_22 
ROOT
ATOM      1  CAV B65 d          14.975  56.391  38.579  0.00  0.00     0.076 A 
ATOM      2  CAO B65 d          16.242  56.361  38.001  0.00  0.00    -0.044 A 
ATOM      3  CAN B65 d          13.855  56.547  37.772  0.00  0.00    -0.050 A 
ATOM      4  CAJ B65 d          14.011  56.679  36.397  0.00  0.00    -0.080 A 
ATOM      5  CAK B65 d          15.280  56.660  35.824  0.00  0.00    -0.077 A 
ATOM      6  CAT B65 d          16.401  56.501  36.632  0.00  0.00    -0.056 A 
ATOM      7  H6  B65 d          17.115  56.227  38.630  0.00  0.00     0.088 H 
ATOM      8  H7  B65 d          12.865  56.565  38.212  0.00  0.00     0.087 H 
ATOM      9  H8  B65 d          13.138  56.799  35.766  0.00  0.00     0.083 H 
ATOM     10  H9  B65 d          15.394  56.769  34.752  0.00  0.00     0.084 H 
ENDROOT
BRANCH   6  11
ATOM     11  CAQ B65 d          17.816  56.530  36.044  0.00  0.00    -0.041 C 
ATOM     12  H10 B65 d          18.278  57.501  36.274  0.00  0.00     0.040 H 
ATOM     13  H11 B65 d          17.751  56.404  34.954  0.00  0.00     0.040 H 
BRANCH  11  14
ATOM     14  CAP B65 d          18.691  55.414  36.621  0.00  0.00    -0.059 C 
ATOM     15  H12 B65 d          18.892  55.617  37.684  0.00  0.00     0.033 H 
ATOM     16  H13 B65 d          19.643  55.373  36.070  0.00  0.00     0.033 H 
BRANCH  14  17
ATOM     17  CAR B65 d          17.964  54.077  36.485  0.00  0.00    -0.034 C 
ATOM     18  H14 B65 d          18.132  53.686  35.470  0.00  0.00     0.036 H 
ATOM     19  H15 B65 d          16.888  54.244  36.640  0.00  0.00     0.036 H 
BRANCH  17  20
ATOM     20  CAW B65 d          18.449  53.035  37.497  0.00  0.00     0.169 C 
ATOM     21  H16 B65 d          18.404  53.474  38.505  0.00  0.00     0.090 H 
BRANCH  20  22
ATOM     22  PAX B65 d          20.184  52.535  37.153  0.00  0.00     0.281 P 
ATOM     23  OAB B65 d          20.407  52.661  35.564  0.00  0.00    -0.639 OA
ATOM     24  OAC B65 d          21.112  53.655  37.847  0.00  0.00    -0.639 OA
ATOM     25  OAA B65 d          20.488  51.172  37.649  0.00  0.00    -0.639 OA
ENDBRANCH  20  22
BRANCH  20  26
ATOM     26  SAY B65 d          17.348  51.576  37.437  0.00  0.00     0.119 S 
ATOM     27  OAF B65 d          17.592  50.749  38.580  0.00  0.00    -0.594 OA
ATOM     28  OAE B65 d          17.621  50.786  36.193  0.00  0.00    -0.594 OA
ATOM     29  OAD B65 d          15.915  52.029  37.414  0.00  0.00    -0.594 OA
ENDBRANCH  20  26
ENDBRANCH  17  20
ENDBRANCH  14  17
ENDBRANCH  11  14
ENDBRANCH   6  11
BRANCH   1  30
ATOM     30  OAS B65 d          14.909  56.386  39.935  0.00  0.00    -0.311 OA
BRANCH  30  31
ATOM     31  CAU B65 d          14.272  55.323  40.506  0.00  0.00     0.076 A 
ATOM     32  CAL B65 d          13.223  55.531  41.386  0.00  0.00    -0.050 A 
ATOM     33  CAH B65 d          12.466  54.440  41.821  0.00  0.00    -0.080 A 
ATOM     34  H1  B65 d          12.992  56.531  41.734  0.00  0.00     0.087 H 
ATOM     35  CAG B65 d          12.763  53.157  41.376  0.00  0.00    -0.083 A 
ATOM     36  H2  B65 d          11.642  54.596  42.508  0.00  0.00     0.083 H 
ATOM     37  CAI B65 d          13.818  52.954  40.499  0.00  0.00    -0.080 A 
ATOM     38  H3  B65 d          12.171  52.315  41.716  0.00  0.00     0.083 H 
ATOM     39  CAM B65 d          14.578  54.040  40.066  0.00  0.00    -0.050 A 
ATOM     40  H4  B65 d          14.051  51.954  40.151  0.00  0.00     0.083 H 
ATOM     41  H5  B65 d          15.407  53.883  39.384  0.00  0.00     0.087 H 
ENDBRANCH  30  31
ENDBRANCH   1  30
TORSDOF 8
ENDMDL
MODEL 4
REMARK VINA RESULT:      -8.1      2.131      3.471
REMARK  8 active torsions:
REMARK  status: ('A' for Active; 'I' for Inactive)
REMARK    1  A    between atoms: CAU_6  and  OAS_7 
REMARK    2  A    between atoms: OAS_7  and  CAV_8 
REMARK    3  A    between atoms: CAT_13  and  CAQ_14 
REMARK    4  A    between atoms: CAQ_14  and  CAP_15 
REMARK    5  A    between atoms: CAP_15  and  CAR_16 
REMARK    6  A    between atoms: CAR_16  and  CAW_17 
REMARK    7  A    between atoms: CAW_17  and  PAX_18 
REMARK    8  A    between atoms: CAW_17  and  SAY_22 
ROOT
ATOM      1  CAV B65 d          16.270  54.841  38.610  0.00  0.00     0.076 A 
ATOM      2  CAO B65 d          16.470  53.487  38.349  0.00  0.00    -0.044 A 
ATOM      3  CAN B65 d          16.235  55.747  37.557  0.00  0.00    -0.050 A 
ATOM      4  CAJ B65 d          16.409  55.294  36.255  0.00  0.00    -0.080 A 
ATOM      5  CAK B65 d          16.620  53.941  35.998  0.00  0.00    -0.077 A 
ATOM      6  CAT B65 d          16.652  53.035  37.053  0.00  0.00    -0.056 A 
ATOM      7  H6  B65 d          16.485  52.780  39.170  0.00  0.00     0.088 H 
ATOM      8  H7  B65 d          16.073  56.801  37.750  0.00  0.00     0.087 H 
ATOM      9  H8  B65 d          16.380  55.999  35.432  0.00  0.00     0.083 H 
ATOM     10  H9  B65 d          16.759  53.596  34.980  0.00  0.00     0.084 H 
ENDROOT
BRANCH   6  11
ATOM     11  CAQ B65 d          16.936  51.547  36.815  0.00  0.00    -0.041 C 
ATOM     12  H10 B65 d          16.097  51.109  36.255  0.00  0.00     0.040 H 
ATOM     13  H11 B65 d          17.029  51.043  37.788  0.00  0.00     0.040 H 
BRANCH  11  14
ATOM     14  CAP B65 d          18.227  51.336  36.021  0.00  0.00    -0.059 C 
ATOM     15  H12 B65 d          18.365  52.170  35.317  0.00  0.00     0.033 H 
ATOM     16  H13 B65 d          18.164  50.390  35.462  0.00  0.00     0.033 H 
BRANCH  14  17
ATOM     17  CAR B65 d          19.412  51.281  36.985  0.00  0.00    -0.034 C 
ATOM     18  H14 B65 d          19.890  50.294  36.900  0.00  0.00     0.036 H 
ATOM     19  H15 B65 d          19.039  51.421  38.009  0.00  0.00     0.036 H 
BRANCH  17  20
ATOM     20  CAW B65 d          20.461  52.359  36.694  0.00  0.00     0.169 C 
ATOM     21  H16 B65 d          20.197  52.863  35.753  0.00  0.00     0.090 H 
BRANCH  20  22
ATOM     22  PAX B65 d          22.135  51.622  36.515  0.00  0.00     0.281 P 
ATOM     23  OAB B65 d          22.211  50.368  37.521  0.00  0.00    -0.639 OA
ATOM     24  OAC B65 d          22.198  51.027  35.019  0.00  0.00    -0.639 OA
ATOM     25  OAA B65 d          23.215  52.604  36.771  0.00  0.00    -0.639 OA
ENDBRANCH  20  22
BRANCH  20  26
ATOM     26  SAY B65 d          20.454  53.590  38.047  0.00  0.00     0.119 S 
ATOM     27  OAF B65 d          19.532  53.177  39.060  0.00  0.00    -0.594 OA
ATOM     28  OAE B65 d          20.034  54.926  37.515  0.00  0.00    -0.594 OA
ATOM     29  OAD B65 d          21.840  53.714  38.618  0.00  0.00    -0.594 OA
ENDBRANCH  20  26
ENDBRANCH  17  20
ENDBRANCH  14  17
ENDBRANCH  11  14
ENDBRANCH   6  11
BRANCH   1  30
ATOM     30  OAS B65 d          16.238  55.227  39.912  0.00  0.00    -0.311 OA
BRANCH  30  31
ATOM     31  CAU B65 d          15.011  55.242  40.508  0.00  0.00     0.076 A 
ATOM     32  CAL B65 d          14.222  54.103  40.506  0.00  0.00    -0.050 A 
ATOM     33  CAH B65 d          13.054  54.076  41.271  0.00  0.00    -0.080 A 
ATOM     34  H1  B65 d          14.510  53.241  39.916  0.00  0.00     0.087 H 
ATOM     35  CAG B65 d          12.684  55.182  42.027  0.00  0.00    -0.083 A 
ATOM     36  H2  B65 d          12.433  53.187  41.276  0.00  0.00     0.083 H 
ATOM     37  CAI B65 d          13.474  56.322  42.023  0.00  0.00    -0.080 A 
ATOM     38  H3  B65 d          11.776  55.154  42.620  0.00  0.00     0.083 H 
ATOM     39  CAM B65 d          14.639  56.353  41.257  0.00  0.00    -0.050 A 
ATOM     40  H4  B65 d          13.187  57.185  42.612  0.00  0.00     0.083 H 
ATOM     41  H5  B65 d          15.257  57.245  41.247  0.00  0.00     0.087 H 
ENDBRANCH  30  31
ENDBRANCH   1  30
TORSDOF 8
ENDMDL
MODEL 5
REMARK VINA RESULT:      -7.6      1.811      4.390
REMARK  8 active torsions:
REMARK  status: ('A' for Active; 'I' for Inactive)
REMARK    1  A    between atoms: CAU_6  and  OAS_7 
REMARK    2  A    between atoms: OAS_7  and  CAV_8 
REMARK    3  A    between atoms: CAT_13  and  CAQ_14 
REMARK    4  A    between atoms: CAQ_14  and  CAP_15 
REMARK    5  A    between atoms: CAP_15  and  CAR_16 
REMARK    6  A    between atoms: CAR_16  and  CAW_17 
REMARK    7  A    between atoms: CAW_17  and  PAX_18 
REMARK    8  A    between atoms: CAW_17  and  SAY_22 
ROOT
ATOM      1  CAV B65 d          14.884  54.276  39.667  0.00  0.00     0.076 A 
ATOM      2  CAO B65 d          15.314  54.280  38.342  0.00  0.00    -0.044 A 
ATOM      3  CAN B65 d          14.665  55.481  40.323  0.00  0.00    -0.050 A 
ATOM      4  CAJ B65 d          14.884  56.678  39.653  0.00  0.00    -0.080 A 
ATOM      5  CAK B65 d          15.325  56.679  38.331  0.00  0.00    -0.077 A 
ATOM      6  CAT B65 d          15.541  55.473  37.675  0.00  0.00    -0.056 A 
ATOM      7  H6  B65 d          15.472  53.340  37.827  0.00  0.00     0.088 H 
ATOM      8  H7  B65 d          14.324  55.487  41.352  0.00  0.00     0.087 H 
ATOM      9  H8  B65 d          14.712  57.619  40.163  0.00  0.00     0.083 H 
ATOM     10  H9  B65 d          15.499  57.617  37.817  0.00  0.00     0.084 H 
ENDROOT
BRANCH   6  11
ATOM     11  CAQ B65 d          16.078  55.433  36.239  0.00  0.00    -0.041 C 
ATOM     12  H10 B65 d          15.807  56.371  35.732  0.00  0.00     0.040 H 
ATOM     13  H11 B65 d          15.618  54.585  35.711  0.00  0.00     0.040 H 
BRANCH  11  14
ATOM     14  CAP B65 d          17.599  55.272  36.207  0.00  0.00    -0.059 C 
ATOM     15  H12 B65 d          18.052  55.902  36.988  0.00  0.00     0.033 H 
ATOM     16  H13 B65 d          17.980  55.579  35.221  0.00  0.00     0.033 H 
BRANCH  14  17
ATOM     17  CAR B65 d          17.960  53.809  36.460  0.00  0.00    -0.034 C 
ATOM     18  H14 B65 d          17.596  53.205  35.615  0.00  0.00     0.036 H 
ATOM     19  H15 B65 d          17.465  53.479  37.385  0.00  0.00     0.036 H 
BRANCH  17  20
ATOM     20  CAW B65 d          19.468  53.588  36.606  0.00  0.00     0.169 C 
ATOM     21  H16 B65 d          19.989  54.207  35.861  0.00  0.00     0.090 H 
BRANCH  20  22
ATOM     22  PAX B65 d          19.911  51.827  36.316  0.00  0.00     0.281 P 
ATOM     23  OAB B65 d          18.710  51.170  35.470  0.00  0.00    -0.639 OA
ATOM     24  OAC B65 d          21.204  51.851  35.354  0.00  0.00    -0.639 OA
ATOM     25  OAA B65 d          20.167  51.094  37.578  0.00  0.00    -0.639 OA
ENDBRANCH  20  22
BRANCH  20  26
ATOM     26  SAY B65 d          19.996  54.103  38.280  0.00  0.00     0.119 S 
ATOM     27  OAF B65 d          19.096  53.559  39.250  0.00  0.00    -0.594 OA
ATOM     28  OAE B65 d          19.979  55.598  38.378  0.00  0.00    -0.594 OA
ATOM     29  OAD B65 d          21.397  53.621  38.534  0.00  0.00    -0.594 OA
ENDBRANCH  20  26
ENDBRANCH  17  20
ENDBRANCH  14  17
ENDBRANCH  11  14
ENDBRANCH   6  11
BRANCH   1  30
ATOM     30  OAS B65 d          14.815  53.074  40.296  0.00  0.00    -0.311 OA
BRANCH  30  31
ATOM     31  CAU B65 d          15.421  52.027  39.666  0.00  0.00     0.076 A 
ATOM     32  CAL B65 d          15.114  51.737  38.347  0.00  0.00    -0.050 A 
ATOM     33  CAH B65 d          15.868  50.782  37.660  0.00  0.00    -0.080 A 
ATOM     34  H1  B65 d          14.295  52.247  37.851  0.00  0.00     0.087 H 
ATOM     35  CAG B65 d          16.916  50.126  38.295  0.00  0.00    -0.083 A 
ATOM     36  H2  B65 d          15.634  50.552  36.626  0.00  0.00     0.083 H 
ATOM     37  CAI B65 d          17.217  50.417  39.617  0.00  0.00    -0.080 A 
ATOM     38  H3  B65 d          17.499  49.388  37.756  0.00  0.00     0.083 H 
ATOM     39  CAM B65 d          16.464  51.367  40.306  0.00  0.00    -0.050 A 
ATOM     40  H4  B65 d          18.034  49.907  40.113  0.00  0.00     0.083 H 
ATOM     41  H5  B65 d          16.693  51.592  41.342  0.00  0.00     0.087 H 
ENDBRANCH  30  31
ENDBRANCH   1  30
TORSDOF 8
ENDMDL
MODEL 6
REMARK VINA RESULT:      -7.5      1.538      2.380
REMARK  8 active torsions:
REMARK  status: ('A' for Active; 'I' for Inactive)
REMARK    1  A    between atoms: CAU_6  and  OAS_7 
REMARK    2  A    between atoms: OAS_7  and  CAV_8 
REMARK    3  A    between atoms: CAT_13  and  CAQ_14 
REMARK    4  A    between atoms: CAQ_14  and  CAP_15 
REMARK    5  A    between atoms: CAP_15  and  CAR_16 
REMARK    6  A    between atoms: CAR_16  and  CAW_17 
REMARK    7  A    between atoms: CAW_17  and  PAX_18 
REMARK    8  A    between atoms: CAW_17  and  SAY_22 
ROOT
ATOM      1  CAV B65 d          15.134  52.479  39.452  0.00  0.00     0.076 A 
ATOM      2  CAO B65 d          15.584  52.155  38.174  0.00  0.00    -0.044 A 
ATOM      3  CAN B65 d          15.739  51.901  40.561  0.00  0.00    -0.050 A 
ATOM      4  CAJ B65 d          16.781  50.999  40.384  0.00  0.00    -0.080 A 
ATOM      5  CAK B65 d          17.221  50.668  39.104  0.00  0.00    -0.077 A 
ATOM      6  CAT B65 d          16.617  51.250  37.994  0.00  0.00    -0.056 A 
ATOM      7  H6  B65 d          15.120  52.616  37.310  0.00  0.00     0.088 H 
ATOM      8  H7  B65 d          15.401  52.152  41.560  0.00  0.00     0.087 H 
ATOM      9  H8  B65 d          17.256  50.548  41.248  0.00  0.00     0.083 H 
ATOM     10  H9  B65 d          18.031  49.960  38.973  0.00  0.00     0.084 H 
ENDROOT
BRANCH   6  11
ATOM     11  CAQ B65 d          17.036  50.870  36.570  0.00  0.00    -0.041 C 
ATOM     12  H10 B65 d          16.140  50.584  35.999  0.00  0.00     0.040 H 
ATOM     13  H11 B65 d          17.728  50.017  36.617  0.00  0.00     0.040 H 
BRANCH  11  14
ATOM     14  CAP B65 d          17.730  52.032  35.855  0.00  0.00    -0.059 C 
ATOM     15  H12 B65 d          17.028  52.502  35.150  0.00  0.00     0.033 H 
ATOM     16  H13 B65 d          18.605  51.655  35.305  0.00  0.00     0.033 H 
BRANCH  14  17
ATOM     17  CAR B65 d          18.183  53.065  36.887  0.00  0.00    -0.034 C 
ATOM     18  H14 B65 d          17.917  52.700  37.891  0.00  0.00     0.036 H 
ATOM     19  H15 B65 d          17.659  54.011  36.691  0.00  0.00     0.036 H 
BRANCH  17  20
ATOM     20  CAW B65 d          19.692  53.321  36.843  0.00  0.00     0.169 C 
ATOM     21  H16 B65 d          19.911  53.996  36.003  0.00  0.00     0.090 H 
BRANCH  20  22
ATOM     22  PAX B65 d          20.623  51.755  36.596  0.00  0.00     0.281 P 
ATOM     23  OAB B65 d          20.174  51.157  35.171  0.00  0.00    -0.639 OA
ATOM     24  OAC B65 d          22.172  52.180  36.460  0.00  0.00    -0.639 OA
ATOM     25  OAA B65 d          20.404  50.788  37.698  0.00  0.00    -0.639 OA
ENDBRANCH  20  22
BRANCH  20  26
ATOM     26  SAY B65 d          20.214  54.126  38.400  0.00  0.00     0.119 S 
ATOM     27  OAF B65 d          20.140  55.547  38.249  0.00  0.00    -0.594 OA
ATOM     28  OAE B65 d          21.625  53.740  38.722  0.00  0.00    -0.594 OA
ATOM     29  OAD B65 d          19.323  53.672  39.523  0.00  0.00    -0.594 OA
ENDBRANCH  20  26
ENDBRANCH  17  20
ENDBRANCH  14  17
ENDBRANCH  11  14
ENDBRANCH   6  11
BRANCH   1  30
ATOM     30  OAS B65 d          14.030  53.265  39.544  0.00  0.00    -0.311 OA
BRANCH  30  31
ATOM     31  CAU B65 d          14.088  54.286  40.448  0.00  0.00     0.076 A 
ATOM     32  CAL B65 d          14.985  55.325  40.267  0.00  0.00    -0.050 A 
ATOM     33  CAH B65 d          14.911  56.448  41.094  0.00  0.00    -0.080 A 
ATOM     34  H1  B65 d          15.739  55.267  39.490  0.00  0.00     0.087 H 
ATOM     35  CAG B65 d          13.946  56.522  42.092  0.00  0.00    -0.083 A 
ATOM     36  H2  B65 d          15.609  57.266  40.957  0.00  0.00     0.083 H 
ATOM     37  CAI B65 d          13.052  55.477  42.272  0.00  0.00    -0.080 A 
ATOM     38  H3  B65 d          13.892  57.397  42.730  0.00  0.00     0.083 H 
ATOM     39  CAM B65 d          13.126  54.353  41.450  0.00  0.00    -0.050 A 
ATOM     40  H4  B65 d          12.299  55.534  43.049  0.00  0.00     0.083 H 
ATOM     41  H5  B65 d          12.433  53.532  41.592  0.00  0.00     0.087 H 
ENDBRANCH  30  31
ENDBRANCH   1  30
TORSDOF 8
ENDMDL
MODEL 7
REMARK VINA RESULT:      -7.4      1.136      2.570
REMARK  8 active torsions:
REMARK  status: ('A' for Active; 'I' for Inactive)
REMARK    1  A    between atoms: CAU_6  and  OAS_7 
REMARK    2  A    between atoms: OAS_7  and  CAV_8 
REMARK    3  A    between atoms: CAT_13  and  CAQ_14 
REMARK    4  A    between atoms: CAQ_14  and  CAP_15 
REMARK    5  A    between atoms: CAP_15  and  CAR_16 
REMARK    6  A    between atoms: CAR_16  and  CAW_17 
REMARK    7  A    between atoms: CAW_17  and  PAX_18 
REMARK    8  A    between atoms: CAW_17  and  SAY_22 
ROOT
ATOM      1  CAV B65 d          15.219  52.912  39.555  0.00  0.00     0.076 A 
ATOM      2  CAO B65 d          16.144  52.540  38.582  0.00  0.00    -0.044 A 
ATOM      3  CAN B65 d          15.112  52.167  40.723  0.00  0.00    -0.050 A 
ATOM      4  CAJ B65 d          15.924  51.054  40.905  0.00  0.00    -0.080 A 
ATOM      5  CAK B65 d          16.841  50.678  39.926  0.00  0.00    -0.077 A 
ATOM      6  CAT B65 d          16.949  51.426  38.758  0.00  0.00    -0.056 A 
ATOM      7  H6  B65 d          16.236  53.128  37.677  0.00  0.00     0.088 H 
ATOM      8  H7  B65 d          14.400  52.453  41.488  0.00  0.00     0.087 H 
ATOM      9  H8  B65 d          15.843  50.473  41.817  0.00  0.00     0.083 H 
ATOM     10  H9  B65 d          17.467  49.806  40.074  0.00  0.00     0.084 H 
ENDROOT
BRANCH   6  11
ATOM     11  CAQ B65 d          17.907  51.013  37.635  0.00  0.00    -0.041 C 
ATOM     12  H10 B65 d          17.789  49.936  37.445  0.00  0.00     0.040 H 
ATOM     13  H11 B65 d          18.939  51.218  37.954  0.00  0.00     0.040 H 
BRANCH  11  14
ATOM     14  CAP B65 d          17.626  51.779  36.340  0.00  0.00    -0.059 C 
ATOM     15  H12 B65 d          16.606  52.192  36.372  0.00  0.00     0.033 H 
ATOM     16  H13 B65 d          17.718  51.097  35.482  0.00  0.00     0.033 H 
BRANCH  14  17
ATOM     17  CAR B65 d          18.634  52.919  36.196  0.00  0.00    -0.034 C 
ATOM     18  H14 B65 d          18.559  53.329  35.178  0.00  0.00     0.036 H 
ATOM     19  H15 B65 d          19.644  52.517  36.356  0.00  0.00     0.036 H 
BRANCH  17  20
ATOM     20  CAW B65 d          18.393  54.051  37.199  0.00  0.00     0.169 C 
ATOM     21  H16 B65 d          17.478  53.830  37.768  0.00  0.00     0.090 H 
BRANCH  20  22
ATOM     22  PAX B65 d          18.175  55.661  36.340  0.00  0.00     0.281 P 
ATOM     23  OAB B65 d          17.293  55.380  35.023  0.00  0.00    -0.639 OA
ATOM     24  OAC B65 d          17.274  56.567  37.322  0.00  0.00    -0.639 OA
ATOM     25  OAA B65 d          19.468  56.308  36.014  0.00  0.00    -0.639 OA
ENDBRANCH  20  22
BRANCH  20  26
ATOM     26  SAY B65 d          19.805  54.142  38.359  0.00  0.00     0.119 S 
ATOM     27  OAF B65 d          20.862  53.300  37.887  0.00  0.00    -0.594 OA
ATOM     28  OAE B65 d          19.376  53.676  39.717  0.00  0.00    -0.594 OA
ATOM     29  OAD B65 d          20.276  55.566  38.465  0.00  0.00    -0.594 OA
ENDBRANCH  20  26
ENDBRANCH  17  20
ENDBRANCH  14  17
ENDBRANCH  11  14
ENDBRANCH   6  11
BRANCH   1  30
ATOM     30  OAS B65 d          14.372  53.930  39.252  0.00  0.00    -0.311 OA
BRANCH  30  31
ATOM     31  CAU B65 d          14.022  54.752  40.283  0.00  0.00     0.076 A 
ATOM     32  CAL B65 d          12.995  54.394  41.140  0.00  0.00    -0.050 A 
ATOM     33  CAH B65 d          12.767  55.151  42.292  0.00  0.00    -0.080 A 
ATOM     34  H1  B65 d          12.374  53.534  40.919  0.00  0.00     0.087 H 
ATOM     35  CAG B65 d          13.563  56.255  42.575  0.00  0.00    -0.083 A 
ATOM     36  H2  B65 d          11.966  54.875  42.969  0.00  0.00     0.083 H 
ATOM     37  CAI B65 d          14.587  56.612  41.711  0.00  0.00    -0.080 A 
ATOM     38  H3  B65 d          13.382  56.838  43.472  0.00  0.00     0.083 H 
ATOM     39  CAM B65 d          14.815  55.861  40.559  0.00  0.00    -0.050 A 
ATOM     40  H4  B65 d          15.208  57.473  41.931  0.00  0.00     0.083 H 
ATOM     41  H5  B65 d          15.611  56.141  39.878  0.00  0.00     0.087 H 
ENDBRANCH  30  31
ENDBRANCH   1  30
TORSDOF 8
ENDMDL
MODEL 8
REMARK VINA RESULT:      -7.4      1.484      3.098
REMARK  8 active torsions:
REMARK  status: ('A' for Active; 'I' for Inactive)
REMARK    1  A    between atoms: CAU_6  and  OAS_7 
REMARK    2  A    between atoms: OAS_7  and  CAV_8 
REMARK    3  A    between atoms: CAT_13  and  CAQ_14 
REMARK    4  A    between atoms: CAQ_14  and  CAP_15 
REMARK    5  A    between atoms: CAP_15  and  CAR_16 
REMARK    6  A    between atoms: CAR_16  and  CAW_17 
REMARK    7  A    between atoms: CAW_17  and  PAX_18 
REMARK    8  A    between atoms: CAW_17  and  SAY_22 
ROOT
ATOM      1  CAV B65 d          16.330  50.879  38.829  0.00  0.00     0.076 A 
ATOM      2  CAO B65 d          17.616  51.059  38.324  0.00  0.00    -0.044 A 
ATOM      3  CAN B65 d          15.356  50.288  38.033  0.00  0.00    -0.050 A 
ATOM      4  CAJ B65 d          15.673  49.890  36.740  0.00  0.00    -0.080 A 
ATOM      5  CAK B65 d          16.957  50.082  36.235  0.00  0.00    -0.077 A 
ATOM      6  CAT B65 d          17.932  50.670  37.033  0.00  0.00    -0.056 A 
ATOM      7  H6  B65 d          18.379  51.508  38.950  0.00  0.00     0.088 H 
ATOM      8  H7  B65 d          14.354  50.138  38.420  0.00  0.00     0.087 H 
ATOM      9  H8  B65 d          14.914  49.427  36.119  0.00  0.00     0.083 H 
ATOM     10  H9  B65 d          17.194  49.773  35.224  0.00  0.00     0.084 H 
ENDROOT
BRANCH   6  11
ATOM     11  CAQ B65 d          19.340  50.947  36.494  0.00  0.00    -0.041 C 
ATOM     12  H10 B65 d          19.748  50.018  36.070  0.00  0.00     0.040 H 
ATOM     13  H11 B65 d          19.979  51.282  37.325  0.00  0.00     0.040 H 
BRANCH  11  14
ATOM     14  CAP B65 d          19.330  52.027  35.410  0.00  0.00    -0.059 C 
ATOM     15  H12 B65 d          18.296  52.204  35.078  0.00  0.00     0.033 H 
ATOM     16  H13 B65 d          19.937  51.694  34.555  0.00  0.00     0.033 H 
BRANCH  14  17
ATOM     17  CAR B65 d          19.913  53.321  35.977  0.00  0.00    -0.034 C 
ATOM     18  H14 B65 d          20.054  54.035  35.151  0.00  0.00     0.036 H 
ATOM     19  H15 B65 d          20.886  53.096  36.437  0.00  0.00     0.036 H 
BRANCH  17  20
ATOM     20  CAW B65 d          19.009  53.964  37.032  0.00  0.00     0.169 C 
ATOM     21  H16 B65 d          18.200  53.262  37.279  0.00  0.00     0.090 H 
BRANCH  20  22
ATOM     22  PAX B65 d          18.262  55.522  36.403  0.00  0.00     0.281 P 
ATOM     23  OAB B65 d          19.472  56.461  35.906  0.00  0.00    -0.639 OA
ATOM     24  OAC B65 d          17.420  55.109  35.093  0.00  0.00    -0.639 OA
ATOM     25  OAA B65 d          17.419  56.195  37.420  0.00  0.00    -0.639 OA
ENDBRANCH  20  22
BRANCH  20  26
ATOM     26  SAY B65 d          19.985  54.298  38.542  0.00  0.00     0.119 S 
ATOM     27  OAF B65 d          20.214  55.706  38.659  0.00  0.00    -0.594 OA
ATOM     28  OAE B65 d          21.304  53.592  38.460  0.00  0.00    -0.594 OA
ATOM     29  OAD B65 d          19.240  53.786  39.744  0.00  0.00    -0.594 OA
ENDBRANCH  20  26
ENDBRANCH  17  20
ENDBRANCH  14  17
ENDBRANCH  11  14
ENDBRANCH   6  11
BRANCH   1  30
ATOM     30  OAS B65 d          16.060  51.408  40.050  0.00  0.00    -0.311 OA
BRANCH  30  31
ATOM     31  CAU B65 d          15.337  52.565  40.061  0.00  0.00     0.076 A 
ATOM     32  CAL B65 d          14.114  52.615  40.708  0.00  0.00    -0.050 A 
ATOM     33  CAH B65 d          13.471  53.845  40.868  0.00  0.00    -0.080 A 
ATOM     34  H1  B65 d          13.659  51.707  41.087  0.00  0.00     0.087 H 
ATOM     35  CAG B65 d          14.053  55.010  40.381  0.00  0.00    -0.083 A 
ATOM     36  H2  B65 d          12.514  53.891  41.375  0.00  0.00     0.083 H 
ATOM     37  CAI B65 d          15.276  54.954  39.730  0.00  0.00    -0.080 A 
ATOM     38  H3  B65 d          13.550  55.962  40.510  0.00  0.00     0.083 H 
ATOM     39  CAM B65 d          15.919  53.728  39.566  0.00  0.00    -0.050 A 
ATOM     40  H4  B65 d          15.732  55.862  39.351  0.00  0.00     0.083 H 
ATOM     41  H5  B65 d          16.872  53.680  39.052  0.00  0.00     0.087 H 
ENDBRANCH  30  31
ENDBRANCH   1  30
TORSDOF 8
ENDMDL
MODEL 9
REMARK VINA RESULT:      -7.3      2.154      4.519
REMARK  8 active torsions:
REMARK  status: ('A' for Active; 'I' for Inactive)
REMARK    1  A    between atoms: CAU_6  and  OAS_7 
REMARK    2  A    between atoms: OAS_7  and  CAV_8 
REMARK    3  A    between atoms: CAT_13  and  CAQ_14 
REMARK    4  A    between atoms: CAQ_14  and  CAP_15 
REMARK    5  A    between atoms: CAP_15  and  CAR_16 
REMARK    6  A    between atoms: CAR_16  and  CAW_17 
REMARK    7  A    between atoms: CAW_17  and  PAX_18 
REMARK    8  A    between atoms: CAW_17  and  SAY_22 
ROOT
ATOM      1  CAV B65 d          14.628  54.014  39.813  0.00  0.00     0.076 A 
ATOM      2  CAO B65 d          15.513  54.351  38.790  0.00  0.00    -0.044 A 
ATOM      3  CAN B65 d          14.050  55.017  40.581  0.00  0.00    -0.050 A 
ATOM      4  CAJ B65 d          14.367  56.346  40.327  0.00  0.00    -0.080 A 
ATOM      5  CAK B65 d          15.260  56.679  39.311  0.00  0.00    -0.077 A 
ATOM      6  CAT B65 d          15.836  55.675  38.541  0.00  0.00    -0.056 A 
ATOM      7  H6  B65 d          15.954  53.569  38.183  0.00  0.00     0.088 H 
ATOM      8  H7  B65 d          13.356  54.764  41.374  0.00  0.00     0.087 H 
ATOM      9  H8  B65 d          13.915  57.129  40.924  0.00  0.00     0.083 H 
ATOM     10  H9  B65 d          15.505  57.718  39.123  0.00  0.00     0.084 H 
ENDROOT
BRANCH   6  11
ATOM     11  CAQ B65 d          16.864  55.999  37.451  0.00  0.00    -0.041 C 
ATOM     12  H10 B65 d          17.473  56.854  37.779  0.00  0.00     0.040 H 
ATOM     13  H11 B65 d          16.331  56.261  36.526  0.00  0.00     0.040 H 
BRANCH  11  14
ATOM     14  CAP B65 d          17.787  54.810  37.172  0.00  0.00    -0.059 C 
ATOM     15  H12 B65 d          17.796  54.598  36.092  0.00  0.00     0.033 H 
ATOM     16  H13 B65 d          17.422  53.926  37.716  0.00  0.00     0.033 H 
BRANCH  14  17
ATOM     17  CAR B65 d          19.203  55.148  37.637  0.00  0.00    -0.034 C 
ATOM     18  H14 B65 d          19.179  56.110  38.170  0.00  0.00     0.036 H 
ATOM     19  H15 B65 d          19.853  55.233  36.754  0.00  0.00     0.036 H 
BRANCH  17  20
ATOM     20  CAW B65 d          19.787  54.085  38.573  0.00  0.00     0.169 C 
ATOM     21  H16 B65 d          18.977  53.682  39.198  0.00  0.00     0.090 H 
BRANCH  20  22
ATOM     22  PAX B65 d          21.072  54.805  39.673  0.00  0.00     0.281 P 
ATOM     23  OAB B65 d          22.438  54.873  38.824  0.00  0.00    -0.639 OA
ATOM     24  OAC B65 d          20.615  56.326  39.948  0.00  0.00    -0.639 OA
ATOM     25  OAA B65 d          21.237  54.035  40.928  0.00  0.00    -0.639 OA
ENDBRANCH  20  22
BRANCH  20  26
ATOM     26  SAY B65 d          20.498  52.726  37.576  0.00  0.00     0.119 S 
ATOM     27  OAF B65 d          20.546  53.120  36.201  0.00  0.00    -0.594 OA
ATOM     28  OAE B65 d          19.646  51.501  37.707  0.00  0.00    -0.594 OA
ATOM     29  OAD B65 d          21.879  52.407  38.078  0.00  0.00    -0.594 OA
ENDBRANCH  20  26
ENDBRANCH  17  20
ENDBRANCH  14  17
ENDBRANCH  11  14
ENDBRANCH   6  11
BRANCH   1  30
ATOM     30  OAS B65 d          14.467  52.693  40.086  0.00  0.00    -0.311 OA
BRANCH  30  31
ATOM     31  CAU B65 d          15.389  51.846  39.543  0.00  0.00     0.076 A 
ATOM     32  CAL B65 d          16.387  51.304  40.335  0.00  0.00    -0.050 A 
ATOM     33  CAH B65 d          17.210  50.303  39.813  0.00  0.00    -0.080 A 
ATOM     34  H1  B65 d          16.528  51.654  41.352  0.00  0.00     0.087 H 
ATOM     35  CAG B65 d          17.031  49.856  38.509  0.00  0.00    -0.083 A 
ATOM     36  H2  B65 d          17.992  49.873  40.428  0.00  0.00     0.083 H 
ATOM     37  CAI B65 d          16.033  50.405  37.719  0.00  0.00    -0.080 A 
ATOM     38  H3  B65 d          17.672  49.078  38.110  0.00  0.00     0.083 H 
ATOM     39  CAM B65 d          15.212  51.406  38.236  0.00  0.00    -0.050 A 
ATOM     40  H4  B65 d          15.891  50.057  36.702  0.00  0.00     0.083 H 
ATOM     41  H5  B65 d          14.434  51.842  37.618  0.00  0.00     0.087 H 
ENDBRANCH  30  31
ENDBRANCH   1  30
TORSDOF 8
ENDMDL
MODEL 10
REMARK VINA RESULT:      -7.2      2.288      3.269
REMARK  8 active torsions:
REMARK  status: ('A' for Active; 'I' for Inactive)
REMARK    1  A    between atoms: CAU_6  and  OAS_7 
REMARK    2  A    between atoms: OAS_7  and  CAV_8 
REMARK    3  A    between atoms: CAT_13  and  CAQ_14 
REMARK    4  A    between atoms: CAQ_14  and  CAP_15 
REMARK    5  A    between atoms: CAP_15  and  CAR_16 
REMARK    6  A    between atoms: CAR_16  and  CAW_17 
REMARK    7  A    between atoms: CAW_17  and  PAX_18 
REMARK    8  A    between atoms: CAW_17  and  SAY_22 
ROOT
ATOM      1  CAV B65 d          15.714  52.460  37.036  0.00  0.00     0.076 A 
ATOM      2  CAO B65 d          17.019  52.649  36.588  0.00  0.00    -0.044 A 
ATOM      3  CAN B65 d          15.284  51.186  37.387  0.00  0.00    -0.050 A 
ATOM      4  CAJ B65 d          16.160  50.113  37.280  0.00  0.00    -0.080 A 
ATOM      5  CAK B65 d          17.461  50.303  36.822  0.00  0.00    -0.077 A 
ATOM      6  CAT B65 d          17.891  51.578  36.473  0.00  0.00    -0.056 A 
ATOM      7  H6  B65 d          17.358  53.645  36.326  0.00  0.00     0.088 H 
ATOM      8  H7  B65 d          14.273  51.031  37.743  0.00  0.00     0.087 H 
ATOM      9  H8  B65 d          15.827  49.118  37.556  0.00  0.00     0.083 H 
ATOM     10  H9  B65 d          18.136  49.459  36.737  0.00  0.00     0.084 H 
ENDROOT
BRANCH   6  11
ATOM     11  CAQ B65 d          19.298  51.819  35.913  0.00  0.00    -0.041 C 
ATOM     12  H10 B65 d          19.250  51.813  34.815  0.00  0.00     0.040 H 
ATOM     13  H11 B65 d          19.960  51.011  36.256  0.00  0.00     0.040 H 
BRANCH  11  14
ATOM     14  CAP B65 d          19.871  53.160  36.378  0.00  0.00    -0.059 C 
ATOM     15  H12 B65 d          19.049  53.873  36.544  0.00  0.00     0.033 H 
ATOM     16  H13 B65 d          20.549  53.556  35.607  0.00  0.00     0.033 H 
BRANCH  14  17
ATOM     17  CAR B65 d          20.642  52.958  37.682  0.00  0.00    -0.034 C 
ATOM     18  H14 B65 d          21.698  52.765  37.440  0.00  0.00     0.036 H 
ATOM     19  H15 B65 d          20.222  52.088  38.208  0.00  0.00     0.036 H 
BRANCH  17  20
ATOM     20  CAW B65 d          20.566  54.175  38.609  0.00  0.00     0.169 C 
ATOM     21  H16 B65 d          20.471  55.081  37.993  0.00  0.00     0.090 H 
BRANCH  20  22
ATOM     22  PAX B65 d          22.084  54.320  39.635  0.00  0.00     0.281 P 
ATOM     23  OAB B65 d          22.965  53.000  39.368  0.00  0.00    -0.639 OA
ATOM     24  OAC B65 d          22.908  55.565  39.029  0.00  0.00    -0.639 OA
ATOM     25  OAA B65 d          21.777  54.501  41.074  0.00  0.00    -0.639 OA
ENDBRANCH  20  22
BRANCH  20  26
ATOM     26  SAY B65 d          19.091  54.028  39.680  0.00  0.00     0.119 S 
ATOM     27  OAF B65 d          18.059  54.889  39.189  0.00  0.00    -0.594 OA
ATOM     28  OAE B65 d          19.441  54.430  41.081  0.00  0.00    -0.594 OA
ATOM     29  OAD B65 d          18.621  52.600  39.693  0.00  0.00    -0.594 OA
ENDBRANCH  20  26
ENDBRANCH  17  20
ENDBRANCH  14  17
ENDBRANCH  11  14
ENDBRANCH   6  11
BRANCH   1  30
ATOM     30  OAS B65 d          14.879  53.531  36.991  0.00  0.00    -0.311 OA
BRANCH  30  31
ATOM     31  CAU B65 d          14.976  54.417  38.024  0.00  0.00     0.076 A 
ATOM     32  CAL B65 d          15.050  55.776  37.769  0.00  0.00    -0.050 A 
ATOM     33  CAH B65 d          14.966  56.679  38.831  0.00  0.00    -0.080 A 
ATOM     34  H1  B65 d          15.172  56.136  36.754  0.00  0.00     0.087 H 
ATOM     35  CAG B65 d          14.812  56.219  40.134  0.00  0.00    -0.083 A 
ATOM     36  H2  B65 d          15.021  57.745  38.639  0.00  0.00     0.083 H 
ATOM     37  CAI B65 d          14.743  54.856  40.384  0.00  0.00    -0.080 A 
ATOM     38  H3  B65 d          14.746  56.925  40.954  0.00  0.00     0.083 H 
ATOM     39  CAM B65 d          14.829  53.952  39.326  0.00  0.00    -0.050 A 
ATOM     40  H4  B65 d          14.622  54.496  41.399  0.00  0.00     0.083 H 
ATOM     41  H5  B65 d          14.782  52.886  39.519  0.00  0.00     0.087 H 
ENDBRANCH  30  31
ENDBRANCH   1  30
TORSDOF 8
ENDMDL
