MODEL 1
REMARK VINA RESULT:      -5.9      0.000      0.000
REMARK  5 active torsions:
REMARK  status: ('A' for Active; 'I' for Inactive)
REMARK    1  A    between atoms: C2_2  and  O2_8 
REMARK    2  A    between atoms: C3_3  and  O3_9 
REMARK    3  A    between atoms: C4_4  and  O4_10 
REMARK    4  A    between atoms: C5_5  and  C6_6 
REMARK    5  A    between atoms: C6_6  and  O6_12 
ROOT
ATOM      1  C1  MOL d         -10.339 -29.682 -28.888  0.00  0.00     0.291 C 
ATOM      2  C2  MOL d         -11.425 -28.868 -28.168  0.00  0.00     0.146 C 
ATOM      3  C3  MOL d         -10.916 -28.425 -26.796  0.00  0.00     0.096 C 
ATOM      4  C4  MOL d         -10.387 -29.623 -26.013  0.00  0.00     0.090 C 
ATOM      5  C5  MOL d          -9.106 -30.122 -26.709  0.00  0.00     0.095 C 
ATOM      6  O1  MOL d         -10.397 -29.837 -30.081  0.00  0.00    -0.262 OA
ATOM      7  O5  MOL d          -9.290 -30.244 -28.178  0.00  0.00    -0.309 OA
ATOM      8  H1  MOL d         -12.324 -29.490 -28.046  0.00  0.00     0.103 H 
ATOM      9  H2  MOL d         -10.104 -27.695 -26.928  0.00  0.00     0.091 H 
ATOM     10  H3  MOL d         -10.158 -29.321 -24.981  0.00  0.00     0.091 H 
ATOM     11  H4  MOL d          -8.297 -29.405 -26.508  0.00  0.00     0.091 H 
ENDROOT
BRANCH   5  12
ATOM     12  C6  MOL d          -8.708 -31.496 -26.169  0.00  0.00     0.044 C 
ATOM     13  H5  MOL d          -7.664 -31.705 -26.444  0.00  0.00     0.078 H 
ATOM     14  H6  MOL d          -9.364 -32.262 -26.608  0.00  0.00     0.078 H 
BRANCH  12  15
ATOM     15  O6  MOL d          -8.835 -31.524 -24.749  0.00  0.00    -0.398 OA
ATOM     16  H10 MOL d          -9.699 -31.214 -24.503  0.00  0.00     0.209 HD
ENDBRANCH  12  15
ENDBRANCH   5  12
BRANCH   4  17
ATOM     17  O4  MOL d         -11.369 -30.669 -25.998  0.00  0.00    -0.390 OA
ATOM     18  H9  MOL d         -11.872 -30.618 -25.194  0.00  0.00     0.210 HD
ENDBRANCH   4  17
BRANCH   3  19
ATOM     19  O3  MOL d         -11.981 -27.819 -26.090  0.00  0.00    -0.390 OA
ATOM     20  H8  MOL d         -11.640 -27.120 -25.545  0.00  0.00     0.210 HD
ENDBRANCH   3  19
BRANCH   2  21
ATOM     21  O2  MOL d         -11.751 -27.695 -28.931  0.00  0.00    -0.383 OA
ATOM     22  H7  MOL d         -11.415 -27.789 -29.814  0.00  0.00     0.210 HD
ENDBRANCH   2  21
TORSDOF 5
ENDMDL
MODEL 2
REMARK VINA RESULT:      -5.4      1.445      3.926
REMARK  5 active torsions:
REMARK  status: ('A' for Active; 'I' for Inactive)
REMARK    1  A    between atoms: C2_2  and  O2_8 
REMARK    2  A    between atoms: C3_3  and  O3_9 
REMARK    3  A    between atoms: C4_4  and  O4_10 
REMARK    4  A    between atoms: C5_5  and  C6_6 
REMARK    5  A    between atoms: C6_6  and  O6_12 
ROOT
ATOM      1  C1  MOL d         -10.848 -27.835 -26.594  0.00  0.00     0.291 C 
ATOM      2  C2  MOL d          -9.973 -28.889 -25.899  0.00  0.00     0.146 C 
ATOM      3  C3  MOL d          -9.014 -29.516 -26.911  0.00  0.00     0.096 C 
ATOM      4  C4  MOL d          -9.783 -30.022 -28.129  0.00  0.00     0.090 C 
ATOM      5  C5  MOL d         -10.332 -28.800 -28.889  0.00  0.00     0.095 C 
ATOM      6  O1  MOL d         -11.420 -27.003 -25.938  0.00  0.00    -0.262 OA
ATOM      7  O5  MOL d         -10.988 -27.831 -27.973  0.00  0.00    -0.309 OA
ATOM      8  H1  MOL d         -10.618 -29.670 -25.468  0.00  0.00     0.103 H 
ATOM      9  H2  MOL d          -8.284 -28.761 -27.235  0.00  0.00     0.091 H 
ATOM     10  H3  MOL d          -9.109 -30.596 -28.782  0.00  0.00     0.091 H 
ATOM     11  H4  MOL d          -9.496 -28.300 -29.399  0.00  0.00     0.091 H 
ENDROOT
BRANCH   5  12
ATOM     12  C6  MOL d         -11.366 -29.239 -29.926  0.00  0.00     0.044 C 
ATOM     13  H5  MOL d         -11.672 -28.369 -30.525  0.00  0.00     0.078 H 
ATOM     14  H6  MOL d         -12.243 -29.657 -29.410  0.00  0.00     0.078 H 
BRANCH  12  15
ATOM     15  O6  MOL d         -10.810 -30.231 -30.787  0.00  0.00    -0.398 OA
ATOM     16  H10 MOL d         -11.084 -30.062 -31.682  0.00  0.00     0.209 HD
ENDBRANCH  12  15
ENDBRANCH   5  12
BRANCH   4  17
ATOM     17  O4  MOL d         -10.869 -30.860 -27.708  0.00  0.00    -0.390 OA
ATOM     18  H9  MOL d         -10.753 -31.090 -26.794  0.00  0.00     0.210 HD
ENDBRANCH   4  17
BRANCH   3  19
ATOM     19  O3  MOL d          -8.335 -30.589 -26.289  0.00  0.00    -0.390 OA
ATOM     20  H8  MOL d          -7.398 -30.461 -26.376  0.00  0.00     0.210 HD
ENDBRANCH   3  19
BRANCH   2  21
ATOM     21  O2  MOL d          -9.195 -28.277 -24.857  0.00  0.00    -0.383 OA
ATOM     22  H7  MOL d          -9.468 -28.624 -24.015  0.00  0.00     0.210 HD
ENDBRANCH   2  21
TORSDOF 5
ENDMDL
MODEL 3
REMARK VINA RESULT:      -4.6      1.241      4.182
REMARK  5 active torsions:
REMARK  status: ('A' for Active; 'I' for Inactive)
REMARK    1  A    between atoms: C2_2  and  O2_8 
REMARK    2  A    between atoms: C3_3  and  O3_9 
REMARK    3  A    between atoms: C4_4  and  O4_10 
REMARK    4  A    between atoms: C5_5  and  C6_6 
REMARK    5  A    between atoms: C6_6  and  O6_12 
ROOT
ATOM      1  C1  MOL d         -11.332 -30.901 -26.190  0.00  0.00     0.291 C 
ATOM      2  C2  MOL d          -9.797 -30.844 -26.184  0.00  0.00     0.146 C 
ATOM      3  C3  MOL d          -9.330 -29.420 -26.487  0.00  0.00     0.096 C 
ATOM      4  C4  MOL d          -9.987 -28.906 -27.765  0.00  0.00     0.090 C 
ATOM      5  C5  MOL d         -11.491 -28.722 -27.490  0.00  0.00     0.095 C 
ATOM      6  O1  MOL d         -11.901 -31.819 -25.657  0.00  0.00    -0.262 OA
ATOM      7  O5  MOL d         -12.074 -29.904 -26.804  0.00  0.00    -0.309 OA
ATOM      8  H1  MOL d          -9.405 -31.532 -26.949  0.00  0.00     0.103 H 
ATOM      9  H2  MOL d          -9.607 -28.762 -25.651  0.00  0.00     0.091 H 
ATOM     10  H3  MOL d          -9.539 -27.943 -28.052  0.00  0.00     0.091 H 
ATOM     11  H4  MOL d         -11.624 -27.836 -26.851  0.00  0.00     0.091 H 
ENDROOT
BRANCH   5  12
ATOM     12  C6  MOL d         -12.251 -28.516 -28.800  0.00  0.00     0.044 C 
ATOM     13  H5  MOL d         -13.124 -27.872 -28.616  0.00  0.00     0.078 H 
ATOM     14  H6  MOL d         -12.589 -29.492 -29.180  0.00  0.00     0.078 H 
BRANCH  12  15
ATOM     15  O6  MOL d         -11.406 -27.899 -29.769  0.00  0.00    -0.398 OA
ATOM     16  H10 MOL d         -10.600 -27.618 -29.352  0.00  0.00     0.209 HD
ENDBRANCH  12  15
ENDBRANCH   5  12
BRANCH   4  17
ATOM     17  O4  MOL d          -9.801 -29.854 -28.826  0.00  0.00    -0.390 OA
ATOM     18  H9  MOL d          -9.137 -30.484 -28.573  0.00  0.00     0.210 HD
ENDBRANCH   4  17
BRANCH   3  19
ATOM     19  O3  MOL d          -7.924 -29.424 -26.635  0.00  0.00    -0.390 OA
ATOM     20  H8  MOL d          -7.704 -29.411 -27.559  0.00  0.00     0.210 HD
ENDBRANCH   3  19
BRANCH   2  21
ATOM     21  O2  MOL d          -9.293 -31.221 -24.893  0.00  0.00    -0.383 OA
ATOM     22  H7  MOL d         -10.006 -31.227 -24.265  0.00  0.00     0.210 HD
ENDBRANCH   2  21
TORSDOF 5
ENDMDL
MODEL 4
REMARK VINA RESULT:      -4.5      1.417      3.645
REMARK  5 active torsions:
REMARK  status: ('A' for Active; 'I' for Inactive)
REMARK    1  A    between atoms: C2_2  and  O2_8 
REMARK    2  A    between atoms: C3_3  and  O3_9 
REMARK    3  A    between atoms: C4_4  and  O4_10 
REMARK    4  A    between atoms: C5_5  and  C6_6 
REMARK    5  A    between atoms: C6_6  and  O6_12 
ROOT
ATOM      1  C1  MOL d          -9.107 -30.748 -27.413  0.00  0.00     0.291 C 
ATOM      2  C2  MOL d          -9.036 -29.617 -26.375  0.00  0.00     0.146 C 
ATOM      3  C3  MOL d         -10.385 -28.903 -26.294  0.00  0.00     0.096 C 
ATOM      4  C4  MOL d         -10.842 -28.470 -27.685  0.00  0.00     0.090 C 
ATOM      5  C5  MOL d         -11.173 -29.737 -28.495  0.00  0.00     0.095 C 
ATOM      6  O1  MOL d          -8.287 -31.630 -27.396  0.00  0.00    -0.262 OA
ATOM      7  O5  MOL d         -10.107 -30.764 -28.373  0.00  0.00    -0.309 OA
ATOM      8  H1  MOL d          -8.256 -28.901 -26.671  0.00  0.00     0.103 H 
ATOM      9  H2  MOL d         -11.133 -29.587 -25.867  0.00  0.00     0.091 H 
ATOM     10  H3  MOL d         -11.737 -27.836 -27.601  0.00  0.00     0.091 H 
ATOM     11  H4  MOL d         -12.118 -30.157 -28.119  0.00  0.00     0.091 H 
ENDROOT
BRANCH   5  12
ATOM     12  C6  MOL d         -11.330 -29.395 -29.977  0.00  0.00     0.044 C 
ATOM     13  H5  MOL d         -10.985 -28.365 -30.150  0.00  0.00     0.078 H 
ATOM     14  H6  MOL d         -12.390 -29.480 -30.259  0.00  0.00     0.078 H 
BRANCH  12  15
ATOM     15  O6  MOL d         -10.557 -30.290 -30.774  0.00  0.00    -0.398 OA
ATOM     16  H10 MOL d          -9.745 -30.494 -30.324  0.00  0.00     0.209 HD
ENDBRANCH  12  15
ENDBRANCH   5  12
BRANCH   4  17
ATOM     17  O4  MOL d          -9.795 -27.737 -28.337  0.00  0.00    -0.390 OA
ATOM     18  H9  MOL d          -9.563 -26.983 -27.809  0.00  0.00     0.210 HD
ENDBRANCH   4  17
BRANCH   3  19
ATOM     19  O3  MOL d         -10.252 -27.773 -25.456  0.00  0.00    -0.390 OA
ATOM     20  H8  MOL d         -11.053 -27.650 -24.962  0.00  0.00     0.210 HD
ENDBRANCH   3  19
BRANCH   2  21
ATOM     21  O2  MOL d          -8.729 -30.155 -25.078  0.00  0.00    -0.383 OA
ATOM     22  H7  MOL d          -8.408 -31.044 -25.174  0.00  0.00     0.210 HD
ENDBRANCH   2  21
TORSDOF 5
ENDMDL
MODEL 5
REMARK VINA RESULT:      -4.4      1.224      2.833
REMARK  5 active torsions:
REMARK  status: ('A' for Active; 'I' for Inactive)
REMARK    1  A    between atoms: C2_2  and  O2_8 
REMARK    2  A    between atoms: C3_3  and  O3_9 
REMARK    3  A    between atoms: C4_4  and  O4_10 
REMARK    4  A    between atoms: C5_5  and  C6_6 
REMARK    5  A    between atoms: C6_6  and  O6_12 
ROOT
ATOM      1  C1  MOL d         -11.675 -28.255 -27.227  0.00  0.00     0.291 C 
ATOM      2  C2  MOL d         -11.292 -28.393 -28.708  0.00  0.00     0.146 C 
ATOM      3  C3  MOL d         -10.803 -29.814 -28.987  0.00  0.00     0.096 C 
ATOM      4  C4  MOL d          -9.703 -30.200 -28.001  0.00  0.00     0.090 C 
ATOM      5  C5  MOL d         -10.336 -30.324 -26.602  0.00  0.00     0.095 C 
ATOM      6  O1  MOL d         -12.384 -27.348 -26.872  0.00  0.00    -0.262 OA
ATOM      7  O5  MOL d         -11.211 -29.165 -26.290  0.00  0.00    -0.309 OA
ATOM      8  H1  MOL d         -10.495 -27.673 -28.946  0.00  0.00     0.103 H 
ATOM      9  H2  MOL d         -11.643 -30.515 -28.880  0.00  0.00     0.091 H 
ATOM     10  H3  MOL d          -9.259 -31.162 -28.297  0.00  0.00     0.091 H 
ATOM     11  H4  MOL d         -10.936 -31.244 -26.571  0.00  0.00     0.091 H 
ENDROOT
BRANCH   5  12
ATOM     12  C6  MOL d          -9.248 -30.394 -25.531  0.00  0.00     0.044 C 
ATOM     13  H5  MOL d          -8.442 -31.059 -25.875  0.00  0.00     0.078 H 
ATOM     14  H6  MOL d          -9.680 -30.792 -24.600  0.00  0.00     0.078 H 
BRANCH  12  15
ATOM     15  O6  MOL d          -8.713 -29.096 -25.284  0.00  0.00    -0.398 OA
ATOM     16  H10 MOL d          -7.993 -29.163 -24.667  0.00  0.00     0.209 HD
ENDBRANCH  12  15
ENDBRANCH   5  12
BRANCH   4  17
ATOM     17  O4  MOL d          -8.685 -29.189 -27.985  0.00  0.00    -0.390 OA
ATOM     18  H9  MOL d          -8.992 -28.424 -28.457  0.00  0.00     0.210 HD
ENDBRANCH   4  17
BRANCH   3  19
ATOM     19  O3  MOL d         -10.308 -29.873 -30.310  0.00  0.00    -0.390 OA
ATOM     20  H8  MOL d         -10.949 -30.297 -30.868  0.00  0.00     0.210 HD
ENDBRANCH   3  19
BRANCH   2  21
ATOM     21  O2  MOL d         -12.436 -28.136 -29.540  0.00  0.00    -0.383 OA
ATOM     22  H7  MOL d         -12.840 -27.318 -29.277  0.00  0.00     0.210 HD
ENDBRANCH   2  21
TORSDOF 5
ENDMDL
MODEL 6
REMARK VINA RESULT:      -4.3      1.328      3.873
REMARK  5 active torsions:
REMARK  status: ('A' for Active; 'I' for Inactive)
REMARK    1  A    between atoms: C2_2  and  O2_8 
REMARK    2  A    between atoms: C3_3  and  O3_9 
REMARK    3  A    between atoms: C4_4  and  O4_10 
REMARK    4  A    between atoms: C5_5  and  C6_6 
REMARK    5  A    between atoms: C6_6  and  O6_12 
ROOT
ATOM      1  C1  MOL d          -9.361 -29.697 -26.973  0.00  0.00     0.291 C 
ATOM      2  C2  MOL d         -10.150 -30.425 -25.874  0.00  0.00     0.146 C 
ATOM      3  C3  MOL d         -11.410 -31.052 -26.469  0.00  0.00     0.096 C 
ATOM      4  C4  MOL d         -12.207 -30.008 -27.247  0.00  0.00     0.090 C 
ATOM      5  C5  MOL d         -11.394 -29.620 -28.497  0.00  0.00     0.095 C 
ATOM      6  O1  MOL d          -8.199 -29.429 -26.801  0.00  0.00    -0.262 OA
ATOM      7  O5  MOL d          -9.973 -29.343 -28.165  0.00  0.00    -0.309 OA
ATOM      8  H1  MOL d         -10.430 -29.704 -25.090  0.00  0.00     0.103 H 
ATOM      9  H2  MOL d         -11.124 -31.866 -27.150  0.00  0.00     0.091 H 
ATOM     10  H3  MOL d         -13.177 -30.430 -27.549  0.00  0.00     0.091 H 
ATOM     11  H4  MOL d         -11.439 -30.452 -29.215  0.00  0.00     0.091 H 
ENDROOT
BRANCH   5  12
ATOM     12  C6  MOL d         -11.979 -28.364 -29.143  0.00  0.00     0.044 C 
ATOM     13  H5  MOL d         -12.292 -27.662 -28.356  0.00  0.00     0.078 H 
ATOM     14  H6  MOL d         -12.852 -28.643 -29.753  0.00  0.00     0.078 H 
BRANCH  12  15
ATOM     15  O6  MOL d         -11.005 -27.737 -29.974  0.00  0.00    -0.398 OA
ATOM     16  H10 MOL d         -10.154 -27.783 -29.553  0.00  0.00     0.209 HD
ENDBRANCH  12  15
ENDBRANCH   5  12
BRANCH   4  17
ATOM     17  O4  MOL d         -12.423 -28.849 -26.430  0.00  0.00    -0.390 OA
ATOM     18  H9  MOL d         -13.230 -28.954 -25.940  0.00  0.00     0.210 HD
ENDBRANCH   4  17
BRANCH   3  19
ATOM     19  O3  MOL d         -12.198 -31.575 -25.418  0.00  0.00    -0.390 OA
ATOM     20  H8  MOL d         -11.785 -31.379 -24.586  0.00  0.00     0.210 HD
ENDBRANCH   3  19
BRANCH   2  21
ATOM     21  O2  MOL d          -9.350 -31.472 -25.301  0.00  0.00    -0.383 OA
ATOM     22  H7  MOL d          -9.918 -32.141 -24.939  0.00  0.00     0.210 HD
ENDBRANCH   2  21
TORSDOF 5
ENDMDL
MODEL 7
REMARK VINA RESULT:      -3.6      1.297      3.748
REMARK  5 active torsions:
REMARK  status: ('A' for Active; 'I' for Inactive)
REMARK    1  A    between atoms: C2_2  and  O2_8 
REMARK    2  A    between atoms: C3_3  and  O3_9 
REMARK    3  A    between atoms: C4_4  and  O4_10 
REMARK    4  A    between atoms: C5_5  and  C6_6 
REMARK    5  A    between atoms: C6_6  and  O6_12 
ROOT
ATOM      1  C1  MOL d          -9.615 -30.122 -26.806  0.00  0.00     0.291 C 
ATOM      2  C2  MOL d          -9.868 -30.690 -28.212  0.00  0.00     0.146 C 
ATOM      3  C3  MOL d         -10.207 -29.554 -29.176  0.00  0.00     0.096 C 
ATOM      4  C4  MOL d         -11.342 -28.701 -28.614  0.00  0.00     0.090 C 
ATOM      5  C5  MOL d         -10.811 -27.953 -27.376  0.00  0.00     0.095 C 
ATOM      6  O1  MOL d          -9.018 -30.780 -25.992  0.00  0.00    -0.262 OA
ATOM      7  O5  MOL d         -10.069 -28.859 -26.463  0.00  0.00    -0.309 OA
ATOM      8  H1  MOL d         -10.705 -31.403 -28.170  0.00  0.00     0.103 H 
ATOM      9  H2  MOL d          -9.319 -28.921 -29.319  0.00  0.00     0.091 H 
ATOM     10  H3  MOL d         -11.675 -27.978 -29.373  0.00  0.00     0.091 H 
ATOM     11  H4  MOL d         -10.136 -27.153 -27.714  0.00  0.00     0.091 H 
ENDROOT
BRANCH   5  12
ATOM     12  C6  MOL d         -11.968 -27.337 -26.590  0.00  0.00     0.044 C 
ATOM     13  H5  MOL d         -12.787 -27.090 -27.282  0.00  0.00     0.078 H 
ATOM     14  H6  MOL d         -11.621 -26.421 -26.090  0.00  0.00     0.078 H 
BRANCH  12  15
ATOM     15  O6  MOL d         -12.443 -28.257 -25.609  0.00  0.00    -0.398 OA
ATOM     16  H10 MOL d         -13.159 -28.766 -25.974  0.00  0.00     0.209 HD
ENDBRANCH  12  15
ENDBRANCH   5  12
BRANCH   4  17
ATOM     17  O4  MOL d         -12.443 -29.540 -28.238  0.00  0.00    -0.390 OA
ATOM     18  H9  MOL d         -12.304 -30.415 -28.579  0.00  0.00     0.210 HD
ENDBRANCH   4  17
BRANCH   3  19
ATOM     19  O3  MOL d         -10.591 -30.110 -30.417  0.00  0.00    -0.390 OA
ATOM     20  H8  MOL d          -9.850 -30.097 -31.012  0.00  0.00     0.210 HD
ENDBRANCH   3  19
BRANCH   2  21
ATOM     21  O2  MOL d          -8.690 -31.357 -28.694  0.00  0.00    -0.383 OA
ATOM     22  H7  MOL d          -7.928 -31.027 -28.232  0.00  0.00     0.210 HD
ENDBRANCH   2  21
TORSDOF 5
ENDMDL
MODEL 8
REMARK VINA RESULT:      -3.4      1.436      2.621
REMARK  5 active torsions:
REMARK  status: ('A' for Active; 'I' for Inactive)
REMARK    1  A    between atoms: C2_2  and  O2_8 
REMARK    2  A    between atoms: C3_3  and  O3_9 
REMARK    3  A    between atoms: C4_4  and  O4_10 
REMARK    4  A    between atoms: C5_5  and  C6_6 
REMARK    5  A    between atoms: C6_6  and  O6_12 
ROOT
ATOM      1  C1  MOL d         -11.409 -30.584 -26.379  0.00  0.00     0.291 C 
ATOM      2  C2  MOL d         -11.246 -29.483 -27.439  0.00  0.00     0.146 C 
ATOM      3  C3  MOL d         -10.085 -29.829 -28.372  0.00  0.00     0.096 C 
ATOM      4  C4  MOL d          -8.826 -30.133 -27.563  0.00  0.00     0.090 C 
ATOM      5  C5  MOL d          -9.056 -31.450 -26.798  0.00  0.00     0.095 C 
ATOM      6  O1  MOL d         -12.443 -30.682 -25.771  0.00  0.00    -0.262 OA
ATOM      7  O5  MOL d         -10.374 -31.467 -26.114  0.00  0.00    -0.309 OA
ATOM      8  H1  MOL d         -11.045 -28.524 -26.939  0.00  0.00     0.103 H 
ATOM      9  H2  MOL d         -10.351 -30.714 -28.969  0.00  0.00     0.091 H 
ATOM     10  H3  MOL d          -7.966 -30.240 -28.240  0.00  0.00     0.091 H 
ATOM     11  H4  MOL d          -9.014 -32.283 -27.515  0.00  0.00     0.091 H 
ENDROOT
BRANCH   5  12
ATOM     12  C6  MOL d          -7.973 -31.644 -25.736  0.00  0.00     0.044 C 
ATOM     13  H5  MOL d          -7.318 -30.760 -25.720  0.00  0.00     0.078 H 
ATOM     14  H6  MOL d          -7.379 -32.537 -25.983  0.00  0.00     0.078 H 
BRANCH  12  15
ATOM     15  O6  MOL d          -8.567 -31.814 -24.451  0.00  0.00    -0.398 OA
ATOM     16  H10 MOL d          -9.297 -31.212 -24.358  0.00  0.00     0.209 HD
ENDBRANCH  12  15
ENDBRANCH   5  12
BRANCH   4  17
ATOM     17  O4  MOL d          -8.574 -29.070 -26.634  0.00  0.00    -0.390 OA
ATOM     18  H9  MOL d          -7.715 -29.187 -26.246  0.00  0.00     0.210 HD
ENDBRANCH   4  17
BRANCH   3  19
ATOM     19  O3  MOL d          -9.852 -28.734 -29.234  0.00  0.00    -0.390 OA
ATOM     20  H8  MOL d          -9.183 -28.967 -29.866  0.00  0.00     0.210 HD
ENDBRANCH   3  19
BRANCH   2  21
ATOM     21  O2  MOL d         -12.443 -29.374 -28.227  0.00  0.00    -0.383 OA
ATOM     22  H7  MOL d         -12.210 -29.289 -29.144  0.00  0.00     0.210 HD
ENDBRANCH   2  21
TORSDOF 5
ENDMDL
