MODEL 1
REMARK VINA RESULT:      -7.0      0.000      0.000
REMARK  2 active torsions:
REMARK  status: ('A' for Active; 'I' for Inactive)
REMARK    1  A    between atoms: N_9  and  C11_13 
REMARK    2  A    between atoms: C9_11  and  S_10 
ROOT
ATOM      1  C1  MOL d         121.509 134.588  65.082  0.00  0.00     0.045 A 
ATOM      2  C2  MOL d         120.733 135.695  65.562  0.00  0.00    -0.056 A 
ATOM      3  C3  MOL d         119.340 135.742  65.387  0.00  0.00    -0.080 A 
ATOM      4  C4  MOL d         118.668 134.696  64.741  0.00  0.00    -0.072 A 
ATOM      5  C5  MOL d         119.362 133.564  64.244  0.00  0.00    -0.022 A 
ATOM      6  C6  MOL d         118.648 132.517  63.598  0.00  0.00    -0.072 A 
ATOM      7  C7  MOL d         119.305 131.386  63.096  0.00  0.00    -0.081 A 
ATOM      8  C8  MOL d         120.696 131.268  63.223  0.00  0.00    -0.058 A 
ATOM      9  N   MOL d         122.808 134.584  65.268  0.00  0.00    -0.355 N 
ATOM     10  C9  MOL d         121.465 132.274  63.854  0.00  0.00     0.094 A 
ATOM     11  C10 MOL d         120.825 133.471  64.399  0.00  0.00     0.025 A 
ATOM     12  H1  MOL d         121.232 136.512  66.069  0.00  0.00     0.086 H 
ATOM     13  H2  MOL d         118.781 136.595  65.754  0.00  0.00     0.083 H 
ATOM     14  H3  MOL d         117.593 134.753  64.619  0.00  0.00     0.084 H 
ATOM     15  H4  MOL d         117.572 132.596  63.492  0.00  0.00     0.084 H 
ATOM     16  H5  MOL d         118.737 130.602  62.609  0.00  0.00     0.083 H 
ATOM     17  H6  MOL d         121.192 130.388  62.829  0.00  0.00     0.086 H 
ATOM     18  H7  MOL d         123.198 133.756  65.741  0.00  0.00     0.166 HD
ENDROOT
BRANCH   9  19
ATOM     19  C11 MOL d         123.674 135.522  64.917  0.00  0.00     0.032 A 
ATOM     20  C12 MOL d         123.458 136.444  63.826  0.00  0.00    -0.057 A 
ATOM     21  C13 MOL d         124.443 137.425  63.498  0.00  0.00    -0.081 A 
ATOM     22  H8  MOL d         122.541 136.391  63.251  0.00  0.00     0.086 H 
ATOM     23  C14 MOL d         125.651 137.493  64.253  0.00  0.00    -0.083 A 
ATOM     24  H9  MOL d         124.274 138.114  62.679  0.00  0.00     0.083 H 
ATOM     25  C15 MOL d         125.868 136.588  65.328  0.00  0.00    -0.081 A 
ATOM     26  H10 MOL d         126.403 138.233  64.008  0.00  0.00     0.083 H 
ATOM     27  C16 MOL d         124.887 135.609  65.656  0.00  0.00    -0.057 A 
ATOM     28  H11 MOL d         126.786 136.644  65.903  0.00  0.00     0.083 H 
ATOM     29  H12 MOL d         125.066 134.924  66.477  0.00  0.00     0.086 H 
ENDBRANCH   9  19
BRANCH  10  30
ATOM     30  S   MOL d         123.222 131.980  63.923  0.00  0.00     0.138 S 
ATOM     31  O1  MOL d         123.913 133.022  63.196  0.00  0.00    -0.591 OA
ATOM     32  O2  MOL d         123.464 130.668  63.351  0.00  0.00    -0.591 OA
ATOM     33  O3  MOL d         123.704 131.969  65.494  0.00  0.00    -0.591 OA
ENDBRANCH  10  30
TORSDOF 2
ENDMDL
MODEL 2
REMARK VINA RESULT:      -7.0      2.740      4.198
REMARK  2 active torsions:
REMARK  status: ('A' for Active; 'I' for Inactive)
REMARK    1  A    between atoms: N_9  and  C11_13 
REMARK    2  A    between atoms: C9_11  and  S_10 
ROOT
ATOM      1  C1  MOL d         122.287 133.254  64.209  0.00  0.00     0.045 A 
ATOM      2  C2  MOL d         122.122 131.947  63.642  0.00  0.00    -0.056 A 
ATOM      3  C3  MOL d         120.850 131.367  63.499  0.00  0.00    -0.080 A 
ATOM      4  C4  MOL d         119.701 132.063  63.901  0.00  0.00    -0.072 A 
ATOM      5  C5  MOL d         119.781 133.361  64.464  0.00  0.00    -0.022 A 
ATOM      6  C6  MOL d         118.594 134.041  64.858  0.00  0.00    -0.072 A 
ATOM      7  C7  MOL d         118.639 135.325  65.417  0.00  0.00    -0.081 A 
ATOM      8  C8  MOL d         119.871 135.968  65.602  0.00  0.00    -0.058 A 
ATOM      9  N   MOL d         123.493 133.758  64.323  0.00  0.00    -0.355 N 
ATOM     10  C9  MOL d         121.088 135.347  65.232  0.00  0.00     0.094 A 
ATOM     11  C10 MOL d         121.093 134.009  64.640  0.00  0.00     0.025 A 
ATOM     12  H1  MOL d         122.996 131.394  63.319  0.00  0.00     0.086 H 
ATOM     13  H2  MOL d         120.756 130.375  63.073  0.00  0.00     0.083 H 
ATOM     14  H3  MOL d         118.731 131.597  63.780  0.00  0.00     0.084 H 
ATOM     15  H4  MOL d         117.635 133.556  64.722  0.00  0.00     0.084 H 
ATOM     16  H5  MOL d         117.721 135.821  65.707  0.00  0.00     0.083 H 
ATOM     17  H6  MOL d         119.892 136.961  66.037  0.00  0.00     0.086 H 
ATOM     18  H7  MOL d         123.644 134.683  63.895  0.00  0.00     0.166 HD
ENDROOT
BRANCH   9  19
ATOM     19  C11 MOL d         124.540 133.213  64.925  0.00  0.00     0.032 A 
ATOM     20  C12 MOL d         124.435 132.263  66.009  0.00  0.00    -0.057 A 
ATOM     21  C13 MOL d         125.609 131.725  66.618  0.00  0.00    -0.081 A 
ATOM     22  H8  MOL d         123.457 131.958  66.363  0.00  0.00     0.086 H 
ATOM     23  C14 MOL d         126.895 132.129  66.153  0.00  0.00    -0.083 A 
ATOM     24  H9  MOL d         125.523 131.012  67.430  0.00  0.00     0.083 H 
ATOM     25  C15 MOL d         127.003 133.063  65.086  0.00  0.00    -0.081 A 
ATOM     26  H10 MOL d         127.789 131.725  66.612  0.00  0.00     0.083 H 
ATOM     27  C16 MOL d         125.834 133.602  64.478  0.00  0.00    -0.057 A 
ATOM     28  H11 MOL d         127.982 133.366  64.733  0.00  0.00     0.083 H 
ATOM     29  H12 MOL d         125.931 134.315  63.667  0.00  0.00     0.086 H 
ENDBRANCH   9  19
BRANCH  10  30
ATOM     30  S   MOL d         122.568 136.290  65.545  0.00  0.00     0.138 S 
ATOM     31  O1  MOL d         123.412 135.568  66.470  0.00  0.00    -0.591 OA
ATOM     32  O2  MOL d         122.157 137.577  66.077  0.00  0.00    -0.591 OA
ATOM     33  O3  MOL d         123.359 136.534  64.125  0.00  0.00    -0.591 OA
ENDBRANCH  10  30
TORSDOF 2
ENDMDL
MODEL 3
REMARK VINA RESULT:      -6.8      2.765      4.092
REMARK  2 active torsions:
REMARK  status: ('A' for Active; 'I' for Inactive)
REMARK    1  A    between atoms: N_9  and  C11_13 
REMARK    2  A    between atoms: C9_11  and  S_10 
ROOT
ATOM      1  C1  MOL d         122.362 133.125  64.134  0.00  0.00     0.045 A 
ATOM      2  C2  MOL d         122.256 131.822  63.541  0.00  0.00    -0.056 A 
ATOM      3  C3  MOL d         121.010 131.198  63.365  0.00  0.00    -0.080 A 
ATOM      4  C4  MOL d         119.829 131.841  63.761  0.00  0.00    -0.072 A 
ATOM      5  C5  MOL d         119.850 133.131  64.349  0.00  0.00    -0.022 A 
ATOM      6  C6  MOL d         118.632 133.758  64.735  0.00  0.00    -0.072 A 
ATOM      7  C7  MOL d         118.618 135.031  65.319  0.00  0.00    -0.081 A 
ATOM      8  C8  MOL d         119.821 135.717  65.536  0.00  0.00    -0.058 A 
ATOM      9  N   MOL d         123.546 133.672  64.277  0.00  0.00    -0.355 N 
ATOM     10  C9  MOL d         121.067 135.150  65.175  0.00  0.00     0.094 A 
ATOM     11  C10 MOL d         121.133 133.825  64.558  0.00  0.00     0.025 A 
ATOM     12  H1  MOL d         123.156 131.310  63.222  0.00  0.00     0.086 H 
ATOM     13  H2  MOL d         120.961 130.211  62.920  0.00  0.00     0.083 H 
ATOM     14  H3  MOL d         118.879 131.342  63.615  0.00  0.00     0.084 H 
ATOM     15  H4  MOL d         117.694 133.239  64.575  0.00  0.00     0.084 H 
ATOM     16  H5  MOL d         117.677 135.487  65.603  0.00  0.00     0.083 H 
ATOM     17  H6  MOL d         119.797 136.702  65.989  0.00  0.00     0.086 H 
ATOM     18  H7  MOL d         123.668 134.610  63.869  0.00  0.00     0.166 HD
ENDROOT
BRANCH   9  19
ATOM     19  C11 MOL d         124.603 133.156  64.887  0.00  0.00     0.032 A 
ATOM     20  C12 MOL d         125.967 133.445  64.507  0.00  0.00    -0.057 A 
ATOM     21  C13 MOL d         127.058 132.842  65.205  0.00  0.00    -0.081 A 
ATOM     22  H8  MOL d         126.164 134.124  63.686  0.00  0.00     0.086 H 
ATOM     23  C14 MOL d         126.797 131.948  66.285  0.00  0.00    -0.083 A 
ATOM     24  H9  MOL d         128.078 133.064  64.916  0.00  0.00     0.083 H 
ATOM     25  C15 MOL d         125.457 131.661  66.663  0.00  0.00    -0.081 A 
ATOM     26  H10 MOL d         127.621 131.486  66.817  0.00  0.00     0.083 H 
ATOM     27  C16 MOL d         124.369 132.260  65.967  0.00  0.00    -0.057 A 
ATOM     28  H11 MOL d         125.263 130.982  67.486  0.00  0.00     0.083 H 
ATOM     29  H12 MOL d         123.351 132.030  66.264  0.00  0.00     0.086 H 
ENDBRANCH   9  19
BRANCH  10  30
ATOM     30  S   MOL d         122.505 136.143  65.530  0.00  0.00     0.138 S 
ATOM     31  O1  MOL d         123.247 136.367  64.310  0.00  0.00    -0.591 OA
ATOM     32  O2  MOL d         123.291 135.428  66.519  0.00  0.00    -0.591 OA
ATOM     33  O3  MOL d         122.022 137.576  66.172  0.00  0.00    -0.591 OA
ENDBRANCH  10  30
TORSDOF 2
ENDMDL
MODEL 4
REMARK VINA RESULT:      -6.3      2.725      3.983
REMARK  2 active torsions:
REMARK  status: ('A' for Active; 'I' for Inactive)
REMARK    1  A    between atoms: N_9  and  C11_13 
REMARK    2  A    between atoms: C9_11  and  S_10 
ROOT
ATOM      1  C1  MOL d         123.137 134.133  64.428  0.00  0.00     0.045 A 
ATOM      2  C2  MOL d         123.831 133.114  63.694  0.00  0.00    -0.056 A 
ATOM      3  C3  MOL d         123.154 131.997  63.177  0.00  0.00    -0.080 A 
ATOM      4  C4  MOL d         121.772 131.854  63.360  0.00  0.00    -0.072 A 
ATOM      5  C5  MOL d         121.015 132.822  64.068  0.00  0.00    -0.022 A 
ATOM      6  C6  MOL d         119.611 132.648  64.231  0.00  0.00    -0.072 A 
ATOM      7  C7  MOL d         118.835 133.585  64.925  0.00  0.00    -0.081 A 
ATOM      8  C8  MOL d         119.437 134.724  65.479  0.00  0.00    -0.058 A 
ATOM      9  N   MOL d         123.808 135.161  64.892  0.00  0.00    -0.355 N 
ATOM     10  C9  MOL d         120.828 134.955  65.353  0.00  0.00     0.094 A 
ATOM     11  C10 MOL d         121.680 134.008  64.633  0.00  0.00     0.025 A 
ATOM     12  H1  MOL d         124.899 133.207  63.536  0.00  0.00     0.086 H 
ATOM     13  H2  MOL d         123.705 131.239  62.633  0.00  0.00     0.083 H 
ATOM     14  H3  MOL d         121.270 130.985  62.951  0.00  0.00     0.084 H 
ATOM     15  H4  MOL d         119.132 131.772  63.809  0.00  0.00     0.084 H 
ATOM     16  H5  MOL d         117.768 133.430  65.034  0.00  0.00     0.083 H 
ATOM     17  H6  MOL d         118.826 135.441  66.014  0.00  0.00     0.086 H 
ATOM     18  H7  MOL d         123.461 136.093  64.621  0.00  0.00     0.166 HD
ENDROOT
BRANCH   9  19
ATOM     19  C11 MOL d         124.881 135.138  65.668  0.00  0.00     0.032 A 
ATOM     20  C12 MOL d         125.961 136.093  65.570  0.00  0.00    -0.057 A 
ATOM     21  C13 MOL d         127.094 136.000  66.435  0.00  0.00    -0.081 A 
ATOM     22  H8  MOL d         125.912 136.887  64.833  0.00  0.00     0.086 H 
ATOM     23  C14 MOL d         127.158 134.954  67.403  0.00  0.00    -0.083 A 
ATOM     24  H9  MOL d         127.900 136.720  66.357  0.00  0.00     0.083 H 
ATOM     25  C15 MOL d         126.098 134.013  67.504  0.00  0.00    -0.081 A 
ATOM     26  H10 MOL d         128.016 134.877  68.061  0.00  0.00     0.083 H 
ATOM     27  C16 MOL d         124.969 134.104  66.641  0.00  0.00    -0.057 A 
ATOM     28  H11 MOL d         126.149 133.221  68.242  0.00  0.00     0.083 H 
ATOM     29  H12 MOL d         124.168 133.378  66.727  0.00  0.00     0.086 H 
ENDBRANCH   9  19
BRANCH  10  30
ATOM     30  S   MOL d         121.441 136.440  66.125  0.00  0.00     0.138 S 
ATOM     31  O1  MOL d         122.414 136.091  67.136  0.00  0.00    -0.591 OA
ATOM     32  O2  MOL d         120.300 137.138  66.689  0.00  0.00    -0.591 OA
ATOM     33  O3  MOL d         122.132 137.395  64.980  0.00  0.00    -0.591 OA
ENDBRANCH  10  30
TORSDOF 2
ENDMDL
MODEL 5
REMARK VINA RESULT:      -6.0      0.875      1.809
REMARK  2 active torsions:
REMARK  status: ('A' for Active; 'I' for Inactive)
REMARK    1  A    between atoms: N_9  and  C11_13 
REMARK    2  A    between atoms: C9_11  and  S_10 
ROOT
ATOM      1  C1  MOL d         122.270 135.140  65.675  0.00  0.00     0.045 A 
ATOM      2  C2  MOL d         121.824 136.313  66.372  0.00  0.00    -0.056 A 
ATOM      3  C3  MOL d         120.466 136.671  66.406  0.00  0.00    -0.080 A 
ATOM      4  C4  MOL d         119.505 135.881  65.760  0.00  0.00    -0.072 A 
ATOM      5  C5  MOL d         119.865 134.705  65.056  0.00  0.00    -0.022 A 
ATOM      6  C6  MOL d         118.863 133.923  64.415  0.00  0.00    -0.072 A 
ATOM      7  C7  MOL d         119.186 132.756  63.711  0.00  0.00    -0.081 A 
ATOM      8  C8  MOL d         120.520 132.335  63.623  0.00  0.00    -0.058 A 
ATOM      9  N   MOL d         123.548 134.842  65.671  0.00  0.00    -0.355 N 
ATOM     10  C9  MOL d         121.565 133.068  64.237  0.00  0.00     0.094 A 
ATOM     11  C10 MOL d         121.277 134.290  64.988  0.00  0.00     0.025 A 
ATOM     12  H1  MOL d         122.550 136.934  66.884  0.00  0.00     0.086 H 
ATOM     13  H2  MOL d         120.159 137.565  66.935  0.00  0.00     0.083 H 
ATOM     14  H3  MOL d         118.463 136.176  65.801  0.00  0.00     0.084 H 
ATOM     15  H4  MOL d         117.827 134.237  64.474  0.00  0.00     0.084 H 
ATOM     16  H5  MOL d         118.404 132.178  63.233  0.00  0.00     0.083 H 
ATOM     17  H6  MOL d         120.757 131.431  63.074  0.00  0.00     0.086 H 
ATOM     18  H7  MOL d         123.797 133.896  65.996  0.00  0.00     0.166 HD
ENDROOT
BRANCH   9  19
ATOM     19  C11 MOL d         124.555 135.617  65.296  0.00  0.00     0.032 A 
ATOM     20  C12 MOL d         125.917 135.429  65.738  0.00  0.00    -0.057 A 
ATOM     21  C13 MOL d         126.951 136.312  65.300  0.00  0.00    -0.081 A 
ATOM     22  H8  MOL d         126.157 134.611  66.408  0.00  0.00     0.086 H 
ATOM     23  C14 MOL d         126.634 137.389  64.420  0.00  0.00    -0.083 A 
ATOM     24  H9  MOL d         127.971 136.165  65.635  0.00  0.00     0.083 H 
ATOM     25  C15 MOL d         125.295 137.577  63.982  0.00  0.00    -0.081 A 
ATOM     26  H10 MOL d         127.413 138.063  64.086  0.00  0.00     0.083 H 
ATOM     27  C16 MOL d         124.263 136.699  64.419  0.00  0.00    -0.057 A 
ATOM     28  H11 MOL d         125.058 138.395  63.311  0.00  0.00     0.083 H 
ATOM     29  H12 MOL d         123.246 136.855  64.079  0.00  0.00     0.086 H 
ENDBRANCH   9  19
BRANCH  10  30
ATOM     30  S   MOL d         123.207 132.408  64.021  0.00  0.00     0.138 S 
ATOM     31  O1  MOL d         123.140 131.200  63.230  0.00  0.00    -0.591 OA
ATOM     32  O2  MOL d         123.751 132.160  65.344  0.00  0.00    -0.591 OA
ATOM     33  O3  MOL d         124.141 133.530  63.267  0.00  0.00    -0.591 OA
ENDBRANCH  10  30
TORSDOF 2
ENDMDL
MODEL 6
REMARK VINA RESULT:      -5.6      1.591      5.364
REMARK  2 active torsions:
REMARK  status: ('A' for Active; 'I' for Inactive)
REMARK    1  A    between atoms: N_9  and  C11_13 
REMARK    2  A    between atoms: C9_11  and  S_10 
ROOT
ATOM      1  C1  MOL d         123.687 134.999  64.187  0.00  0.00     0.045 A 
ATOM      2  C2  MOL d         123.560 136.415  63.999  0.00  0.00    -0.056 A 
ATOM      3  C3  MOL d         124.637 137.284  64.244  0.00  0.00    -0.080 A 
ATOM      4  C4  MOL d         125.872 136.782  64.675  0.00  0.00    -0.072 A 
ATOM      5  C5  MOL d         126.078 135.395  64.879  0.00  0.00    -0.022 A 
ATOM      6  C6  MOL d         127.347 134.919  65.313  0.00  0.00    -0.072 A 
ATOM      7  C7  MOL d         127.583 133.554  65.523  0.00  0.00    -0.081 A 
ATOM      8  C8  MOL d         126.557 132.623  65.309  0.00  0.00    -0.058 A 
ATOM      9  N   MOL d         122.656 134.223  63.944  0.00  0.00    -0.355 N 
ATOM     10  C9  MOL d         125.272 133.031  64.878  0.00  0.00     0.094 A 
ATOM     11  C10 MOL d         124.978 134.444  64.640  0.00  0.00     0.025 A 
ATOM     12  H1  MOL d         122.615 136.823  63.660  0.00  0.00     0.086 H 
ATOM     13  H2  MOL d         124.511 138.350  64.099  0.00  0.00     0.083 H 
ATOM     14  H3  MOL d         126.689 137.471  64.857  0.00  0.00     0.084 H 
ATOM     15  H4  MOL d         128.150 135.627  65.484  0.00  0.00     0.084 H 
ATOM     16  H5  MOL d         128.559 133.218  65.852  0.00  0.00     0.083 H 
ATOM     17  H6  MOL d         126.752 131.570  65.477  0.00  0.00     0.086 H 
ATOM     18  H7  MOL d         122.813 133.449  63.283  0.00  0.00     0.166 HD
ENDROOT
BRANCH   9  19
ATOM     19  C11 MOL d         121.436 134.322  64.452  0.00  0.00     0.032 A 
ATOM     20  C12 MOL d         121.078 135.252  65.498  0.00  0.00    -0.057 A 
ATOM     21  C13 MOL d         119.743 135.296  66.004  0.00  0.00    -0.081 A 
ATOM     22  H8  MOL d         121.828 135.921  65.903  0.00  0.00     0.086 H 
ATOM     23  C14 MOL d         118.757 134.413  65.472  0.00  0.00    -0.083 A 
ATOM     24  H9  MOL d         119.480 135.996  66.788  0.00  0.00     0.083 H 
ATOM     25  C15 MOL d         119.105 133.497  64.442  0.00  0.00    -0.081 A 
ATOM     26  H10 MOL d         117.743 134.440  65.854  0.00  0.00     0.083 H 
ATOM     27  C16 MOL d         120.435 133.452  63.937  0.00  0.00    -0.057 A 
ATOM     28  H11 MOL d         118.352 132.829  64.038  0.00  0.00     0.083 H 
ATOM     29  H12 MOL d         120.688 132.747  63.153  0.00  0.00     0.086 H 
ENDBRANCH   9  19
BRANCH  10  30
ATOM     30  S   MOL d         124.074 131.727  64.665  0.00  0.00     0.138 S 
ATOM     31  O1  MOL d         122.988 131.915  65.600  0.00  0.00    -0.591 OA
ATOM     32  O2  MOL d         124.763 130.467  64.879  0.00  0.00    -0.591 OA
ATOM     33  O3  MOL d         123.508 131.765  63.123  0.00  0.00    -0.591 OA
ENDBRANCH  10  30
TORSDOF 2
ENDMDL
MODEL 7
REMARK VINA RESULT:      -5.3      2.831      6.304
REMARK  2 active torsions:
REMARK  status: ('A' for Active; 'I' for Inactive)
REMARK    1  A    between atoms: N_9  and  C11_13 
REMARK    2  A    between atoms: C9_11  and  S_10 
ROOT
ATOM      1  C1  MOL d         124.247 132.929  65.314  0.00  0.00     0.045 A 
ATOM      2  C2  MOL d         124.403 131.525  65.562  0.00  0.00    -0.056 A 
ATOM      3  C3  MOL d         125.675 130.931  65.629  0.00  0.00    -0.080 A 
ATOM      4  C4  MOL d         126.831 131.705  65.462  0.00  0.00    -0.072 A 
ATOM      5  C5  MOL d         126.760 133.100  65.220  0.00  0.00    -0.022 A 
ATOM      6  C6  MOL d         127.955 133.857  65.060  0.00  0.00    -0.072 A 
ATOM      7  C7  MOL d         127.919 135.237  64.820  0.00  0.00    -0.081 A 
ATOM      8  C8  MOL d         126.688 135.902  64.730  0.00  0.00    -0.058 A 
ATOM      9  N   MOL d         123.040 133.443  65.262  0.00  0.00    -0.355 N 
ATOM     10  C9  MOL d         125.464 135.208  64.879  0.00  0.00     0.094 A 
ATOM     11  C10 MOL d         125.449 133.767  65.136  0.00  0.00     0.025 A 
ATOM     12  H1  MOL d         123.522 130.909  65.700  0.00  0.00     0.086 H 
ATOM     13  H2  MOL d         125.762 129.867  65.811  0.00  0.00     0.083 H 
ATOM     14  H3  MOL d         127.801 131.227  65.519  0.00  0.00     0.084 H 
ATOM     15  H4  MOL d         128.913 133.356  65.126  0.00  0.00     0.084 H 
ATOM     16  H5  MOL d         128.843 135.790  64.703  0.00  0.00     0.083 H 
ATOM     17  H6  MOL d         126.674 136.970  64.543  0.00  0.00     0.086 H 
ATOM     18  H7  MOL d         122.855 134.239  65.888  0.00  0.00     0.166 HD
ENDROOT
BRANCH   9  19
ATOM     19  C11 MOL d         122.032 133.054  64.495  0.00  0.00     0.032 A 
ATOM     20  C12 MOL d         122.099 131.923  63.598  0.00  0.00    -0.057 A 
ATOM     21  C13 MOL d         120.974 131.568  62.792  0.00  0.00    -0.081 A 
ATOM     22  H8  MOL d         123.009 131.339  63.536  0.00  0.00     0.086 H 
ATOM     23  C14 MOL d         119.777 132.338  62.873  0.00  0.00    -0.083 A 
ATOM     24  H9  MOL d         121.030 130.718  62.123  0.00  0.00     0.083 H 
ATOM     25  C15 MOL d         119.706 133.452  63.754  0.00  0.00    -0.081 A 
ATOM     26  H10 MOL d         118.921 132.076  62.263  0.00  0.00     0.083 H 
ATOM     27  C16 MOL d         120.827 133.807  64.558  0.00  0.00    -0.057 A 
ATOM     28  H11 MOL d         118.793 134.034  63.815  0.00  0.00     0.083 H 
ATOM     29  H12 MOL d         120.761 134.660  65.224  0.00  0.00     0.086 H 
ENDBRANCH   9  19
BRANCH  10  30
ATOM     30  S   MOL d         123.987 136.195  64.724  0.00  0.00     0.138 S 
ATOM     31  O1  MOL d         123.220 135.737  63.588  0.00  0.00    -0.591 OA
ATOM     32  O2  MOL d         124.404 137.577  64.575  0.00  0.00    -0.591 OA
ATOM     33  O3  MOL d         123.101 136.055  66.101  0.00  0.00    -0.591 OA
ENDBRANCH  10  30
TORSDOF 2
ENDMDL
MODEL 8
REMARK VINA RESULT:      -5.0      1.905      5.814
REMARK  2 active torsions:
REMARK  status: ('A' for Active; 'I' for Inactive)
REMARK    1  A    between atoms: N_9  and  C11_13 
REMARK    2  A    between atoms: C9_11  and  S_10 
ROOT
ATOM      1  C1  MOL d         124.212 134.759  64.316  0.00  0.00     0.045 A 
ATOM      2  C2  MOL d         123.598 135.690  63.413  0.00  0.00    -0.056 A 
ATOM      3  C3  MOL d         123.830 137.071  63.518  0.00  0.00    -0.080 A 
ATOM      4  C4  MOL d         124.681 137.577  64.510  0.00  0.00    -0.072 A 
ATOM      5  C5  MOL d         125.330 136.721  65.436  0.00  0.00    -0.022 A 
ATOM      6  C6  MOL d         126.191 137.267  66.428  0.00  0.00    -0.072 A 
ATOM      7  C7  MOL d         126.847 136.449  67.357  0.00  0.00    -0.081 A 
ATOM      8  C8  MOL d         126.660 135.060  67.325  0.00  0.00    -0.058 A 
ATOM      9  N   MOL d         123.969 133.476  64.180  0.00  0.00    -0.355 N 
ATOM     10  C9  MOL d         125.816 134.454  66.364  0.00  0.00     0.094 A 
ATOM     11  C10 MOL d         125.114 135.265  65.369  0.00  0.00     0.025 A 
ATOM     12  H1  MOL d         122.941 135.320  62.634  0.00  0.00     0.086 H 
ATOM     13  H2  MOL d         123.348 137.752  62.826  0.00  0.00     0.083 H 
ATOM     14  H3  MOL d         124.847 138.646  64.572  0.00  0.00     0.084 H 
ATOM     15  H4  MOL d         126.344 138.340  66.466  0.00  0.00     0.084 H 
ATOM     16  H5  MOL d         127.499 136.890  68.102  0.00  0.00     0.083 H 
ATOM     17  H6  MOL d         127.173 134.439  68.050  0.00  0.00     0.086 H 
ATOM     18  H7  MOL d         124.791 132.863  64.088  0.00  0.00     0.166 HD
ENDROOT
BRANCH   9  19
ATOM     19  C11 MOL d         122.787 132.880  64.149  0.00  0.00     0.032 A 
ATOM     20  C12 MOL d         122.608 131.468  63.898  0.00  0.00    -0.057 A 
ATOM     21  C13 MOL d         121.300 130.896  63.870  0.00  0.00    -0.081 A 
ATOM     22  H8  MOL d         123.474 130.838  63.730  0.00  0.00     0.086 H 
ATOM     23  C14 MOL d         120.161 131.725  64.090  0.00  0.00    -0.083 A 
ATOM     24  H9  MOL d         121.173 129.836  63.682  0.00  0.00     0.083 H 
ATOM     25  C15 MOL d         120.331 133.115  64.338  0.00  0.00    -0.081 A 
ATOM     26  H10 MOL d         119.166 131.297  64.067  0.00  0.00     0.083 H 
ATOM     27  C16 MOL d         121.635 133.687  64.366  0.00  0.00    -0.057 A 
ATOM     28  H11 MOL d         119.464 133.742  64.507  0.00  0.00     0.083 H 
ATOM     29  H12 MOL d         121.751 134.749  64.554  0.00  0.00     0.086 H 
ENDBRANCH   9  19
BRANCH  10  30
ATOM     30  S   MOL d         125.674 132.680  66.464  0.00  0.00     0.138 S 
ATOM     31  O1  MOL d         126.087 132.092  65.209  0.00  0.00    -0.591 OA
ATOM     32  O2  MOL d         124.290 132.373  66.776  0.00  0.00    -0.591 OA
ATOM     33  O3  MOL d         126.626 132.133  67.687  0.00  0.00    -0.591 OA
ENDBRANCH  10  30
TORSDOF 2
ENDMDL
MODEL 9
REMARK VINA RESULT:      -4.9      1.815      2.483
REMARK  2 active torsions:
REMARK  status: ('A' for Active; 'I' for Inactive)
REMARK    1  A    between atoms: N_9  and  C11_13 
REMARK    2  A    between atoms: C9_11  and  S_10 
ROOT
ATOM      1  C1  MOL d         123.250 134.798  65.913  0.00  0.00     0.045 A 
ATOM      2  C2  MOL d         122.408 135.954  66.027  0.00  0.00    -0.056 A 
ATOM      3  C3  MOL d         121.138 135.995  65.428  0.00  0.00    -0.080 A 
ATOM      4  C4  MOL d         120.657 134.896  64.704  0.00  0.00    -0.072 A 
ATOM      5  C5  MOL d         121.427 133.715  64.551  0.00  0.00    -0.022 A 
ATOM      6  C6  MOL d         120.905 132.615  63.813  0.00  0.00    -0.072 A 
ATOM      7  C7  MOL d         121.640 131.435  63.643  0.00  0.00    -0.081 A 
ATOM      8  C8  MOL d         122.920 131.318  64.203  0.00  0.00    -0.058 A 
ATOM      9  N   MOL d         124.429 134.802  66.491  0.00  0.00    -0.355 N 
ATOM     10  C9  MOL d         123.497 132.375  64.947  0.00  0.00     0.094 A 
ATOM     11  C10 MOL d         122.766 133.626  65.157  0.00  0.00     0.025 A 
ATOM     12  H1  MOL d         122.759 136.812  66.588  0.00  0.00     0.086 H 
ATOM     13  H2  MOL d         120.526 136.884  65.526  0.00  0.00     0.083 H 
ATOM     14  H3  MOL d         119.674 134.949  64.251  0.00  0.00     0.084 H 
ATOM     15  H4  MOL d         119.917 132.692  63.373  0.00  0.00     0.084 H 
ATOM     16  H5  MOL d         121.219 130.612  63.078  0.00  0.00     0.083 H 
ATOM     17  H6  MOL d         123.479 130.400  64.063  0.00  0.00     0.086 H 
ATOM     18  H7  MOL d         124.624 134.021  67.134  0.00  0.00     0.166 HD
ENDROOT
BRANCH   9  19
ATOM     19  C11 MOL d         125.397 135.693  66.341  0.00  0.00     0.032 A 
ATOM     20  C12 MOL d         125.594 136.465  65.135  0.00  0.00    -0.057 A 
ATOM     21  C13 MOL d         126.668 137.403  65.041  0.00  0.00    -0.081 A 
ATOM     22  H8  MOL d         124.924 136.330  64.295  0.00  0.00     0.086 H 
ATOM     23  C14 MOL d         127.551 137.577  66.147  0.00  0.00    -0.083 A 
ATOM     24  H9  MOL d         126.810 137.979  64.134  0.00  0.00     0.083 H 
ATOM     25  C15 MOL d         127.360 136.822  67.336  0.00  0.00    -0.081 A 
ATOM     26  H10 MOL d         128.368 138.286  66.081  0.00  0.00     0.083 H 
ATOM     27  C16 MOL d         126.291 135.885  67.430  0.00  0.00    -0.057 A 
ATOM     28  H11 MOL d         128.032 136.959  68.175  0.00  0.00     0.083 H 
ATOM     29  H12 MOL d         126.158 135.314  68.342  0.00  0.00     0.086 H 
ENDBRANCH   9  19
BRANCH  10  30
ATOM     30  S   MOL d         125.135 132.075  65.581  0.00  0.00     0.138 S 
ATOM     31  O1  MOL d         125.149 132.304  67.009  0.00  0.00    -0.591 OA
ATOM     32  O2  MOL d         126.041 132.968  64.881  0.00  0.00    -0.591 OA
ATOM     33  O3  MOL d         125.563 130.523  65.251  0.00  0.00    -0.591 OA
ENDBRANCH  10  30
TORSDOF 2
ENDMDL
