MODEL 1
REMARK VINA RESULT:      -6.8      0.000      0.000
REMARK  4 active torsions:
REMARK  status: ('A' for Active; 'I' for Inactive)
REMARK    1  A    between atoms: C1_2  and  C6_3 
REMARK    2  A    between atoms: C6_3  and  C7_4 
REMARK    3  A    between atoms: C7_4  and  C8_5 
REMARK    4  A    between atoms: C8_5  and  C9_6 
ROOT
ATOM      1  N1  BDI d          15.611  17.008  20.183  0.00  0.00    -0.338 N 
ATOM      2  C1  BDI d          16.806  17.347  19.732  0.00  0.00     0.105 A 
ATOM      3  N2  BDI d          17.600  17.566  20.643  0.00  0.00    -0.227 NA
ATOM      4  C2  BDI d          17.011  17.397  21.932  0.00  0.00     0.160 A 
ATOM      5  C4  BDI d          17.518  17.536  23.330  0.00  0.00     0.291 A 
ATOM      6  N5  BDI d          16.586  17.272  24.342  0.00  0.00    -0.262 N 
ATOM      7  N4  BDI d          15.164  16.872  24.068  0.00  0.00    -0.262 N 
ATOM      8  C5  BDI d          14.639  16.727  22.770  0.00  0.00     0.289 A 
ATOM      9  O1  BDI d          13.443  16.390  22.523  0.00  0.00    -0.264 OA
ATOM     10  C3  BDI d          15.662  17.017  21.634  0.00  0.00     0.138 A 
ATOM     11  O3  BDI d          18.684  17.862  23.539  0.00  0.00    -0.264 OA
ATOM     12  H1  BDI d          14.788  16.778  19.607  0.00  0.00     0.167 HD
ATOM     13  H11 BDI d          16.883  17.353  25.294  0.00  0.00     0.190 HD
ATOM     14  H12 BDI d          14.560  16.702  24.847  0.00  0.00     0.190 HD
ENDROOT
BRANCH   2  15
ATOM     15  C6  BDI d          17.121  17.446  18.238  0.00  0.00    -0.010 C 
ATOM     16  H2  BDI d          17.475  16.458  17.909  0.00  0.00     0.044 H 
ATOM     17  H3  BDI d          17.929  18.182  18.118  0.00  0.00     0.044 H 
BRANCH  15  18
ATOM     18  C7  BDI d          15.955  17.868  17.288  0.00  0.00    -0.059 C 
ATOM     19  H4  BDI d          15.230  18.481  17.845  0.00  0.00     0.033 H 
ATOM     20  H5  BDI d          15.453  16.970  16.899  0.00  0.00     0.033 H 
BRANCH  18  21
ATOM     21  C8  BDI d          16.537  18.699  16.097  0.00  0.00    -0.068 C 
ATOM     22  H6  BDI d          17.594  18.920  16.307  0.00  0.00     0.032 H 
ATOM     23  H7  BDI d          15.974  19.641  16.018  0.00  0.00     0.032 H 
BRANCH  21  24
ATOM     24  C9  BDI d          16.448  17.956  14.741  0.00  0.00    -0.077 C 
ATOM     25  H8  BDI d          16.489  16.870  14.915  0.00  0.00     0.027 H 
ATOM     26  H9  BDI d          17.290  18.257  14.102  0.00  0.00     0.027 H 
ATOM     27  H10 BDI d          15.500  18.211  14.244  0.00  0.00     0.027 H 
ENDBRANCH  21  24
ENDBRANCH  18  21
ENDBRANCH  15  18
ENDBRANCH   2  15
TORSDOF 4
ENDMDL
MODEL 2
REMARK VINA RESULT:      -6.6      0.852      2.691
REMARK  4 active torsions:
REMARK  status: ('A' for Active; 'I' for Inactive)
REMARK    1  A    between atoms: C1_2  and  C6_3 
REMARK    2  A    between atoms: C6_3  and  C7_4 
REMARK    3  A    between atoms: C7_4  and  C8_5 
REMARK    4  A    between atoms: C8_5  and  C9_6 
ROOT
ATOM      1  N1  BDI d          16.804  17.388  20.289  0.00  0.00    -0.338 N 
ATOM      2  C1  BDI d          15.678  17.133  19.646  0.00  0.00     0.105 A 
ATOM      3  N2  BDI d          14.756  16.869  20.414  0.00  0.00    -0.227 NA
ATOM      4  C2  BDI d          15.158  16.909  21.782  0.00  0.00     0.160 A 
ATOM      5  C4  BDI d          14.452  16.675  23.078  0.00  0.00     0.291 A 
ATOM      6  N5  BDI d          15.235  16.819  24.230  0.00  0.00    -0.262 N 
ATOM      7  N4  BDI d          16.691  17.186  24.194  0.00  0.00    -0.262 N 
ATOM      8  C5  BDI d          17.401  17.419  23.001  0.00  0.00     0.289 A 
ATOM      9  O1  BDI d          18.628  17.729  22.955  0.00  0.00    -0.264 OA
ATOM     10  C3  BDI d          16.545  17.261  21.711  0.00  0.00     0.138 A 
ATOM     11  O3  BDI d          13.260  16.376  23.090  0.00  0.00    -0.264 OA
ATOM     12  H1  BDI d          17.706  17.633  19.856  0.00  0.00     0.167 HD
ATOM     13  H11 BDI d          14.803  16.671  25.120  0.00  0.00     0.190 HD
ATOM     14  H12 BDI d          17.181  17.269  25.062  0.00  0.00     0.190 HD
ENDROOT
BRANCH   2  15
ATOM     15  C6  BDI d          15.578  17.169  18.119  0.00  0.00    -0.010 C 
ATOM     16  H2  BDI d          14.583  17.561  17.862  0.00  0.00     0.044 H 
ATOM     17  H3  BDI d          15.669  16.136  17.757  0.00  0.00     0.044 H 
BRANCH  15  18
ATOM     18  C7  BDI d          16.634  18.031  17.355  0.00  0.00    -0.059 C 
ATOM     19  H4  BDI d          17.516  17.415  17.127  0.00  0.00     0.033 H 
ATOM     20  H5  BDI d          16.935  18.885  17.979  0.00  0.00     0.033 H 
BRANCH  18  21
ATOM     21  C8  BDI d          16.004  18.554  16.022  0.00  0.00    -0.068 C 
ATOM     22  H6  BDI d          16.423  17.976  15.185  0.00  0.00     0.032 H 
ATOM     23  H7  BDI d          16.267  19.616  15.903  0.00  0.00     0.032 H 
BRANCH  21  24
ATOM     24  C9  BDI d          14.461  18.422  15.990  0.00  0.00    -0.077 C 
ATOM     25  H8  BDI d          14.056  18.614  16.995  0.00  0.00     0.027 H 
ATOM     26  H9  BDI d          14.187  17.405  15.673  0.00  0.00     0.027 H 
ATOM     27  H10 BDI d          14.045  19.152  15.281  0.00  0.00     0.027 H 
ENDBRANCH  21  24
ENDBRANCH  18  21
ENDBRANCH  15  18
ENDBRANCH   2  15
TORSDOF 4
ENDMDL
MODEL 3
REMARK VINA RESULT:      -6.4      1.349      1.580
REMARK  4 active torsions:
REMARK  status: ('A' for Active; 'I' for Inactive)
REMARK    1  A    between atoms: C1_2  and  C6_3 
REMARK    2  A    between atoms: C6_3  and  C7_4 
REMARK    3  A    between atoms: C7_4  and  C8_5 
REMARK    4  A    between atoms: C8_5  and  C9_6 
ROOT
ATOM      1  N1  BDI d          14.414  16.620  20.776  0.00  0.00    -0.338 N 
ATOM      2  C1  BDI d          15.115  16.711  19.659  0.00  0.00     0.105 A 
ATOM      3  N2  BDI d          16.294  16.981  19.872  0.00  0.00    -0.227 NA
ATOM      4  C2  BDI d          16.577  17.124  21.263  0.00  0.00     0.160 A 
ATOM      5  C4  BDI d          17.812  17.442  22.042  0.00  0.00     0.291 A 
ATOM      6  N5  BDI d          17.655  17.490  23.433  0.00  0.00    -0.262 N 
ATOM      7  N4  BDI d          16.344  17.241  24.123  0.00  0.00    -0.262 N 
ATOM      8  C5  BDI d          15.154  16.938  23.435  0.00  0.00     0.289 A 
ATOM      9  O1  BDI d          14.042  16.726  24.002  0.00  0.00    -0.264 OA
ATOM     10  C3  BDI d          15.311  16.881  21.887  0.00  0.00     0.138 A 
ATOM     11  O3  BDI d          18.877  17.641  21.464  0.00  0.00    -0.264 OA
ATOM     12  H1  BDI d          13.410  16.403  20.846  0.00  0.00     0.167 HD
ATOM     13  H11 BDI d          18.456  17.699  23.995  0.00  0.00     0.190 HD
ATOM     14  H12 BDI d          16.315  17.294  25.121  0.00  0.00     0.190 HD
ENDROOT
BRANCH   2  15
ATOM     15  C6  BDI d          14.489  16.498  18.279  0.00  0.00    -0.010 C 
ATOM     16  H2  BDI d          13.463  16.134  18.434  0.00  0.00     0.044 H 
ATOM     17  H3  BDI d          15.078  15.725  17.764  0.00  0.00     0.044 H 
BRANCH  15  18
ATOM     18  C7  BDI d          14.411  17.738  17.331  0.00  0.00    -0.059 C 
ATOM     19  H4  BDI d          14.623  18.652  17.903  0.00  0.00     0.033 H 
ATOM     20  H5  BDI d          13.403  17.804  16.894  0.00  0.00     0.033 H 
BRANCH  18  21
ATOM     21  C8  BDI d          15.466  17.578  16.188  0.00  0.00    -0.068 C 
ATOM     22  H6  BDI d          14.972  17.775  15.224  0.00  0.00     0.032 H 
ATOM     23  H7  BDI d          15.845  16.546  16.202  0.00  0.00     0.032 H 
BRANCH  21  24
ATOM     24  C9  BDI d          16.666  18.547  16.334  0.00  0.00    -0.077 C 
ATOM     25  H8  BDI d          16.708  18.924  17.366  0.00  0.00     0.027 H 
ATOM     26  H9  BDI d          16.542  19.392  15.640  0.00  0.00     0.027 H 
ATOM     27  H10 BDI d          17.599  18.014  16.099  0.00  0.00     0.027 H 
ENDBRANCH  21  24
ENDBRANCH  18  21
ENDBRANCH  15  18
ENDBRANCH   2  15
TORSDOF 4
ENDMDL
MODEL 4
REMARK VINA RESULT:      -5.4      2.914      5.923
REMARK  4 active torsions:
REMARK  status: ('A' for Active; 'I' for Inactive)
REMARK    1  A    between atoms: C1_2  and  C6_3 
REMARK    2  A    between atoms: C6_3  and  C7_4 
REMARK    3  A    between atoms: C7_4  and  C8_5 
REMARK    4  A    between atoms: C8_5  and  C9_6 
ROOT
ATOM      1  N1  BDI d          17.393  17.837  18.569  0.00  0.00    -0.338 N 
ATOM      2  C1  BDI d          17.201  17.528  19.840  0.00  0.00     0.105 A 
ATOM      3  N2  BDI d          16.098  17.023  20.032  0.00  0.00    -0.227 NA
ATOM      4  C2  BDI d          15.332  16.913  18.834  0.00  0.00     0.160 A 
ATOM      5  C4  BDI d          13.969  16.391  18.518  0.00  0.00     0.291 A 
ATOM      6  N5  BDI d          13.585  16.470  17.173  0.00  0.00    -0.262 N 
ATOM      7  N4  BDI d          14.467  17.038  16.098  0.00  0.00    -0.262 N 
ATOM      8  C5  BDI d          15.759  17.541  16.343  0.00  0.00     0.289 A 
ATOM      9  O1  BDI d          16.513  18.023  15.447  0.00  0.00    -0.264 OA
ATOM     10  C3  BDI d          16.200  17.461  17.833  0.00  0.00     0.138 A 
ATOM     11  O3  BDI d          13.260  15.928  19.408  0.00  0.00    -0.264 OA
ATOM     12  H1  BDI d          18.240  18.268  18.171  0.00  0.00     0.167 HD
ATOM     13  H11 BDI d          12.679  16.132  16.917  0.00  0.00     0.190 HD
ATOM     14  H12 BDI d          14.119  17.060  15.161  0.00  0.00     0.190 HD
ENDROOT
BRANCH   2  15
ATOM     15  C6  BDI d          18.257  17.790  20.917  0.00  0.00    -0.010 C 
ATOM     16  H2  BDI d          18.187  18.851  21.198  0.00  0.00     0.044 H 
ATOM     17  H3  BDI d          19.241  17.594  20.468  0.00  0.00     0.044 H 
BRANCH  15  18
ATOM     18  C7  BDI d          18.162  16.948  22.230  0.00  0.00    -0.059 C 
ATOM     19  H4  BDI d          19.152  16.535  22.475  0.00  0.00     0.033 H 
ATOM     20  H5  BDI d          17.447  16.124  22.088  0.00  0.00     0.033 H 
BRANCH  18  21
ATOM     21  C8  BDI d          17.675  17.868  23.397  0.00  0.00    -0.068 C 
ATOM     22  H6  BDI d          18.046  18.888  23.217  0.00  0.00     0.032 H 
ATOM     23  H7  BDI d          18.092  17.488  24.341  0.00  0.00     0.032 H 
BRANCH  21  24
ATOM     24  C9  BDI d          16.133  17.919  23.523  0.00  0.00    -0.077 C 
ATOM     25  H8  BDI d          15.785  18.948  23.354  0.00  0.00     0.027 H 
ATOM     26  H9  BDI d          15.836  17.592  24.531  0.00  0.00     0.027 H 
ATOM     27  H10 BDI d          15.681  17.252  22.774  0.00  0.00     0.027 H 
ENDBRANCH  21  24
ENDBRANCH  18  21
ENDBRANCH  15  18
ENDBRANCH   2  15
TORSDOF 4
ENDMDL
MODEL 5
REMARK VINA RESULT:      -5.4      2.904      5.615
REMARK  4 active torsions:
REMARK  status: ('A' for Active; 'I' for Inactive)
REMARK    1  A    between atoms: C1_2  and  C6_3 
REMARK    2  A    between atoms: C6_3  and  C7_4 
REMARK    3  A    between atoms: C7_4  and  C8_5 
REMARK    4  A    between atoms: C8_5  and  C9_6 
ROOT
ATOM      1  N1  BDI d          16.116  16.848  20.077  0.00  0.00    -0.338 N 
ATOM      2  C1  BDI d          17.239  17.513  19.872  0.00  0.00     0.105 A 
ATOM      3  N2  BDI d          17.332  17.922  18.718  0.00  0.00    -0.227 NA
ATOM      4  C2  BDI d          16.204  17.563  17.921  0.00  0.00     0.160 A 
ATOM      5  C4  BDI d          15.824  17.799  16.496  0.00  0.00     0.291 A 
ATOM      6  N5  BDI d          14.594  17.260  16.098  0.00  0.00    -0.262 N 
ATOM      7  N4  BDI d          13.695  16.490  17.024  0.00  0.00    -0.262 N 
ATOM      8  C5  BDI d          14.007  16.242  18.375  0.00  0.00     0.289 A 
ATOM      9  O1  BDI d          13.260  15.595  19.167  0.00  0.00    -0.264 OA
ATOM     10  C3  BDI d          15.371  16.834  18.832  0.00  0.00     0.138 A 
ATOM     11  O3  BDI d          16.569  18.431  15.751  0.00  0.00    -0.264 OA
ATOM     12  H1  BDI d          15.821  16.415  20.964  0.00  0.00     0.167 HD
ATOM     13  H11 BDI d          14.299  17.393  15.152  0.00  0.00     0.190 HD
ATOM     14  H12 BDI d          12.832  16.136  16.664  0.00  0.00     0.190 HD
ENDROOT
BRANCH   2  15
ATOM     15  C6  BDI d          18.280  17.725  20.974  0.00  0.00    -0.010 C 
ATOM     16  H2  BDI d          18.277  18.795  21.230  0.00  0.00     0.044 H 
ATOM     17  H3  BDI d          19.261  17.450  20.560  0.00  0.00     0.044 H 
BRANCH  15  18
ATOM     18  C7  BDI d          18.088  16.924  22.302  0.00  0.00    -0.059 C 
ATOM     19  H4  BDI d          19.054  16.504  22.621  0.00  0.00     0.033 H 
ATOM     20  H5  BDI d          17.370  16.107  22.139  0.00  0.00     0.033 H 
BRANCH  18  21
ATOM     21  C8  BDI d          17.544  17.885  23.409  0.00  0.00    -0.068 C 
ATOM     22  H6  BDI d          17.815  18.917  23.142  0.00  0.00     0.032 H 
ATOM     23  H7  BDI d          18.014  17.618  24.367  0.00  0.00     0.032 H 
BRANCH  21  24
ATOM     24  C9  BDI d          16.006  17.806  23.575  0.00  0.00    -0.077 C 
ATOM     25  H8  BDI d          15.761  17.618  24.631  0.00  0.00     0.027 H 
ATOM     26  H9  BDI d          15.612  16.987  22.956  0.00  0.00     0.027 H 
ATOM     27  H10 BDI d          15.554  18.757  23.257  0.00  0.00     0.027 H 
ENDBRANCH  21  24
ENDBRANCH  18  21
ENDBRANCH  15  18
ENDBRANCH   2  15
TORSDOF 4
ENDMDL
MODEL 6
REMARK VINA RESULT:      -5.4      3.859      6.634
REMARK  4 active torsions:
REMARK  status: ('A' for Active; 'I' for Inactive)
REMARK    1  A    between atoms: C1_2  and  C6_3 
REMARK    2  A    between atoms: C6_3  and  C7_4 
REMARK    3  A    between atoms: C7_4  and  C8_5 
REMARK    4  A    between atoms: C8_5  and  C9_6 
ROOT
ATOM      1  N1  BDI d          14.387  16.296  17.925  0.00  0.00    -0.338 N 
ATOM      2  C1  BDI d          15.121  16.971  18.793  0.00  0.00     0.105 A 
ATOM      3  N2  BDI d          15.830  17.812  18.245  0.00  0.00    -0.227 NA
ATOM      4  C2  BDI d          15.665  17.823  16.827  0.00  0.00     0.160 A 
ATOM      5  C4  BDI d          16.269  18.622  15.719  0.00  0.00     0.291 A 
ATOM      6  N5  BDI d          15.821  18.308  14.430  0.00  0.00    -0.262 N 
ATOM      7  N4  BDI d          14.799  17.242  14.151  0.00  0.00    -0.262 N 
ATOM      8  C5  BDI d          14.200  16.463  15.159  0.00  0.00     0.289 A 
ATOM      9  O1  BDI d          13.338  15.562  14.940  0.00  0.00    -0.264 OA
ATOM     10  C3  BDI d          14.688  16.800  16.598  0.00  0.00     0.138 A 
ATOM     11  O3  BDI d          17.103  19.491  15.963  0.00  0.00    -0.264 OA
ATOM     12  H1  BDI d          13.719  15.545  18.151  0.00  0.00     0.167 HD
ATOM     13  H11 BDI d          16.200  18.818  13.658  0.00  0.00     0.190 HD
ATOM     14  H12 BDI d          14.532  17.077  13.202  0.00  0.00     0.190 HD
ENDROOT
BRANCH   2  15
ATOM     15  C6  BDI d          15.066  16.704  20.299  0.00  0.00    -0.010 C 
ATOM     16  H2  BDI d          14.847  15.635  20.436  0.00  0.00     0.044 H 
ATOM     17  H3  BDI d          14.241  17.302  20.711  0.00  0.00     0.044 H 
BRANCH  15  18
ATOM     18  C7  BDI d          16.347  17.033  21.130  0.00  0.00    -0.059 C 
ATOM     19  H4  BDI d          16.812  17.951  20.742  0.00  0.00     0.033 H 
ATOM     20  H5  BDI d          17.061  16.199  21.053  0.00  0.00     0.033 H 
BRANCH  18  21
ATOM     21  C8  BDI d          15.949  17.241  22.628  0.00  0.00    -0.068 C 
ATOM     22  H6  BDI d          15.474  16.319  22.997  0.00  0.00     0.032 H 
ATOM     23  H7  BDI d          15.230  18.072  22.688  0.00  0.00     0.032 H 
BRANCH  21  24
ATOM     24  C9  BDI d          17.160  17.570  23.536  0.00  0.00    -0.077 C 
ATOM     25  H8  BDI d          16.857  17.496  24.591  0.00  0.00     0.027 H 
ATOM     26  H9  BDI d          17.509  18.591  23.326  0.00  0.00     0.027 H 
ATOM     27  H10 BDI d          17.972  16.855  23.336  0.00  0.00     0.027 H 
ENDBRANCH  21  24
ENDBRANCH  18  21
ENDBRANCH  15  18
ENDBRANCH   2  15
TORSDOF 4
ENDMDL
MODEL 7
REMARK VINA RESULT:      -5.3      3.783      6.931
REMARK  4 active torsions:
REMARK  status: ('A' for Active; 'I' for Inactive)
REMARK    1  A    between atoms: C1_2  and  C6_3 
REMARK    2  A    between atoms: C6_3  and  C7_4 
REMARK    3  A    between atoms: C7_4  and  C8_5 
REMARK    4  A    between atoms: C8_5  and  C9_6 
ROOT
ATOM      1  N1  BDI d          16.192  17.825  18.302  0.00  0.00    -0.338 N 
ATOM      2  C1  BDI d          15.479  16.902  18.925  0.00  0.00     0.105 A 
ATOM      3  N2  BDI d          14.712  16.317  18.164  0.00  0.00    -0.227 NA
ATOM      4  C2  BDI d          14.802  16.799  16.824  0.00  0.00     0.160 A 
ATOM      5  C4  BDI d          14.112  16.447  15.546  0.00  0.00     0.291 A 
ATOM      6  N5  BDI d          14.504  17.184  14.422  0.00  0.00    -0.262 N 
ATOM      7  N4  BDI d          15.548  18.263  14.468  0.00  0.00    -0.262 N 
ATOM      8  C5  BDI d          16.228  18.631  15.645  0.00  0.00     0.289 A 
ATOM      9  O1  BDI d          17.111  19.538  15.699  0.00  0.00    -0.264 OA
ATOM     10  C3  BDI d          15.803  17.821  16.904  0.00  0.00     0.138 A 
ATOM     11  O3  BDI d          13.260  15.562  15.524  0.00  0.00    -0.264 OA
ATOM     12  H1  BDI d          16.898  18.439  18.734  0.00  0.00     0.167 HD
ATOM     13  H11 BDI d          14.067  16.982  13.545  0.00  0.00     0.190 HD
ATOM     14  H12 BDI d          15.772  18.744  13.620  0.00  0.00     0.190 HD
ENDROOT
BRANCH   2  15
ATOM     15  C6  BDI d          15.623  16.626  20.423  0.00  0.00    -0.010 C 
ATOM     16  H2  BDI d          15.619  15.535  20.561  0.00  0.00     0.044 H 
ATOM     17  H3  BDI d          14.747  17.062  20.925  0.00  0.00     0.044 H 
BRANCH  15  18
ATOM     18  C7  BDI d          16.898  17.185  21.133  0.00  0.00    -0.059 C 
ATOM     19  H4  BDI d          17.154  18.168  20.710  0.00  0.00     0.033 H 
ATOM     20  H5  BDI d          17.738  16.491  20.982  0.00  0.00     0.033 H 
BRANCH  18  21
ATOM     21  C8  BDI d          16.611  17.332  22.664  0.00  0.00    -0.068 C 
ATOM     22  H6  BDI d          16.294  16.355  23.057  0.00  0.00     0.032 H 
ATOM     23  H7  BDI d          15.800  18.063  22.800  0.00  0.00     0.032 H 
BRANCH  21  24
ATOM     24  C9  BDI d          17.846  17.810  23.467  0.00  0.00    -0.077 C 
ATOM     25  H8  BDI d          18.461  16.941  23.745  0.00  0.00     0.027 H 
ATOM     26  H9  BDI d          17.513  18.330  24.377  0.00  0.00     0.027 H 
ATOM     27  H10 BDI d          18.442  18.498  22.849  0.00  0.00     0.027 H 
ENDBRANCH  21  24
ENDBRANCH  18  21
ENDBRANCH  15  18
ENDBRANCH   2  15
TORSDOF 4
ENDMDL
MODEL 8
REMARK VINA RESULT:      -5.2      2.055      3.294
REMARK  4 active torsions:
REMARK  status: ('A' for Active; 'I' for Inactive)
REMARK    1  A    between atoms: C1_2  and  C6_3 
REMARK    2  A    between atoms: C6_3  and  C7_4 
REMARK    3  A    between atoms: C7_4  and  C8_5 
REMARK    4  A    between atoms: C8_5  and  C9_6 
ROOT
ATOM      1  N1  BDI d          16.066  16.922  18.726  0.00  0.00    -0.338 N 
ATOM      2  C1  BDI d          14.774  16.640  18.715  0.00  0.00     0.105 A 
ATOM      3  N2  BDI d          14.296  16.611  19.846  0.00  0.00    -0.227 NA
ATOM      4  C2  BDI d          15.267  16.887  20.855  0.00  0.00     0.160 A 
ATOM      5  C4  BDI d          15.218  16.972  22.345  0.00  0.00     0.291 A 
ATOM      6  N5  BDI d          16.431  17.275  22.976  0.00  0.00    -0.262 N 
ATOM      7  N4  BDI d          17.713  17.505  22.227  0.00  0.00    -0.262 N 
ATOM      8  C5  BDI d          17.811  17.437  20.824  0.00  0.00     0.289 A 
ATOM      9  O1  BDI d          18.884  17.629  20.179  0.00  0.00    -0.264 OA
ATOM     10  C3  BDI d          16.471  17.101  20.108  0.00  0.00     0.138 A 
ATOM     11  O3  BDI d          14.161  16.783  22.944  0.00  0.00    -0.264 OA
ATOM     12  H1  BDI d          16.676  17.001  17.901  0.00  0.00     0.167 HD
ATOM     13  H11 BDI d          16.444  17.342  23.974  0.00  0.00     0.190 HD
ATOM     14  H12 BDI d          18.538  17.717  22.751  0.00  0.00     0.190 HD
ENDROOT
BRANCH   2  15
ATOM     15  C6  BDI d          14.002  16.383  17.419  0.00  0.00    -0.010 C 
ATOM     16  H2  BDI d          13.025  16.878  17.512  0.00  0.00     0.044 H 
ATOM     17  H3  BDI d          13.856  15.297  17.331  0.00  0.00     0.044 H 
BRANCH  15  18
ATOM     18  C7  BDI d          14.655  16.878  16.088  0.00  0.00    -0.059 C 
ATOM     19  H4  BDI d          15.448  16.178  15.784  0.00  0.00     0.033 H 
ATOM     20  H5  BDI d          15.088  17.878  16.240  0.00  0.00     0.033 H 
BRANCH  18  21
ATOM     21  C8  BDI d          13.561  16.946  14.972  0.00  0.00    -0.068 C 
ATOM     22  H6  BDI d          13.780  17.804  14.318  0.00  0.00     0.032 H 
ATOM     23  H7  BDI d          12.581  17.090  15.450  0.00  0.00     0.032 H 
BRANCH  21  24
ATOM     24  C9  BDI d          13.504  15.665  14.104  0.00  0.00    -0.077 C 
ATOM     25  H8  BDI d          12.722  15.777  13.338  0.00  0.00     0.027 H 
ATOM     26  H9  BDI d          13.271  14.800  14.741  0.00  0.00     0.027 H 
ATOM     27  H10 BDI d          14.477  15.510  13.614  0.00  0.00     0.027 H 
ENDBRANCH  21  24
ENDBRANCH  18  21
ENDBRANCH  15  18
ENDBRANCH   2  15
TORSDOF 4
ENDMDL
