MODEL 1
REMARK VINA RESULT:      -7.6      0.000      0.000
REMARK  11 active torsions:
REMARK  status: ('A' for Active; 'I' for Inactive)
REMARK    1  A    between atoms: C2_1  and  C1_2 
REMARK    2  A    between atoms: C1_2  and  C3_3 
REMARK    3  A    between atoms: C3_3  and  C4_4 
REMARK       I    between atoms: C4_4  and  N1_6 
REMARK    4  A    between atoms: N1_6  and  C5_7 
REMARK    5  A    between atoms: C6_8  and  O2_9 
REMARK    6  A    between atoms: C7_10  and  O3_11 
REMARK    7  A    between atoms: C8_12  and  C9_13 
REMARK    8  A    between atoms: C9_13  and  O4_14 
REMARK    9  A    between atoms: N2_17  and  O6_18 
REMARK   10  A    between atoms: O6_18  and  C11_19 
REMARK       I    between atoms: C11_19  and  N3_21 
REMARK   11  A    between atoms: N3_21  and  C12_22 
ROOT
ATOM      1  C5  NP6 d          -8.121 -12.212   8.036  0.00  0.00     0.105 C 
ATOM      2  C6  NP6 d          -8.958 -11.832   9.271  0.00  0.00     0.089 C 
ATOM      3  C7  NP6 d          -8.137 -11.006  10.249  0.00  0.00     0.090 C 
ATOM      4  C8  NP6 d          -7.739  -9.707   9.552  0.00  0.00     0.094 C 
ATOM      5  O5  NP6 d          -6.929  -9.978   8.417  0.00  0.00    -0.324 OA
ATOM      6  C10 NP6 d          -6.958 -11.218   7.829  0.00  0.00     0.194 C 
ATOM      7  N2  NP6 d          -5.909 -11.551   7.078  0.00  0.00    -0.100 NA
ATOM      8  H9  NP6 d          -7.673 -13.197   8.234  0.00  0.00     0.090 H 
ATOM      9  H10 NP6 d          -9.822 -11.235   8.944  0.00  0.00     0.090 H 
ATOM     10  H12 NP6 d          -7.244 -11.567  10.558  0.00  0.00     0.091 H 
ATOM     11  H14 NP6 d          -8.670  -9.228   9.216  0.00  0.00     0.091 H 
ENDROOT
BRANCH   1  12
ATOM     12  N1  NP6 d          -8.979 -12.360   6.822  0.00  0.00    -0.346 N 
ATOM     13  C4  NP6 d          -9.833 -13.365   6.581  0.00  0.00     0.218 C 
ATOM     14  O1  NP6 d         -10.027 -14.318   7.342  0.00  0.00    -0.274 OA
ATOM     15  H8  NP6 d          -8.910 -11.645   6.126  0.00  0.00     0.163 HD
BRANCH  13  16
ATOM     16  C3  NP6 d         -10.578 -13.270   5.231  0.00  0.00     0.009 C 
ATOM     17  H6  NP6 d         -10.006 -13.798   4.454  0.00  0.00     0.047 H 
ATOM     18  H7  NP6 d         -11.574 -13.726   5.326  0.00  0.00     0.047 H 
BRANCH  16  19
ATOM     19  C1  NP6 d         -10.723 -11.805   4.849  0.00  0.00    -0.061 C 
ATOM     20  H4  NP6 d         -11.063 -11.243   5.731  0.00  0.00     0.033 H 
ATOM     21  H5  NP6 d          -9.742 -11.426   4.528  0.00  0.00     0.033 H 
BRANCH  19  22
ATOM     22  C2  NP6 d         -11.723 -11.592   3.719  0.00  0.00    -0.076 C 
ATOM     23  H1  NP6 d         -11.567 -12.355   2.942  0.00  0.00     0.027 H 
ATOM     24  H2  NP6 d         -11.578 -10.591   3.285  0.00  0.00     0.027 H 
ATOM     25  H3  NP6 d         -12.746 -11.675   4.114  0.00  0.00     0.027 H 
ENDBRANCH  19  22
ENDBRANCH  16  19
ENDBRANCH  13  16
ENDBRANCH   1  12
BRANCH   7  26
ATOM     26  O6  NP6 d          -4.866 -10.663   6.953  0.00  0.00    -0.153 OA
BRANCH  26  27
ATOM     27  C11 NP6 d          -3.806 -10.917   7.806  0.00  0.00     0.389 C 
ATOM     28  O7  NP6 d          -2.801 -11.499   7.378  0.00  0.00    -0.236 OA
ATOM     29  N3  NP6 d          -3.923 -10.489   9.086  0.00  0.00    -0.301 N 
ATOM     30  H18 NP6 d          -4.746  -9.955   9.281  0.00  0.00     0.171 HD
BRANCH  29  31
ATOM     31  C12 NP6 d          -3.094 -10.673  10.144  0.00  0.00     0.036 A 
ATOM     32  C13 NP6 d          -3.371 -11.731  11.018  0.00  0.00    -0.057 A 
ATOM     33  C14 NP6 d          -2.553 -12.002  12.120  0.00  0.00    -0.081 A 
ATOM     34  H19 NP6 d          -4.240 -12.353  10.837  0.00  0.00     0.086 H 
ATOM     35  C15 NP6 d          -1.423 -11.212  12.358  0.00  0.00    -0.083 A 
ATOM     36  H20 NP6 d          -2.793 -12.822  12.786  0.00  0.00     0.083 H 
ATOM     37  C16 NP6 d          -1.121 -10.167  11.482  0.00  0.00    -0.081 A 
ATOM     38  H21 NP6 d          -0.789 -11.408  13.216  0.00  0.00     0.083 H 
ATOM     39  C17 NP6 d          -1.948  -9.901  10.383  0.00  0.00    -0.057 A 
ATOM     40  H22 NP6 d          -0.240  -9.559  11.653  0.00  0.00     0.083 H 
ATOM     41  H23 NP6 d          -1.700  -9.088   9.710  0.00  0.00     0.086 H 
ENDBRANCH  29  31
ENDBRANCH  26  27
ENDBRANCH   7  26
BRANCH   2  42
ATOM     42  O2  NP6 d          -9.423 -13.010   9.907  0.00  0.00    -0.390 OA
ATOM     43  H11 NP6 d         -10.312 -12.873  10.214  0.00  0.00     0.210 HD
ENDBRANCH   2  42
BRANCH   4  44
ATOM     44  C9  NP6 d          -6.964  -8.674  10.407  0.00  0.00     0.044 C 
ATOM     45  H15 NP6 d          -7.678  -8.109  11.025  0.00  0.00     0.078 H 
ATOM     46  H16 NP6 d          -6.430  -7.982   9.740  0.00  0.00     0.078 H 
BRANCH  44  47
ATOM     47  O4  NP6 d          -6.024  -9.321  11.256  0.00  0.00    -0.398 OA
ATOM     48  H17 NP6 d          -6.000  -8.877  12.096  0.00  0.00     0.209 HD
ENDBRANCH  44  47
ENDBRANCH   4  44
BRANCH   3  49
ATOM     49  O3  NP6 d          -8.923 -10.663  11.399  0.00  0.00    -0.390 OA
ATOM     50  H13 NP6 d          -8.657 -11.201  12.135  0.00  0.00     0.210 HD
ENDBRANCH   3  49
TORSDOF 11
ENDMDL
MODEL 2
REMARK VINA RESULT:      -6.9      1.857      7.391
REMARK  11 active torsions:
REMARK  status: ('A' for Active; 'I' for Inactive)
REMARK    1  A    between atoms: C2_1  and  C1_2 
REMARK    2  A    between atoms: C1_2  and  C3_3 
REMARK    3  A    between atoms: C3_3  and  C4_4 
REMARK       I    between atoms: C4_4  and  N1_6 
REMARK    4  A    between atoms: N1_6  and  C5_7 
REMARK    5  A    between atoms: C6_8  and  O2_9 
REMARK    6  A    between atoms: C7_10  and  O3_11 
REMARK    7  A    between atoms: C8_12  and  C9_13 
REMARK    8  A    between atoms: C9_13  and  O4_14 
REMARK    9  A    between atoms: N2_17  and  O6_18 
REMARK   10  A    between atoms: O6_18  and  C11_19 
REMARK       I    between atoms: C11_19  and  N3_21 
REMARK   11  A    between atoms: N3_21  and  C12_22 
ROOT
ATOM      1  C5  NP6 d          -4.904 -10.088   9.840  0.00  0.00     0.105 C 
ATOM      2  C6  NP6 d          -5.800  -8.988  10.437  0.00  0.00     0.089 C 
ATOM      3  C7  NP6 d          -7.268  -9.276  10.165  0.00  0.00     0.090 C 
ATOM      4  C8  NP6 d          -7.629 -10.585  10.864  0.00  0.00     0.094 C 
ATOM      5  O5  NP6 d          -6.865 -11.660  10.337  0.00  0.00    -0.324 OA
ATOM      6  C10 NP6 d          -5.686 -11.410   9.678  0.00  0.00     0.194 C 
ATOM      7  N2  NP6 d          -5.246 -12.360   8.855  0.00  0.00    -0.100 NA
ATOM      8  H9  NP6 d          -4.610  -9.761   8.832  0.00  0.00     0.090 H 
ATOM      9  H10 NP6 d          -5.642  -8.954  11.525  0.00  0.00     0.090 H 
ATOM     10  H12 NP6 d          -7.441  -9.356   9.082  0.00  0.00     0.091 H 
ATOM     11  H14 NP6 d          -7.375 -10.458  11.926  0.00  0.00     0.091 H 
ENDROOT
BRANCH   1  12
ATOM     12  N1  NP6 d          -3.646 -10.253  10.629  0.00  0.00    -0.346 N 
ATOM     13  C4  NP6 d          -2.401 -10.237  10.134  0.00  0.00     0.218 C 
ATOM     14  O1  NP6 d          -2.122 -10.080   8.941  0.00  0.00    -0.274 OA
ATOM     15  H8  NP6 d          -3.741 -10.388  11.615  0.00  0.00     0.163 HD
BRANCH  13  16
ATOM     16  C3  NP6 d          -1.286 -10.452  11.181  0.00  0.00     0.009 C 
ATOM     17  H6  NP6 d          -1.675 -10.232  12.186  0.00  0.00     0.047 H 
ATOM     18  H7  NP6 d          -0.939 -11.495  11.143  0.00  0.00     0.047 H 
BRANCH  16  19
ATOM     19  C1  NP6 d          -0.127  -9.518  10.868  0.00  0.00    -0.061 C 
ATOM     20  H4  NP6 d           0.787  -9.923  11.327  0.00  0.00     0.033 H 
ATOM     21  H5  NP6 d           0.002  -9.471   9.776  0.00  0.00     0.033 H 
BRANCH  19  22
ATOM     22  C2  NP6 d          -0.354  -8.107  11.395  0.00  0.00    -0.076 C 
ATOM     23  H1  NP6 d          -0.031  -8.051  12.445  0.00  0.00     0.027 H 
ATOM     24  H2  NP6 d          -1.423  -7.857  11.325  0.00  0.00     0.027 H 
ATOM     25  H3  NP6 d           0.229  -7.393  10.794  0.00  0.00     0.027 H 
ENDBRANCH  19  22
ENDBRANCH  16  19
ENDBRANCH  13  16
ENDBRANCH   1  12
BRANCH   7  26
ATOM     26  O6  NP6 d          -5.991 -13.505   8.694  0.00  0.00    -0.153 OA
BRANCH  26  27
ATOM     27  C11 NP6 d          -6.822 -13.485   7.588  0.00  0.00     0.389 C 
ATOM     28  O7  NP6 d          -6.491 -14.090   6.561  0.00  0.00    -0.236 OA
ATOM     29  N3  NP6 d          -7.989 -12.804   7.701  0.00  0.00    -0.301 N 
ATOM     30  H18 NP6 d          -8.178 -12.435   8.611  0.00  0.00     0.171 HD
BRANCH  29  31
ATOM     31  C12 NP6 d          -8.939 -12.546   6.768  0.00  0.00     0.036 A 
ATOM     32  C13 NP6 d          -9.716 -13.617   6.312  0.00  0.00    -0.057 A 
ATOM     33  C14 NP6 d         -10.732 -13.433   5.367  0.00  0.00    -0.081 A 
ATOM     34  H19 NP6 d          -9.527 -14.612   6.698  0.00  0.00     0.086 H 
ATOM     35  C15 NP6 d         -10.992 -12.152   4.867  0.00  0.00    -0.083 A 
ATOM     36  H20 NP6 d         -11.315 -14.279   5.023  0.00  0.00     0.083 H 
ATOM     37  C16 NP6 d         -10.240 -11.070   5.330  0.00  0.00    -0.081 A 
ATOM     38  H21 NP6 d         -11.770 -12.001   4.127  0.00  0.00     0.083 H 
ATOM     39  C17 NP6 d          -9.222 -11.266   6.274  0.00  0.00    -0.057 A 
ATOM     40  H22 NP6 d         -10.445 -10.073   4.958  0.00  0.00     0.083 H 
ATOM     41  H23 NP6 d          -8.648 -10.416   6.626  0.00  0.00     0.086 H 
ENDBRANCH  29  31
ENDBRANCH  26  27
ENDBRANCH   7  26
BRANCH   2  42
ATOM     42  O2  NP6 d          -5.443  -7.734   9.878  0.00  0.00    -0.390 OA
ATOM     43  H11 NP6 d          -5.781  -7.037  10.427  0.00  0.00     0.210 HD
ENDBRANCH   2  42
BRANCH   4  44
ATOM     44  C9  NP6 d          -9.113 -11.022  10.787  0.00  0.00     0.044 C 
ATOM     45  H15 NP6 d          -9.665 -10.577  11.627  0.00  0.00     0.078 H 
ATOM     46  H16 NP6 d          -9.169 -12.118  10.852  0.00  0.00     0.078 H 
BRANCH  44  47
ATOM     47  O4  NP6 d          -9.704 -10.597   9.565  0.00  0.00    -0.398 OA
ATOM     48  H17 NP6 d          -9.136  -9.962   9.144  0.00  0.00     0.209 HD
ENDBRANCH  44  47
ENDBRANCH   4  44
BRANCH   3  49
ATOM     49  O3  NP6 d          -8.093  -8.241  10.719  0.00  0.00    -0.390 OA
ATOM     50  H13 NP6 d          -7.555  -7.486  10.928  0.00  0.00     0.210 HD
ENDBRANCH   3  49
TORSDOF 11
ENDMDL
MODEL 3
REMARK VINA RESULT:      -6.7      2.100      7.578
REMARK  11 active torsions:
REMARK  status: ('A' for Active; 'I' for Inactive)
REMARK    1  A    between atoms: C2_1  and  C1_2 
REMARK    2  A    between atoms: C1_2  and  C3_3 
REMARK    3  A    between atoms: C3_3  and  C4_4 
REMARK       I    between atoms: C4_4  and  N1_6 
REMARK    4  A    between atoms: N1_6  and  C5_7 
REMARK    5  A    between atoms: C6_8  and  O2_9 
REMARK    6  A    between atoms: C7_10  and  O3_11 
REMARK    7  A    between atoms: C8_12  and  C9_13 
REMARK    8  A    between atoms: C9_13  and  O4_14 
REMARK    9  A    between atoms: N2_17  and  O6_18 
REMARK   10  A    between atoms: O6_18  and  C11_19 
REMARK       I    between atoms: C11_19  and  N3_21 
REMARK   11  A    between atoms: N3_21  and  C12_22 
ROOT
ATOM      1  C5  NP6 d          -4.174 -11.609   9.839  0.00  0.00     0.105 C 
ATOM      2  C6  NP6 d          -4.336 -10.115  10.171  0.00  0.00     0.089 C 
ATOM      3  C7  NP6 d          -5.689  -9.598   9.707  0.00  0.00     0.090 C 
ATOM      4  C8  NP6 d          -6.771 -10.353  10.474  0.00  0.00     0.094 C 
ATOM      5  O5  NP6 d          -6.709 -11.744  10.188  0.00  0.00    -0.324 OA
ATOM      6  C10 NP6 d          -5.550 -12.295   9.698  0.00  0.00     0.194 C 
ATOM      7  N2  NP6 d          -5.664 -13.457   9.056  0.00  0.00    -0.100 NA
ATOM      8  H9  NP6 d          -3.678 -11.676   8.860  0.00  0.00     0.090 H 
ATOM      9  H10 NP6 d          -4.263  -9.983  11.261  0.00  0.00     0.090 H 
ATOM     10  H12 NP6 d          -5.801  -9.757   8.625  0.00  0.00     0.091 H 
ATOM     11  H14 NP6 d          -6.565 -10.204  11.544  0.00  0.00     0.091 H 
ENDROOT
BRANCH   1  12
ATOM     12  N1  NP6 d          -3.285 -12.293  10.826  0.00  0.00    -0.346 N 
ATOM     13  C4  NP6 d          -1.948 -12.351  10.770  0.00  0.00     0.218 C 
ATOM     14  O1  NP6 d          -1.260 -11.840   9.880  0.00  0.00    -0.274 OA
ATOM     15  H8  NP6 d          -3.728 -12.748  11.598  0.00  0.00     0.163 HD
BRANCH  13  16
ATOM     16  C3  NP6 d          -1.287 -13.144  11.919  0.00  0.00     0.009 C 
ATOM     17  H6  NP6 d          -0.304 -12.709  12.150  0.00  0.00     0.047 H 
ATOM     18  H7  NP6 d          -1.926 -13.102  12.813  0.00  0.00     0.047 H 
BRANCH  16  19
ATOM     19  C1  NP6 d          -1.114 -14.591  11.485  0.00  0.00    -0.061 C 
ATOM     20  H4  NP6 d          -1.053 -14.625  10.387  0.00  0.00     0.033 H 
ATOM     21  H5  NP6 d          -0.180 -14.980  11.916  0.00  0.00     0.033 H 
BRANCH  19  22
ATOM     22  C2  NP6 d          -2.267 -15.479  11.937  0.00  0.00    -0.076 C 
ATOM     23  H1  NP6 d          -3.007 -14.871  12.478  0.00  0.00     0.027 H 
ATOM     24  H2  NP6 d          -1.884 -16.268  12.601  0.00  0.00     0.027 H 
ATOM     25  H3  NP6 d          -2.743 -15.939  11.058  0.00  0.00     0.027 H 
ENDBRANCH  19  22
ENDBRANCH  16  19
ENDBRANCH  13  16
ENDBRANCH   1  12
BRANCH   7  26
ATOM     26  O6  NP6 d          -6.910 -14.019   8.903  0.00  0.00    -0.153 OA
BRANCH  26  27
ATOM     27  C11 NP6 d          -7.503 -13.748   7.682  0.00  0.00     0.389 C 
ATOM     28  O7  NP6 d          -6.897 -14.006   6.636  0.00  0.00    -0.236 OA
ATOM     29  N3  NP6 d          -8.752 -13.221   7.702  0.00  0.00    -0.301 N 
ATOM     30  H18 NP6 d          -9.165 -13.143   8.610  0.00  0.00     0.171 HD
BRANCH  29  31
ATOM     31  C12 NP6 d          -9.527 -12.782   6.679  0.00  0.00     0.036 A 
ATOM     32  C13 NP6 d          -9.518 -11.413   6.391  0.00  0.00    -0.057 A 
ATOM     33  C14 NP6 d         -10.271 -10.883   5.337  0.00  0.00    -0.081 A 
ATOM     34  H19 NP6 d          -8.913 -10.747   6.997  0.00  0.00     0.086 H 
ATOM     35  C15 NP6 d         -11.049 -11.732   4.542  0.00  0.00    -0.083 A 
ATOM     36  H20 NP6 d         -10.254  -9.817   5.138  0.00  0.00     0.083 H 
ATOM     37  C16 NP6 d         -11.050 -13.104   4.804  0.00  0.00    -0.081 A 
ATOM     38  H21 NP6 d         -11.644 -11.329   3.731  0.00  0.00     0.083 H 
ATOM     39  C17 NP6 d         -10.294 -13.625   5.863  0.00  0.00    -0.057 A 
ATOM     40  H22 NP6 d         -11.639 -13.770   4.184  0.00  0.00     0.083 H 
ATOM     41  H23 NP6 d         -10.304 -14.692   6.053  0.00  0.00     0.086 H 
ENDBRANCH  29  31
ENDBRANCH  26  27
ENDBRANCH   7  26
BRANCH   2  42
ATOM     42  O2  NP6 d          -3.298  -9.377   9.546  0.00  0.00    -0.390 OA
ATOM     43  H11 NP6 d          -2.839  -9.937   8.932  0.00  0.00     0.210 HD
ENDBRANCH   2  42
BRANCH   4  44
ATOM     44  C9  NP6 d          -8.234  -9.918  10.215  0.00  0.00     0.044 C 
ATOM     45  H15 NP6 d          -8.914 -10.703  10.575  0.00  0.00     0.078 H 
ATOM     46  H16 NP6 d          -8.381  -9.774   9.134  0.00  0.00     0.078 H 
BRANCH  44  47
ATOM     47  O4  NP6 d          -8.528  -8.701  10.891  0.00  0.00    -0.398 OA
ATOM     48  H17 NP6 d          -7.968  -8.011  10.556  0.00  0.00     0.209 HD
ENDBRANCH  44  47
ENDBRANCH   4  44
BRANCH   3  49
ATOM     49  O3  NP6 d          -5.826  -8.203  10.014  0.00  0.00    -0.390 OA
ATOM     50  H13 NP6 d          -6.719  -8.026  10.283  0.00  0.00     0.210 HD
ENDBRANCH   3  49
TORSDOF 11
ENDMDL
MODEL 4
REMARK VINA RESULT:      -6.7      2.343      7.561
REMARK  11 active torsions:
REMARK  status: ('A' for Active; 'I' for Inactive)
REMARK    1  A    between atoms: C2_1  and  C1_2 
REMARK    2  A    between atoms: C1_2  and  C3_3 
REMARK    3  A    between atoms: C3_3  and  C4_4 
REMARK       I    between atoms: C4_4  and  N1_6 
REMARK    4  A    between atoms: N1_6  and  C5_7 
REMARK    5  A    between atoms: C6_8  and  O2_9 
REMARK    6  A    between atoms: C7_10  and  O3_11 
REMARK    7  A    between atoms: C8_12  and  C9_13 
REMARK    8  A    between atoms: C9_13  and  O4_14 
REMARK    9  A    between atoms: N2_17  and  O6_18 
REMARK   10  A    between atoms: O6_18  and  C11_19 
REMARK       I    between atoms: C11_19  and  N3_21 
REMARK   11  A    between atoms: N3_21  and  C12_22 
ROOT
ATOM      1  C5  NP6 d          -3.697 -11.829   9.136  0.00  0.00     0.105 C 
ATOM      2  C6  NP6 d          -2.417 -11.740   8.287  0.00  0.00     0.089 C 
ATOM      3  C7  NP6 d          -2.212 -13.009   7.476  0.00  0.00     0.090 C 
ATOM      4  C8  NP6 d          -3.389 -13.149   6.512  0.00  0.00     0.094 C 
ATOM      5  O5  NP6 d          -4.609 -13.275   7.229  0.00  0.00    -0.324 OA
ATOM      6  C10 NP6 d          -4.694 -12.839   8.528  0.00  0.00     0.194 C 
ATOM      7  N2  NP6 d          -5.674 -13.353   9.270  0.00  0.00    -0.100 NA
ATOM      8  H9  NP6 d          -3.408 -12.215  10.125  0.00  0.00     0.090 H 
ATOM      9  H10 NP6 d          -2.509 -10.890   7.594  0.00  0.00     0.090 H 
ATOM     10  H12 NP6 d          -2.159 -13.879   8.147  0.00  0.00     0.091 H 
ATOM     11  H14 NP6 d          -3.422 -12.225   5.917  0.00  0.00     0.091 H 
ENDROOT
BRANCH   1  12
ATOM     12  N1  NP6 d          -4.301 -10.480   9.355  0.00  0.00    -0.346 N 
ATOM     13  C4  NP6 d          -4.670  -9.967  10.536  0.00  0.00     0.218 C 
ATOM     14  O1  NP6 d          -4.558 -10.549  11.620  0.00  0.00    -0.274 OA
ATOM     15  H8  NP6 d          -4.442  -9.909   8.547  0.00  0.00     0.163 HD
BRANCH  13  16
ATOM     16  C3  NP6 d          -5.286  -8.552  10.462  0.00  0.00     0.009 C 
ATOM     17  H6  NP6 d          -5.358  -8.127  11.474  0.00  0.00     0.047 H 
ATOM     18  H7  NP6 d          -4.652  -7.905   9.838  0.00  0.00     0.047 H 
BRANCH  16  19
ATOM     19  C1  NP6 d          -6.674  -8.649   9.850  0.00  0.00    -0.061 C 
ATOM     20  H4  NP6 d          -6.728  -7.966   8.989  0.00  0.00     0.033 H 
ATOM     21  H5  NP6 d          -6.837  -9.682   9.508  0.00  0.00     0.033 H 
BRANCH  19  22
ATOM     22  C2  NP6 d          -7.776  -8.281  10.836  0.00  0.00    -0.076 C 
ATOM     23  H1  NP6 d          -7.329  -8.053  11.816  0.00  0.00     0.027 H 
ATOM     24  H2  NP6 d          -8.474  -9.125  10.938  0.00  0.00     0.027 H 
ATOM     25  H3  NP6 d          -8.318  -7.398  10.467  0.00  0.00     0.027 H 
ENDBRANCH  19  22
ENDBRANCH  16  19
ENDBRANCH  13  16
ENDBRANCH   1  12
BRANCH   7  26
ATOM     26  O6  NP6 d          -6.515 -14.288   8.714  0.00  0.00    -0.153 OA
BRANCH  26  27
ATOM     27  C11 NP6 d          -7.729 -13.773   8.292  0.00  0.00     0.389 C 
ATOM     28  O7  NP6 d          -8.699 -13.785   9.059  0.00  0.00    -0.236 OA
ATOM     29  N3  NP6 d          -7.782 -13.256   7.040  0.00  0.00    -0.301 N 
ATOM     30  H18 NP6 d          -6.908 -13.227   6.556  0.00  0.00     0.171 HD
BRANCH  29  31
ATOM     31  C12 NP6 d          -8.841 -12.772   6.344  0.00  0.00     0.036 A 
ATOM     32  C13 NP6 d          -9.034 -11.386   6.326  0.00  0.00    -0.057 A 
ATOM     33  C14 NP6 d         -10.089 -10.804   5.612  0.00  0.00    -0.081 A 
ATOM     34  H19 NP6 d          -8.352 -10.748   6.876  0.00  0.00     0.086 H 
ATOM     35  C15 NP6 d         -10.971 -11.616   4.891  0.00  0.00    -0.083 A 
ATOM     36  H20 NP6 d         -10.223  -9.729   5.620  0.00  0.00     0.083 H 
ATOM     37  C16 NP6 d         -10.777 -12.999   4.881  0.00  0.00    -0.081 A 
ATOM     38  H21 NP6 d         -11.797 -11.176   4.344  0.00  0.00     0.083 H 
ATOM     39  C17 NP6 d          -9.720 -13.572   5.601  0.00  0.00    -0.057 A 
ATOM     40  H22 NP6 d         -11.448 -13.633   4.314  0.00  0.00     0.083 H 
ATOM     41  H23 NP6 d          -9.581 -14.648   5.583  0.00  0.00     0.086 H 
ENDBRANCH  29  31
ENDBRANCH  26  27
ENDBRANCH   7  26
BRANCH   2  42
ATOM     42  O2  NP6 d          -1.301 -11.525   9.135  0.00  0.00    -0.390 OA
ATOM     43  H11 NP6 d          -1.204 -12.265   9.723  0.00  0.00     0.210 HD
ENDBRANCH   2  42
BRANCH   4  44
ATOM     44  C9  NP6 d          -3.335 -14.340   5.524  0.00  0.00     0.044 C 
ATOM     45  H15 NP6 d          -2.779 -15.168   5.987  0.00  0.00     0.078 H 
ATOM     46  H16 NP6 d          -2.822 -14.023   4.605  0.00  0.00     0.078 H 
BRANCH  44  47
ATOM     47  O4  NP6 d          -4.645 -14.786   5.196  0.00  0.00    -0.398 OA
ATOM     48  H17 NP6 d          -5.233 -14.595   5.918  0.00  0.00     0.209 HD
ENDBRANCH  44  47
ENDBRANCH   4  44
BRANCH   3  49
ATOM     49  O3  NP6 d          -1.013 -12.919   6.694  0.00  0.00    -0.390 OA
ATOM     50  H13 NP6 d          -0.608 -13.776   6.637  0.00  0.00     0.210 HD
ENDBRANCH   3  49
TORSDOF 11
ENDMDL
MODEL 5
REMARK VINA RESULT:      -6.5      1.761      7.521
REMARK  11 active torsions:
REMARK  status: ('A' for Active; 'I' for Inactive)
REMARK    1  A    between atoms: C2_1  and  C1_2 
REMARK    2  A    between atoms: C1_2  and  C3_3 
REMARK    3  A    between atoms: C3_3  and  C4_4 
REMARK       I    between atoms: C4_4  and  N1_6 
REMARK    4  A    between atoms: N1_6  and  C5_7 
REMARK    5  A    between atoms: C6_8  and  O2_9 
REMARK    6  A    between atoms: C7_10  and  O3_11 
REMARK    7  A    between atoms: C8_12  and  C9_13 
REMARK    8  A    between atoms: C9_13  and  O4_14 
REMARK    9  A    between atoms: N2_17  and  O6_18 
REMARK   10  A    between atoms: O6_18  and  C11_19 
REMARK       I    between atoms: C11_19  and  N3_21 
REMARK   11  A    between atoms: N3_21  and  C12_22 
ROOT
ATOM      1  C5  NP6 d          -4.491 -11.630   8.911  0.00  0.00     0.105 C 
ATOM      2  C6  NP6 d          -4.459 -10.130   9.255  0.00  0.00     0.089 C 
ATOM      3  C7  NP6 d          -5.867  -9.575   9.398  0.00  0.00     0.090 C 
ATOM      4  C8  NP6 d          -6.542 -10.294  10.564  0.00  0.00     0.094 C 
ATOM      5  O5  NP6 d          -6.642 -11.687  10.301  0.00  0.00    -0.324 OA
ATOM      6  C10 NP6 d          -5.814 -12.275   9.376  0.00  0.00     0.194 C 
ATOM      7  N2  NP6 d          -6.218 -13.436   8.863  0.00  0.00    -0.100 NA
ATOM      8  H9  NP6 d          -4.458 -11.716   7.815  0.00  0.00     0.090 H 
ATOM      9  H10 NP6 d          -3.928  -9.996  10.209  0.00  0.00     0.090 H 
ATOM     10  H12 NP6 d          -6.431  -9.736   8.468  0.00  0.00     0.091 H 
ATOM     11  H14 NP6 d          -5.899 -10.145  11.443  0.00  0.00     0.091 H 
ENDROOT
BRANCH   1  12
ATOM     12  N1  NP6 d          -3.285 -12.335   9.441  0.00  0.00    -0.346 N 
ATOM     13  C4  NP6 d          -2.981 -12.508  10.734  0.00  0.00     0.218 C 
ATOM     14  O1  NP6 d          -3.668 -12.101  11.676  0.00  0.00    -0.274 OA
ATOM     15  H8  NP6 d          -2.648 -12.713   8.769  0.00  0.00     0.163 HD
BRANCH  13  16
ATOM     16  C3  NP6 d          -1.658 -13.262  10.992  0.00  0.00     0.009 C 
ATOM     17  H6  NP6 d          -1.875 -14.266  11.384  0.00  0.00     0.047 H 
ATOM     18  H7  NP6 d          -1.093 -13.350  10.052  0.00  0.00     0.047 H 
BRANCH  16  19
ATOM     19  C1  NP6 d          -0.836 -12.484  12.008  0.00  0.00    -0.061 C 
ATOM     20  H4  NP6 d          -1.517 -11.867  12.613  0.00  0.00     0.033 H 
ATOM     21  H5  NP6 d          -0.313 -13.199  12.660  0.00  0.00     0.033 H 
BRANCH  19  22
ATOM     22  C2  NP6 d           0.196 -11.575  11.353  0.00  0.00    -0.076 C 
ATOM     23  H1  NP6 d           0.076 -11.613  10.260  0.00  0.00     0.027 H 
ATOM     24  H2  NP6 d           1.207 -11.913  11.623  0.00  0.00     0.027 H 
ATOM     25  H3  NP6 d           0.049 -10.542  11.702  0.00  0.00     0.027 H 
ENDBRANCH  19  22
ENDBRANCH  16  19
ENDBRANCH  13  16
ENDBRANCH   1  12
BRANCH   7  26
ATOM     26  O6  NP6 d          -7.425 -13.961   9.262  0.00  0.00    -0.153 OA
BRANCH  26  27
ATOM     27  C11 NP6 d          -8.514 -13.454   8.573  0.00  0.00     0.389 C 
ATOM     28  O7  NP6 d          -9.611 -13.369   9.138  0.00  0.00    -0.236 OA
ATOM     29  N3  NP6 d          -8.307 -13.052   7.295  0.00  0.00    -0.301 N 
ATOM     30  H18 NP6 d          -7.356 -13.091   6.987  0.00  0.00     0.171 HD
BRANCH  29  31
ATOM     31  C12 NP6 d          -9.193 -12.604   6.371  0.00  0.00     0.036 A 
ATOM     32  C13 NP6 d          -9.863 -13.555   5.592  0.00  0.00    -0.057 A 
ATOM     33  C14 NP6 d         -10.809 -13.178   4.632  0.00  0.00    -0.081 A 
ATOM     34  H19 NP6 d          -9.645 -14.607   5.736  0.00  0.00     0.086 H 
ATOM     35  C15 NP6 d         -11.106 -11.824   4.443  0.00  0.00    -0.083 A 
ATOM     36  H20 NP6 d         -11.310 -13.932   4.036  0.00  0.00     0.083 H 
ATOM     37  C16 NP6 d         -10.461 -10.866   5.228  0.00  0.00    -0.081 A 
ATOM     38  H21 NP6 d         -11.829 -11.521   3.694  0.00  0.00     0.083 H 
ATOM     39  C17 NP6 d          -9.513 -11.253   6.185  0.00  0.00    -0.057 A 
ATOM     40  H22 NP6 d         -10.696  -9.815   5.096  0.00  0.00     0.083 H 
ATOM     41  H23 NP6 d          -9.023 -10.497   6.788  0.00  0.00     0.086 H 
ENDBRANCH  29  31
ENDBRANCH  26  27
ENDBRANCH   7  26
BRANCH   2  42
ATOM     42  O2  NP6 d          -3.765  -9.426   8.237  0.00  0.00    -0.390 OA
ATOM     43  H11 NP6 d          -3.994  -8.506   8.278  0.00  0.00     0.210 HD
ENDBRANCH   2  42
BRANCH   4  44
ATOM     44  C9  NP6 d          -7.966  -9.816  10.940  0.00  0.00     0.044 C 
ATOM     45  H15 NP6 d          -8.235  -8.955  10.311  0.00  0.00     0.078 H 
ATOM     46  H16 NP6 d          -7.977  -9.514  11.997  0.00  0.00     0.078 H 
BRANCH  44  47
ATOM     47  O4  NP6 d          -8.918 -10.853  10.741  0.00  0.00    -0.398 OA
ATOM     48  H17 NP6 d          -8.738 -11.293   9.918  0.00  0.00     0.209 HD
ENDBRANCH  44  47
ENDBRANCH   4  44
BRANCH   3  49
ATOM     49  O3  NP6 d          -5.826  -8.175   9.710  0.00  0.00    -0.390 OA
ATOM     50  H13 NP6 d          -6.548  -7.960  10.289  0.00  0.00     0.210 HD
ENDBRANCH   3  49
TORSDOF 11
ENDMDL
MODEL 6
REMARK VINA RESULT:      -6.4      1.998      7.038
REMARK  11 active torsions:
REMARK  status: ('A' for Active; 'I' for Inactive)
REMARK    1  A    between atoms: C2_1  and  C1_2 
REMARK    2  A    between atoms: C1_2  and  C3_3 
REMARK    3  A    between atoms: C3_3  and  C4_4 
REMARK       I    between atoms: C4_4  and  N1_6 
REMARK    4  A    between atoms: N1_6  and  C5_7 
REMARK    5  A    between atoms: C6_8  and  O2_9 
REMARK    6  A    between atoms: C7_10  and  O3_11 
REMARK    7  A    between atoms: C8_12  and  C9_13 
REMARK    8  A    between atoms: C9_13  and  O4_14 
REMARK    9  A    between atoms: N2_17  and  O6_18 
REMARK   10  A    between atoms: O6_18  and  C11_19 
REMARK       I    between atoms: C11_19  and  N3_21 
REMARK   11  A    between atoms: N3_21  and  C12_22 
ROOT
ATOM      1  C5  NP6 d          -4.213 -10.582  10.928  0.00  0.00     0.105 C 
ATOM      2  C6  NP6 d          -2.879  -9.832  10.764  0.00  0.00     0.089 C 
ATOM      3  C7  NP6 d          -1.927 -10.607   9.867  0.00  0.00     0.090 C 
ATOM      4  C8  NP6 d          -2.562 -10.711   8.483  0.00  0.00     0.094 C 
ATOM      5  O5  NP6 d          -3.787 -11.428   8.548  0.00  0.00    -0.324 OA
ATOM      6  C10 NP6 d          -4.458 -11.538   9.741  0.00  0.00     0.194 C 
ATOM      7  N2  NP6 d          -5.329 -12.541   9.849  0.00  0.00    -0.100 NA
ATOM      8  H9  NP6 d          -4.131 -11.204  11.832  0.00  0.00     0.090 H 
ATOM      9  H10 NP6 d          -3.077  -8.852  10.306  0.00  0.00     0.090 H 
ATOM     10  H12 NP6 d          -1.747 -11.608  10.285  0.00  0.00     0.091 H 
ATOM     11  H14 NP6 d          -2.771  -9.684   8.151  0.00  0.00     0.091 H 
ENDROOT
BRANCH   1  12
ATOM     12  N1  NP6 d          -5.346  -9.635  11.152  0.00  0.00    -0.346 N 
ATOM     13  C4  NP6 d          -5.802  -8.734  10.271  0.00  0.00     0.218 C 
ATOM     14  O1  NP6 d          -5.340  -8.564   9.139  0.00  0.00    -0.274 OA
ATOM     15  H8  NP6 d          -5.805  -9.676  12.039  0.00  0.00     0.163 HD
BRANCH  13  16
ATOM     16  C3  NP6 d          -6.978  -7.870  10.780  0.00  0.00     0.009 C 
ATOM     17  H6  NP6 d          -6.680  -7.346  11.700  0.00  0.00     0.047 H 
ATOM     18  H7  NP6 d          -7.255  -7.134  10.012  0.00  0.00     0.047 H 
BRANCH  16  19
ATOM     19  C1  NP6 d          -8.166  -8.775  11.070  0.00  0.00    -0.061 C 
ATOM     20  H4  NP6 d          -8.007  -9.264  12.042  0.00  0.00     0.033 H 
ATOM     21  H5  NP6 d          -9.076  -8.158  11.114  0.00  0.00     0.033 H 
BRANCH  19  22
ATOM     22  C2  NP6 d          -8.355  -9.850  10.007  0.00  0.00    -0.076 C 
ATOM     23  H1  NP6 d          -9.429 -10.059   9.885  0.00  0.00     0.027 H 
ATOM     24  H2  NP6 d          -7.835 -10.768  10.316  0.00  0.00     0.027 H 
ATOM     25  H3  NP6 d          -7.940  -9.498   9.051  0.00  0.00     0.027 H 
ENDBRANCH  19  22
ENDBRANCH  16  19
ENDBRANCH  13  16
ENDBRANCH   1  12
BRANCH   7  26
ATOM     26  O6  NP6 d          -5.489 -13.406   8.791  0.00  0.00    -0.153 OA
BRANCH  26  27
ATOM     27  C11 NP6 d          -6.785 -13.472   8.309  0.00  0.00     0.389 C 
ATOM     28  O7  NP6 d          -7.555 -14.340   8.739  0.00  0.00    -0.236 OA
ATOM     29  N3  NP6 d          -7.152 -12.550   7.386  0.00  0.00    -0.301 N 
ATOM     30  H18 NP6 d          -6.465 -11.850   7.190  0.00  0.00     0.171 HD
BRANCH  29  31
ATOM     31  C12 NP6 d          -8.309 -12.431   6.688  0.00  0.00     0.036 A 
ATOM     32  C13 NP6 d          -8.853 -11.151   6.536  0.00  0.00    -0.057 A 
ATOM     33  C14 NP6 d         -10.032 -10.939   5.811  0.00  0.00    -0.081 A 
ATOM     34  H19 NP6 d          -8.351 -10.303   6.989  0.00  0.00     0.086 H 
ATOM     35  C15 NP6 d         -10.684 -12.023   5.213  0.00  0.00    -0.083 A 
ATOM     36  H20 NP6 d         -10.438  -9.939   5.713  0.00  0.00     0.083 H 
ATOM     37  C16 NP6 d         -10.141 -13.303   5.338  0.00  0.00    -0.081 A 
ATOM     38  H21 NP6 d         -11.604 -11.870   4.659  0.00  0.00     0.083 H 
ATOM     39  C17 NP6 d          -8.962 -13.505   6.069  0.00  0.00    -0.057 A 
ATOM     40  H22 NP6 d         -10.633 -14.146   4.867  0.00  0.00     0.083 H 
ATOM     41  H23 NP6 d          -8.550 -14.505   6.155  0.00  0.00     0.086 H 
ENDBRANCH  29  31
ENDBRANCH  26  27
ENDBRANCH   7  26
BRANCH   2  42
ATOM     42  O2  NP6 d          -2.287  -9.636  12.039  0.00  0.00    -0.390 OA
ATOM     43  H11 NP6 d          -1.436  -9.230  11.932  0.00  0.00     0.210 HD
ENDBRANCH   2  42
BRANCH   4  44
ATOM     44  C9  NP6 d          -1.713 -11.394   7.382  0.00  0.00     0.044 C 
ATOM     45  H15 NP6 d          -0.743 -11.692   7.807  0.00  0.00     0.078 H 
ATOM     46  H16 NP6 d          -1.549 -10.682   6.560  0.00  0.00     0.078 H 
BRANCH  44  47
ATOM     47  O4  NP6 d          -2.373 -12.547   6.875  0.00  0.00    -0.398 OA
ATOM     48  H17 NP6 d          -2.931 -12.297   6.147  0.00  0.00     0.209 HD
ENDBRANCH  44  47
ENDBRANCH   4  44
BRANCH   3  49
ATOM     49  O3  NP6 d          -0.684  -9.903   9.728  0.00  0.00    -0.390 OA
ATOM     50  H13 NP6 d          -0.577  -9.305  10.457  0.00  0.00     0.210 HD
ENDBRANCH   3  49
TORSDOF 11
ENDMDL
MODEL 7
REMARK VINA RESULT:      -6.1      2.356      6.981
REMARK  11 active torsions:
REMARK  status: ('A' for Active; 'I' for Inactive)
REMARK    1  A    between atoms: C2_1  and  C1_2 
REMARK    2  A    between atoms: C1_2  and  C3_3 
REMARK    3  A    between atoms: C3_3  and  C4_4 
REMARK       I    between atoms: C4_4  and  N1_6 
REMARK    4  A    between atoms: N1_6  and  C5_7 
REMARK    5  A    between atoms: C6_8  and  O2_9 
REMARK    6  A    between atoms: C7_10  and  O3_11 
REMARK    7  A    between atoms: C8_12  and  C9_13 
REMARK    8  A    between atoms: C9_13  and  O4_14 
REMARK    9  A    between atoms: N2_17  and  O6_18 
REMARK   10  A    between atoms: O6_18  and  C11_19 
REMARK       I    between atoms: C11_19  and  N3_21 
REMARK   11  A    between atoms: N3_21  and  C12_22 
ROOT
ATOM      1  C5  NP6 d          -3.246 -11.142   7.756  0.00  0.00     0.105 C 
ATOM      2  C6  NP6 d          -1.949 -11.014   8.575  0.00  0.00     0.089 C 
ATOM      3  C7  NP6 d          -2.146 -10.088   9.765  0.00  0.00     0.090 C 
ATOM      4  C8  NP6 d          -3.201 -10.710  10.678  0.00  0.00     0.094 C 
ATOM      5  O5  NP6 d          -4.443 -10.827   9.999  0.00  0.00    -0.324 OA
ATOM      6  C10 NP6 d          -4.481 -10.825   8.626  0.00  0.00     0.194 C 
ATOM      7  N2  NP6 d          -5.644 -10.506   8.059  0.00  0.00    -0.100 NA
ATOM      8  H9  NP6 d          -3.208 -10.383   6.961  0.00  0.00     0.090 H 
ATOM      9  H10 NP6 d          -1.664 -12.009   8.946  0.00  0.00     0.090 H 
ATOM     10  H12 NP6 d          -2.473  -9.096   9.419  0.00  0.00     0.091 H 
ATOM     11  H14 NP6 d          -2.843 -11.718  10.935  0.00  0.00     0.091 H 
ENDROOT
BRANCH   1  12
ATOM     12  N1  NP6 d          -3.337 -12.474   7.085  0.00  0.00    -0.346 N 
ATOM     13  C4  NP6 d          -3.490 -13.654   7.700  0.00  0.00     0.218 C 
ATOM     14  O1  NP6 d          -3.578 -13.802   8.922  0.00  0.00    -0.274 OA
ATOM     15  H8  NP6 d          -3.278 -12.485   6.087  0.00  0.00     0.163 HD
BRANCH  13  16
ATOM     16  C3  NP6 d          -3.534 -14.875   6.753  0.00  0.00     0.009 C 
ATOM     17  H6  NP6 d          -2.690 -15.544   6.974  0.00  0.00     0.047 H 
ATOM     18  H7  NP6 d          -4.480 -15.418   6.895  0.00  0.00     0.047 H 
BRANCH  16  19
ATOM     19  C1  NP6 d          -3.437 -14.389   5.316  0.00  0.00    -0.061 C 
ATOM     20  H4  NP6 d          -4.061 -13.489   5.205  0.00  0.00     0.033 H 
ATOM     21  H5  NP6 d          -2.389 -14.137   5.099  0.00  0.00     0.033 H 
BRANCH  19  22
ATOM     22  C2  NP6 d          -3.906 -15.435   4.312  0.00  0.00    -0.076 C 
ATOM     23  H1  NP6 d          -4.468 -14.942   3.504  0.00  0.00     0.027 H 
ATOM     24  H2  NP6 d          -4.555 -16.164   4.818  0.00  0.00     0.027 H 
ATOM     25  H3  NP6 d          -3.034 -15.953   3.888  0.00  0.00     0.027 H 
ENDBRANCH  19  22
ENDBRANCH  16  19
ENDBRANCH  13  16
ENDBRANCH   1  12
BRANCH   7  26
ATOM     26  O6  NP6 d          -6.713 -10.180   8.861  0.00  0.00    -0.153 OA
BRANCH  26  27
ATOM     27  C11 NP6 d          -7.930 -10.645   8.393  0.00  0.00     0.389 C 
ATOM     28  O7  NP6 d          -8.932 -10.572   9.114  0.00  0.00    -0.236 OA
ATOM     29  N3  NP6 d          -7.959 -11.150   7.135  0.00  0.00    -0.301 N 
ATOM     30  H18 NP6 d          -7.102 -11.071   6.627  0.00  0.00     0.171 HD
BRANCH  29  31
ATOM     31  C12 NP6 d          -8.974 -11.746   6.461  0.00  0.00     0.036 A 
ATOM     32  C13 NP6 d          -9.794 -10.939   5.664  0.00  0.00    -0.057 A 
ATOM     33  C14 NP6 d         -10.849 -11.479   4.919  0.00  0.00    -0.081 A 
ATOM     34  H19 NP6 d          -9.609  -9.872   5.623  0.00  0.00     0.086 H 
ATOM     35  C15 NP6 d         -11.093 -12.856   4.956  0.00  0.00    -0.083 A 
ATOM     36  H20 NP6 d         -11.475 -10.833   4.315  0.00  0.00     0.083 H 
ATOM     37  C16 NP6 d         -10.268 -13.677   5.729  0.00  0.00    -0.081 A 
ATOM     38  H21 NP6 d         -11.914 -13.282   4.391  0.00  0.00     0.083 H 
ATOM     39  C17 NP6 d          -9.217 -13.127   6.475  0.00  0.00    -0.057 A 
ATOM     40  H22 NP6 d         -10.443 -14.746   5.753  0.00  0.00     0.083 H 
ATOM     41  H23 NP6 d          -8.584 -13.777   7.068  0.00  0.00     0.086 H 
ENDBRANCH  29  31
ENDBRANCH  26  27
ENDBRANCH   7  26
BRANCH   2  42
ATOM     42  O2  NP6 d          -0.913 -10.516   7.744  0.00  0.00    -0.390 OA
ATOM     43  H11 NP6 d          -1.265  -9.851   7.166  0.00  0.00     0.210 HD
ENDBRANCH   2  42
BRANCH   4  44
ATOM     44  C9  NP6 d          -3.493  -9.966  12.003  0.00  0.00     0.044 C 
ATOM     45  H15 NP6 d          -2.557  -9.537  12.391  0.00  0.00     0.078 H 
ATOM     46  H16 NP6 d          -3.900 -10.679  12.735  0.00  0.00     0.078 H 
BRANCH  44  47
ATOM     47  O4  NP6 d          -4.435  -8.920  11.800  0.00  0.00    -0.398 OA
ATOM     48  H17 NP6 d          -4.101  -8.318  11.145  0.00  0.00     0.209 HD
ENDBRANCH  44  47
ENDBRANCH   4  44
BRANCH   3  49
ATOM     49  O3  NP6 d          -0.930  -9.970  10.516  0.00  0.00    -0.390 OA
ATOM     50  H13 NP6 d          -0.442 -10.782  10.456  0.00  0.00     0.210 HD
ENDBRANCH   3  49
TORSDOF 11
ENDMDL
MODEL 8
REMARK VINA RESULT:      -6.0      2.184      6.864
REMARK  11 active torsions:
REMARK  status: ('A' for Active; 'I' for Inactive)
REMARK    1  A    between atoms: C2_1  and  C1_2 
REMARK    2  A    between atoms: C1_2  and  C3_3 
REMARK    3  A    between atoms: C3_3  and  C4_4 
REMARK       I    between atoms: C4_4  and  N1_6 
REMARK    4  A    between atoms: N1_6  and  C5_7 
REMARK    5  A    between atoms: C6_8  and  O2_9 
REMARK    6  A    between atoms: C7_10  and  O3_11 
REMARK    7  A    between atoms: C8_12  and  C9_13 
REMARK    8  A    between atoms: C9_13  and  O4_14 
REMARK    9  A    between atoms: N2_17  and  O6_18 
REMARK   10  A    between atoms: O6_18  and  C11_19 
REMARK       I    between atoms: C11_19  and  N3_21 
REMARK   11  A    between atoms: N3_21  and  C12_22 
ROOT
ATOM      1  C5  NP6 d          -4.967 -11.849  10.477  0.00  0.00     0.105 C 
ATOM      2  C6  NP6 d          -3.557 -11.240  10.583  0.00  0.00     0.089 C 
ATOM      3  C7  NP6 d          -2.526 -12.135   9.916  0.00  0.00     0.090 C 
ATOM      4  C8  NP6 d          -2.870 -12.227   8.431  0.00  0.00     0.094 C 
ATOM      5  O5  NP6 d          -4.150 -12.818   8.251  0.00  0.00    -0.324 OA
ATOM      6  C10 NP6 d          -5.059 -12.819   9.279  0.00  0.00     0.194 C 
ATOM      7  N2  NP6 d          -6.033 -13.728   9.218  0.00  0.00    -0.100 NA
ATOM      8  H9  NP6 d          -5.137 -12.443  11.387  0.00  0.00     0.090 H 
ATOM      9  H10 NP6 d          -3.554 -10.262  10.079  0.00  0.00     0.090 H 
ATOM     10  H12 NP6 d          -2.540 -13.134  10.377  0.00  0.00     0.091 H 
ATOM     11  H14 NP6 d          -2.900 -11.197   8.048  0.00  0.00     0.091 H 
ENDROOT
BRANCH   1  12
ATOM     12  N1  NP6 d          -6.018 -10.788  10.445  0.00  0.00    -0.346 N 
ATOM     13  C4  NP6 d          -7.318 -10.963  10.716  0.00  0.00     0.218 C 
ATOM     14  O1  NP6 d          -7.830 -12.041  11.033  0.00  0.00    -0.274 OA
ATOM     15  H8  NP6 d          -5.724  -9.865  10.199  0.00  0.00     0.163 HD
BRANCH  13  16
ATOM     16  C3  NP6 d          -8.183  -9.689  10.586  0.00  0.00     0.009 C 
ATOM     17  H6  NP6 d          -9.106  -9.923  10.036  0.00  0.00     0.047 H 
ATOM     18  H7  NP6 d          -8.437  -9.311  11.587  0.00  0.00     0.047 H 
BRANCH  16  19
ATOM     19  C1  NP6 d          -7.393  -8.632   9.829  0.00  0.00    -0.061 C 
ATOM     20  H4  NP6 d          -6.373  -9.006   9.662  0.00  0.00     0.033 H 
ATOM     21  H5  NP6 d          -7.882  -8.454   8.860  0.00  0.00     0.033 H 
BRANCH  19  22
ATOM     22  C2  NP6 d          -7.312  -7.311  10.584  0.00  0.00    -0.076 C 
ATOM     23  H1  NP6 d          -7.943  -7.363  11.484  0.00  0.00     0.027 H 
ATOM     24  H2  NP6 d          -7.664  -6.495   9.936  0.00  0.00     0.027 H 
ATOM     25  H3  NP6 d          -6.269  -7.121  10.879  0.00  0.00     0.027 H 
ENDBRANCH  19  22
ENDBRANCH  16  19
ENDBRANCH  13  16
ENDBRANCH   1  12
BRANCH   7  26
ATOM     26  O6  NP6 d          -6.059 -14.610   8.163  0.00  0.00    -0.153 OA
BRANCH  26  27
ATOM     27  C11 NP6 d          -6.875 -14.214   7.118  0.00  0.00     0.389 C 
ATOM     28  O7  NP6 d          -6.611 -14.573   5.964  0.00  0.00    -0.236 OA
ATOM     29  N3  NP6 d          -7.953 -13.451   7.427  0.00  0.00    -0.301 N 
ATOM     30  H18 NP6 d          -8.102 -13.305   8.405  0.00  0.00     0.171 HD
BRANCH  29  31
ATOM     31  C12 NP6 d          -8.859 -12.857   6.612  0.00  0.00     0.036 A 
ATOM     32  C13 NP6 d          -9.781 -13.675   5.950  0.00  0.00    -0.057 A 
ATOM     33  C14 NP6 d         -10.763 -13.139   5.109  0.00  0.00    -0.081 A 
ATOM     34  H19 NP6 d          -9.734 -14.749   6.091  0.00  0.00     0.086 H 
ATOM     35  C15 NP6 d         -10.841 -11.754   4.925  0.00  0.00    -0.083 A 
ATOM     36  H20 NP6 d         -11.461 -13.794   4.601  0.00  0.00     0.083 H 
ATOM     37  C16 NP6 d          -9.942 -10.923   5.597  0.00  0.00    -0.081 A 
ATOM     38  H21 NP6 d         -11.591 -11.330   4.268  0.00  0.00     0.083 H 
ATOM     39  C17 NP6 d          -8.960 -11.470   6.435  0.00  0.00    -0.057 A 
ATOM     40  H22 NP6 d         -10.004  -9.849   5.471  0.00  0.00     0.083 H 
ATOM     41  H23 NP6 d          -8.270 -10.812   6.951  0.00  0.00     0.086 H 
ENDBRANCH  29  31
ENDBRANCH  26  27
ENDBRANCH   7  26
BRANCH   2  42
ATOM     42  O2  NP6 d          -3.224 -11.056  11.949  0.00  0.00    -0.390 OA
ATOM     43  H11 NP6 d          -2.668 -11.770  12.237  0.00  0.00     0.210 HD
ENDBRANCH   2  42
BRANCH   4  44
ATOM     44  C9  NP6 d          -1.888 -13.029   7.542  0.00  0.00     0.044 C 
ATOM     45  H15 NP6 d          -1.207 -12.329   7.035  0.00  0.00     0.078 H 
ATOM     46  H16 NP6 d          -2.459 -13.593   6.791  0.00  0.00     0.078 H 
BRANCH  44  47
ATOM     47  O4  NP6 d          -1.122 -13.938   8.324  0.00  0.00    -0.398 OA
ATOM     48  H17 NP6 d          -1.300 -13.788   9.246  0.00  0.00     0.209 HD
ENDBRANCH  44  47
ENDBRANCH   4  44
BRANCH   3  49
ATOM     49  O3  NP6 d          -1.215 -11.562  10.028  0.00  0.00    -0.390 OA
ATOM     50  H13 NP6 d          -0.685 -12.098  10.605  0.00  0.00     0.210 HD
ENDBRANCH   3  49
TORSDOF 11
ENDMDL
MODEL 9
REMARK VINA RESULT:      -5.9      2.402      6.409
REMARK  11 active torsions:
REMARK  status: ('A' for Active; 'I' for Inactive)
REMARK    1  A    between atoms: C2_1  and  C1_2 
REMARK    2  A    between atoms: C1_2  and  C3_3 
REMARK    3  A    between atoms: C3_3  and  C4_4 
REMARK       I    between atoms: C4_4  and  N1_6 
REMARK    4  A    between atoms: N1_6  and  C5_7 
REMARK    5  A    between atoms: C6_8  and  O2_9 
REMARK    6  A    between atoms: C7_10  and  O3_11 
REMARK    7  A    between atoms: C8_12  and  C9_13 
REMARK    8  A    between atoms: C9_13  and  O4_14 
REMARK    9  A    between atoms: N2_17  and  O6_18 
REMARK   10  A    between atoms: O6_18  and  C11_19 
REMARK       I    between atoms: C11_19  and  N3_21 
REMARK   11  A    between atoms: N3_21  and  C12_22 
ROOT
ATOM      1  C5  NP6 d          -4.658 -11.332   8.673  0.00  0.00     0.105 C 
ATOM      2  C6  NP6 d          -4.301 -10.616   9.987  0.00  0.00     0.089 C 
ATOM      3  C7  NP6 d          -5.045  -9.295  10.106  0.00  0.00     0.090 C 
ATOM      4  C8  NP6 d          -6.541  -9.598  10.146  0.00  0.00     0.094 C 
ATOM      5  O5  NP6 d          -6.955 -10.230   8.943  0.00  0.00    -0.324 OA
ATOM      6  C10 NP6 d          -6.035 -10.870   8.149  0.00  0.00     0.194 C 
ATOM      7  N2  NP6 d          -6.372 -11.058   6.873  0.00  0.00    -0.100 NA
ATOM      8  H9  NP6 d          -3.911 -11.034   7.923  0.00  0.00     0.090 H 
ATOM      9  H10 NP6 d          -4.588 -11.260  10.832  0.00  0.00     0.090 H 
ATOM     10  H12 NP6 d          -4.805  -8.650   9.248  0.00  0.00     0.091 H 
ATOM     11  H14 NP6 d          -6.702 -10.292  10.984  0.00  0.00     0.091 H 
ENDROOT
BRANCH   1  12
ATOM     12  N1  NP6 d          -4.563 -12.816   8.818  0.00  0.00    -0.346 N 
ATOM     13  C4  NP6 d          -3.445 -13.546   8.703  0.00  0.00     0.218 C 
ATOM     14  O1  NP6 d          -2.326 -13.082   8.458  0.00  0.00    -0.274 OA
ATOM     15  H8  NP6 d          -5.409 -13.309   9.018  0.00  0.00     0.163 HD
BRANCH  13  16
ATOM     16  C3  NP6 d          -3.644 -15.067   8.884  0.00  0.00     0.009 C 
ATOM     17  H6  NP6 d          -2.683 -15.585   8.748  0.00  0.00     0.047 H 
ATOM     18  H7  NP6 d          -4.031 -15.272   9.893  0.00  0.00     0.047 H 
BRANCH  16  19
ATOM     19  C1  NP6 d          -4.641 -15.561   7.847  0.00  0.00    -0.061 C 
ATOM     20  H4  NP6 d          -4.883 -16.612   8.063  0.00  0.00     0.033 H 
ATOM     21  H5  NP6 d          -5.555 -14.953   7.919  0.00  0.00     0.033 H 
BRANCH  19  22
ATOM     22  C2  NP6 d          -4.101 -15.466   6.425  0.00  0.00    -0.076 C 
ATOM     23  H1  NP6 d          -3.036 -15.741   6.419  0.00  0.00     0.027 H 
ATOM     24  H2  NP6 d          -4.217 -14.436   6.057  0.00  0.00     0.027 H 
ATOM     25  H3  NP6 d          -4.661 -16.152   5.774  0.00  0.00     0.027 H 
ENDBRANCH  19  22
ENDBRANCH  16  19
ENDBRANCH  13  16
ENDBRANCH   1  12
BRANCH   7  26
ATOM     26  O6  NP6 d          -7.585 -10.591   6.425  0.00  0.00    -0.153 OA
BRANCH  26  27
ATOM     27  C11 NP6 d          -8.668 -11.345   6.843  0.00  0.00     0.389 C 
ATOM     28  O7  NP6 d          -9.786 -10.822   6.920  0.00  0.00    -0.236 OA
ATOM     29  N3  NP6 d          -8.441 -12.649   7.132  0.00  0.00    -0.301 N 
ATOM     30  H18 NP6 d          -7.512 -12.970   6.944  0.00  0.00     0.171 HD
BRANCH  29  31
ATOM     31  C12 NP6 d          -9.280 -13.587   7.638  0.00  0.00     0.036 A 
ATOM     32  C13 NP6 d          -9.197 -13.871   9.006  0.00  0.00    -0.057 A 
ATOM     33  C14 NP6 d         -10.042 -14.808   9.611  0.00  0.00    -0.081 A 
ATOM     34  H19 NP6 d          -8.460 -13.354   9.611  0.00  0.00     0.086 H 
ATOM     35  C15 NP6 d         -11.002 -15.476   8.843  0.00  0.00    -0.083 A 
ATOM     36  H20 NP6 d          -9.953 -15.017  10.671  0.00  0.00     0.083 H 
ATOM     37  C16 NP6 d         -11.112 -15.186   7.481  0.00  0.00    -0.081 A 
ATOM     38  H21 NP6 d         -11.654 -16.212   9.300  0.00  0.00     0.083 H 
ATOM     39  C17 NP6 d         -10.259 -14.248   6.884  0.00  0.00    -0.057 A 
ATOM     40  H22 NP6 d         -11.863 -15.689   6.883  0.00  0.00     0.083 H 
ATOM     41  H23 NP6 d         -10.358 -14.032   5.826  0.00  0.00     0.086 H 
ENDBRANCH  29  31
ENDBRANCH  26  27
ENDBRANCH   7  26
BRANCH   2  42
ATOM     42  O2  NP6 d          -2.902 -10.387  10.035  0.00  0.00    -0.390 OA
ATOM     43  H11 NP6 d          -2.466 -10.968   9.424  0.00  0.00     0.210 HD
ENDBRANCH   2  42
BRANCH   4  44
ATOM     44  C9  NP6 d          -7.486  -8.388  10.353  0.00  0.00     0.044 C 
ATOM     45  H15 NP6 d          -7.636  -7.879   9.390  0.00  0.00     0.078 H 
ATOM     46  H16 NP6 d          -7.027  -7.691  11.069  0.00  0.00     0.078 H 
BRANCH  44  47
ATOM     47  O4  NP6 d          -8.746  -8.811  10.858  0.00  0.00    -0.398 OA
ATOM     48  H17 NP6 d          -9.151  -9.407  10.238  0.00  0.00     0.209 HD
ENDBRANCH  44  47
ENDBRANCH   4  44
BRANCH   3  49
ATOM     49  O3  NP6 d          -4.699  -8.632  11.330  0.00  0.00    -0.390 OA
ATOM     50  H13 NP6 d          -3.838  -8.920  11.612  0.00  0.00     0.210 HD
ENDBRANCH   3  49
TORSDOF 11
ENDMDL
MODEL 10
REMARK VINA RESULT:      -5.8      3.124      5.956
REMARK  11 active torsions:
REMARK  status: ('A' for Active; 'I' for Inactive)
REMARK    1  A    between atoms: C2_1  and  C1_2 
REMARK    2  A    between atoms: C1_2  and  C3_3 
REMARK    3  A    between atoms: C3_3  and  C4_4 
REMARK       I    between atoms: C4_4  and  N1_6 
REMARK    4  A    between atoms: N1_6  and  C5_7 
REMARK    5  A    between atoms: C6_8  and  O2_9 
REMARK    6  A    between atoms: C7_10  and  O3_11 
REMARK    7  A    between atoms: C8_12  and  C9_13 
REMARK    8  A    between atoms: C9_13  and  O4_14 
REMARK    9  A    between atoms: N2_17  and  O6_18 
REMARK   10  A    between atoms: O6_18  and  C11_19 
REMARK       I    between atoms: C11_19  and  N3_21 
REMARK   11  A    between atoms: N3_21  and  C12_22 
ROOT
ATOM      1  C5  NP6 d          -7.581 -10.945   7.713  0.00  0.00     0.105 C 
ATOM      2  C6  NP6 d          -9.006 -11.053   7.143  0.00  0.00     0.089 C 
ATOM      3  C7  NP6 d          -9.322 -12.483   6.734  0.00  0.00     0.090 C 
ATOM      4  C8  NP6 d          -9.267 -13.355   7.986  0.00  0.00     0.094 C 
ATOM      5  O5  NP6 d          -7.963 -13.336   8.551  0.00  0.00    -0.324 OA
ATOM      6  C10 NP6 d          -7.101 -12.307   8.260  0.00  0.00     0.194 C 
ATOM      7  N2  NP6 d          -5.803 -12.542   8.446  0.00  0.00    -0.100 NA
ATOM      8  H9  NP6 d          -6.914 -10.679   6.880  0.00  0.00     0.090 H 
ATOM      9  H10 NP6 d          -9.723 -10.741   7.917  0.00  0.00     0.090 H 
ATOM     10  H12 NP6 d          -8.591 -12.831   5.989  0.00  0.00     0.091 H 
ATOM     11  H14 NP6 d          -9.972 -12.918   8.708  0.00  0.00     0.091 H 
ENDROOT
BRANCH   1  12
ATOM     12  N1  NP6 d          -7.479  -9.848   8.722  0.00  0.00    -0.346 N 
ATOM     13  C4  NP6 d          -8.101  -9.812   9.908  0.00  0.00     0.218 C 
ATOM     14  O1  NP6 d          -8.854 -10.695  10.333  0.00  0.00    -0.274 OA
ATOM     15  H8  NP6 d          -6.895  -9.071   8.491  0.00  0.00     0.163 HD
BRANCH  13  16
ATOM     16  C3  NP6 d          -7.828  -8.541  10.743  0.00  0.00     0.009 C 
ATOM     17  H6  NP6 d          -8.640  -7.816  10.588  0.00  0.00     0.047 H 
ATOM     18  H7  NP6 d          -7.770  -8.805  11.809  0.00  0.00     0.047 H 
BRANCH  16  19
ATOM     19  C1  NP6 d          -6.508  -7.932  10.297  0.00  0.00    -0.061 C 
ATOM     20  H4  NP6 d          -6.453  -7.976   9.199  0.00  0.00     0.033 H 
ATOM     21  H5  NP6 d          -6.476  -6.882  10.624  0.00  0.00     0.033 H 
BRANCH  19  22
ATOM     22  C2  NP6 d          -5.302  -8.661  10.876  0.00  0.00    -0.076 C 
ATOM     23  H1  NP6 d          -5.030  -8.210  11.842  0.00  0.00     0.027 H 
ATOM     24  H2  NP6 d          -4.454  -8.578  10.180  0.00  0.00     0.027 H 
ATOM     25  H3  NP6 d          -5.551  -9.722  11.024  0.00  0.00     0.027 H 
ENDBRANCH  19  22
ENDBRANCH  16  19
ENDBRANCH  13  16
ENDBRANCH   1  12
BRANCH   7  26
ATOM     26  O6  NP6 d          -5.403 -13.782   8.887  0.00  0.00    -0.153 OA
BRANCH  26  27
ATOM     27  C11 NP6 d          -4.590 -14.461   7.997  0.00  0.00     0.389 C 
ATOM     28  O7  NP6 d          -4.105 -15.553   8.319  0.00  0.00    -0.236 OA
ATOM     29  N3  NP6 d          -4.381 -13.888   6.786  0.00  0.00    -0.301 N 
ATOM     30  H18 NP6 d          -4.901 -13.051   6.618  0.00  0.00     0.171 HD
BRANCH  29  31
ATOM     31  C12 NP6 d          -3.575 -14.278   5.768  0.00  0.00     0.036 A 
ATOM     32  C13 NP6 d          -2.239 -13.859   5.792  0.00  0.00    -0.057 A 
ATOM     33  C14 NP6 d          -1.336 -14.235   4.792  0.00  0.00    -0.081 A 
ATOM     34  H19 NP6 d          -1.897 -13.228   6.605  0.00  0.00     0.086 H 
ATOM     35  C15 NP6 d          -1.764 -15.056   3.742  0.00  0.00    -0.083 A 
ATOM     36  H20 NP6 d          -0.309 -13.892   4.829  0.00  0.00     0.083 H 
ATOM     37  C16 NP6 d          -3.088 -15.500   3.716  0.00  0.00    -0.081 A 
ATOM     38  H21 NP6 d          -1.075 -15.344   2.957  0.00  0.00     0.083 H 
ATOM     39  C17 NP6 d          -3.986 -15.115   4.721  0.00  0.00    -0.057 A 
ATOM     40  H22 NP6 d          -3.423 -16.147   2.914  0.00  0.00     0.083 H 
ATOM     41  H23 NP6 d          -5.010 -15.470   4.689  0.00  0.00     0.086 H 
ENDBRANCH  29  31
ENDBRANCH  26  27
ENDBRANCH   7  26
BRANCH   2  42
ATOM     42  O2  NP6 d          -9.133 -10.193   6.022  0.00  0.00    -0.390 OA
ATOM     43  H11 NP6 d          -9.605 -10.642   5.331  0.00  0.00     0.210 HD
ENDBRANCH   2  42
BRANCH   4  44
ATOM     44  C9  NP6 d          -9.645 -14.846   7.807  0.00  0.00     0.044 C 
ATOM     45  H15 NP6 d          -9.434 -15.387   8.741  0.00  0.00     0.078 H 
ATOM     46  H16 NP6 d          -9.044 -15.275   6.992  0.00  0.00     0.078 H 
BRANCH  44  47
ATOM     47  O4  NP6 d         -11.024 -14.985   7.490  0.00  0.00    -0.398 OA
ATOM     48  H17 NP6 d         -11.540 -14.450   8.084  0.00  0.00     0.209 HD
ENDBRANCH  44  47
ENDBRANCH   4  44
BRANCH   3  49
ATOM     49  O3  NP6 d         -10.649 -12.571   6.197  0.00  0.00    -0.390 OA
ATOM     50  H13 NP6 d         -10.640 -13.118   5.420  0.00  0.00     0.210 HD
ENDBRANCH   3  49
TORSDOF 11
ENDMDL
