MODEL 1
REMARK VINA RESULT:      -8.5      0.000      0.000
REMARK  2 active torsions:
REMARK  status: ('A' for Active; 'I' for Inactive)
REMARK    1  A    between atoms: CG_8  and  CA_2 
REMARK    2  A    between atoms: NM_14  and  CG_8 
ROOT
ATOM      1  CG  MOL d          -9.231 -27.213 -14.555  0.00  0.00     0.154 C 
ATOM      2  CH  MOL d          -9.577 -26.532 -15.965  0.00  0.00    -0.029 C 
ATOM      3  CI  MOL d         -10.681 -27.351 -16.616  0.00  0.00    -0.062 C 
ATOM      4  CJ  MOL d         -12.005 -27.195 -15.838  0.00  0.00    -0.065 C 
ATOM      5  CK  MOL d         -11.802 -27.568 -14.357  0.00  0.00    -0.062 C 
ATOM      6  CL  MOL d         -10.562 -26.879 -13.769  0.00  0.00    -0.029 C 
ATOM      7  H8  MOL d          -8.684 -26.528 -16.608  0.00  0.00     0.037 H 
ATOM      8  H9  MOL d          -9.921 -25.499 -15.808  0.00  0.00     0.037 H 
ATOM      9  H10 MOL d         -10.389 -28.411 -16.623  0.00  0.00     0.033 H 
ATOM     10  H11 MOL d         -10.826 -27.004 -17.651  0.00  0.00     0.033 H 
ATOM     11  H12 MOL d         -12.765 -27.858 -16.279  0.00  0.00     0.033 H 
ATOM     12  H13 MOL d         -12.345 -26.151 -15.907  0.00  0.00     0.033 H 
ATOM     13  H14 MOL d         -11.678 -28.658 -14.276  0.00  0.00     0.033 H 
ATOM     14  H15 MOL d         -12.689 -27.257 -13.785  0.00  0.00     0.033 H 
ATOM     15  H16 MOL d         -10.720 -25.791 -13.796  0.00  0.00     0.037 H 
ATOM     16  H17 MOL d         -10.443 -27.206 -12.725  0.00  0.00     0.037 H 
ENDROOT
BRANCH   1  17
ATOM     17  NM  MOL d          -8.126 -26.358 -13.841  0.00  0.00    -0.058 N 
ATOM     18  CN  MOL d          -7.362 -27.098 -12.703  0.00  0.00     0.085 C 
ATOM     19  CO  MOL d          -6.302 -26.206 -12.032  0.00  0.00    -0.042 C 
ATOM     20  H19 MOL d          -8.088 -27.419 -11.941  0.00  0.00     0.076 H 
ATOM     21  H20 MOL d          -6.862 -27.981 -13.129  0.00  0.00     0.076 H 
ATOM     22  CP  MOL d          -5.317 -25.594 -13.029  0.00  0.00    -0.062 C 
ATOM     23  H21 MOL d          -6.815 -25.391 -11.501  0.00  0.00     0.035 H 
ATOM     24  H22 MOL d          -5.738 -26.815 -11.311  0.00  0.00     0.035 H 
ATOM     25  CQ  MOL d          -6.116 -24.825 -14.100  0.00  0.00    -0.042 C 
ATOM     26  H1  MOL d          -4.640 -24.904 -12.504  0.00  0.00     0.033 H 
ATOM     27  H2  MOL d          -4.729 -26.392 -13.506  0.00  0.00     0.033 H 
ATOM     28  CR  MOL d          -7.135 -25.689 -14.808  0.00  0.00     0.085 C 
ATOM     29  H23 MOL d          -5.411 -24.429 -14.848  0.00  0.00     0.035 H 
ATOM     30  H24 MOL d          -6.642 -23.989 -13.614  0.00  0.00     0.035 H 
ATOM     31  H25 MOL d          -7.700 -25.061 -15.511  0.00  0.00     0.076 H 
ATOM     32  H26 MOL d          -6.603 -26.475 -15.363  0.00  0.00     0.076 H 
ATOM     33  H18 MOL d          -8.625 -25.606 -13.392  0.00  0.00     0.281 HD
ENDBRANCH   1  17
BRANCH   1  34
ATOM     34  CA  MOL d          -8.844 -28.765 -14.658  0.00  0.00    -0.022 A 
ATOM     35  CF  MOL d          -7.515 -29.178 -15.085  0.00  0.00    -0.074 A 
ATOM     36  CE  MOL d          -7.134 -30.547 -15.165  0.00  0.00    -0.082 A 
ATOM     37  H7  MOL d          -6.791 -28.417 -15.351  0.00  0.00     0.084 H 
ATOM     38  CD  MOL d          -8.016 -31.557 -14.827  0.00  0.00    -0.083 A 
ATOM     39  H6  MOL d          -6.135 -30.802 -15.496  0.00  0.00     0.083 H 
ATOM     40  CC  MOL d          -9.352 -31.176 -14.404  0.00  0.00    -0.082 A 
ATOM     41  H5  MOL d          -7.720 -32.598 -14.877  0.00  0.00     0.083 H 
ATOM     42  CB  MOL d          -9.758 -29.798 -14.321  0.00  0.00    -0.074 A 
ATOM     43  H4  MOL d         -10.064 -31.952 -14.144  0.00  0.00     0.083 H 
ATOM     44  H3  MOL d         -10.762 -29.548 -13.999  0.00  0.00     0.084 H 
ENDBRANCH   1  34
TORSDOF 2
ENDMDL
MODEL 2
REMARK VINA RESULT:      -8.4      1.107      1.602
REMARK  2 active torsions:
REMARK  status: ('A' for Active; 'I' for Inactive)
REMARK    1  A    between atoms: CG_8  and  CA_2 
REMARK    2  A    between atoms: NM_14  and  CG_8 
ROOT
ATOM      1  CG  MOL d          -9.534 -27.779 -14.278  0.00  0.00     0.154 C 
ATOM      2  CH  MOL d          -9.510 -27.079 -15.720  0.00  0.00    -0.029 C 
ATOM      3  CI  MOL d         -10.844 -27.361 -16.394  0.00  0.00    -0.062 C 
ATOM      4  CJ  MOL d         -11.985 -26.607 -15.678  0.00  0.00    -0.065 C 
ATOM      5  CK  MOL d         -12.005 -26.964 -14.179  0.00  0.00    -0.062 C 
ATOM      6  CL  MOL d         -10.603 -26.862 -13.559  0.00  0.00    -0.029 C 
ATOM      7  H8  MOL d          -8.690 -27.494 -16.325  0.00  0.00     0.037 H 
ATOM      8  H9  MOL d          -9.370 -25.993 -15.608  0.00  0.00     0.037 H 
ATOM      9  H10 MOL d         -11.046 -28.441 -16.358  0.00  0.00     0.033 H 
ATOM     10  H11 MOL d         -10.796 -27.032 -17.444  0.00  0.00     0.033 H 
ATOM     11  H12 MOL d         -12.948 -26.889 -16.131  0.00  0.00     0.033 H 
ATOM     12  H13 MOL d         -11.831 -25.524 -15.791  0.00  0.00     0.033 H 
ATOM     13  H14 MOL d         -12.373 -27.994 -14.062  0.00  0.00     0.033 H 
ATOM     14  H15 MOL d         -12.679 -26.272 -13.655  0.00  0.00     0.033 H 
ATOM     15  H16 MOL d         -10.268 -25.816 -13.624  0.00  0.00     0.037 H 
ATOM     16  H17 MOL d         -10.667 -27.162 -12.503  0.00  0.00     0.037 H 
ENDROOT
BRANCH   1  17
ATOM     17  NM  MOL d          -8.184 -27.462 -13.542  0.00  0.00    -0.058 N 
ATOM     18  CN  MOL d          -6.921 -27.499 -14.452  0.00  0.00     0.085 C 
ATOM     19  CO  MOL d          -5.629 -27.195 -13.673  0.00  0.00    -0.042 C 
ATOM     20  H19 MOL d          -6.837 -28.500 -14.899  0.00  0.00     0.076 H 
ATOM     21  H20 MOL d          -7.038 -26.749 -15.249  0.00  0.00     0.076 H 
ATOM     22  CP  MOL d          -5.693 -25.879 -12.898  0.00  0.00    -0.062 C 
ATOM     23  H21 MOL d          -5.449 -28.013 -12.961  0.00  0.00     0.035 H 
ATOM     24  H22 MOL d          -4.795 -27.141 -14.387  0.00  0.00     0.035 H 
ATOM     25  CQ  MOL d          -6.924 -25.914 -11.970  0.00  0.00    -0.042 C 
ATOM     26  H1  MOL d          -4.780 -25.758 -12.297  0.00  0.00     0.033 H 
ATOM     27  H2  MOL d          -5.783 -25.038 -13.601  0.00  0.00     0.033 H 
ATOM     28  CR  MOL d          -8.215 -26.166 -12.716  0.00  0.00     0.085 C 
ATOM     29  H23 MOL d          -7.001 -24.946 -11.452  0.00  0.00     0.035 H 
ATOM     30  H24 MOL d          -6.784 -26.716 -11.230  0.00  0.00     0.035 H 
ATOM     31  H25 MOL d          -9.035 -26.234 -11.986  0.00  0.00     0.076 H 
ATOM     32  H26 MOL d          -8.399 -25.321 -13.395  0.00  0.00     0.076 H 
ATOM     33  H18 MOL d          -8.066 -28.211 -12.879  0.00  0.00     0.281 HD
ENDBRANCH   1  17
BRANCH   1  34
ATOM     34  CA  MOL d          -9.864 -29.347 -14.320  0.00  0.00    -0.022 A 
ATOM     35  CF  MOL d          -8.797 -30.334 -14.387  0.00  0.00    -0.074 A 
ATOM     36  CE  MOL d          -9.058 -31.734 -14.402  0.00  0.00    -0.082 A 
ATOM     37  H7  MOL d          -7.770 -29.993 -14.426  0.00  0.00     0.084 H 
ATOM     38  CD  MOL d         -10.349 -32.223 -14.344  0.00  0.00    -0.083 A 
ATOM     39  H6  MOL d          -8.228 -32.428 -14.461  0.00  0.00     0.083 H 
ATOM     40  CC  MOL d         -11.436 -31.261 -14.284  0.00  0.00    -0.082 A 
ATOM     41  H5  MOL d         -10.545 -33.289 -14.344  0.00  0.00     0.083 H 
ATOM     42  CB  MOL d         -11.194 -29.843 -14.271  0.00  0.00    -0.074 A 
ATOM     43  H4  MOL d         -12.458 -31.622 -14.247  0.00  0.00     0.083 H 
ATOM     44  H3  MOL d         -12.028 -29.152 -14.223  0.00  0.00     0.084 H 
ENDBRANCH   1  34
TORSDOF 2
ENDMDL
MODEL 3
REMARK VINA RESULT:      -7.9      1.010      4.549
REMARK  2 active torsions:
REMARK  status: ('A' for Active; 'I' for Inactive)
REMARK    1  A    between atoms: CG_8  and  CA_2 
REMARK    2  A    between atoms: NM_14  and  CG_8 
ROOT
ATOM      1  CG  MOL d          -7.925 -26.780 -13.911  0.00  0.00     0.154 C 
ATOM      2  CH  MOL d          -7.898 -26.366 -12.362  0.00  0.00    -0.029 C 
ATOM      3  CI  MOL d          -6.511 -26.681 -11.823  0.00  0.00    -0.062 C 
ATOM      4  CJ  MOL d          -5.460 -25.732 -12.439  0.00  0.00    -0.065 C 
ATOM      5  CK  MOL d          -5.514 -25.801 -13.978  0.00  0.00    -0.062 C 
ATOM      6  CL  MOL d          -6.955 -25.677 -14.495  0.00  0.00    -0.029 C 
ATOM      7  H8  MOL d          -8.655 -26.940 -11.808  0.00  0.00     0.037 H 
ATOM      8  H9  MOL d          -8.105 -25.290 -12.259  0.00  0.00     0.037 H 
ATOM      9  H10 MOL d          -6.252 -27.720 -12.075  0.00  0.00     0.033 H 
ATOM     10  H11 MOL d          -6.512 -26.558 -10.729  0.00  0.00     0.033 H 
ATOM     11  H12 MOL d          -4.457 -26.031 -12.097  0.00  0.00     0.033 H 
ATOM     12  H13 MOL d          -5.666 -24.702 -12.114  0.00  0.00     0.033 H 
ATOM     13  H14 MOL d          -5.097 -26.764 -14.307  0.00  0.00     0.033 H 
ATOM     14  H15 MOL d          -4.913 -24.980 -14.394  0.00  0.00     0.033 H 
ATOM     15  H16 MOL d          -7.343 -24.686 -14.215  0.00  0.00     0.037 H 
ATOM     16  H17 MOL d          -6.941 -25.769 -15.591  0.00  0.00     0.037 H 
ENDROOT
BRANCH   1  17
ATOM     17  NM  MOL d          -9.333 -26.421 -14.504  0.00  0.00    -0.058 N 
ATOM     18  CN  MOL d          -9.476 -26.657 -16.037  0.00  0.00     0.085 C 
ATOM     19  CO  MOL d         -10.871 -26.275 -16.561  0.00  0.00    -0.042 C 
ATOM     20  H19 MOL d          -8.722 -26.049 -16.559  0.00  0.00     0.076 H 
ATOM     21  H20 MOL d          -9.298 -27.722 -16.248  0.00  0.00     0.076 H 
ATOM     22  CP  MOL d         -12.005 -26.967 -15.805  0.00  0.00    -0.062 C 
ATOM     23  H21 MOL d         -10.996 -25.187 -16.463  0.00  0.00     0.035 H 
ATOM     24  H22 MOL d         -10.934 -26.556 -17.623  0.00  0.00     0.035 H 
ATOM     25  CQ  MOL d         -11.855 -26.657 -14.302  0.00  0.00    -0.042 C 
ATOM     26  H1  MOL d         -12.974 -26.592 -16.166  0.00  0.00     0.033 H 
ATOM     27  H2  MOL d         -11.949 -28.054 -15.966  0.00  0.00     0.033 H 
ATOM     28  CR  MOL d         -10.508 -27.064 -13.749  0.00  0.00     0.085 C 
ATOM     29  H23 MOL d         -12.639 -27.199 -13.751  0.00  0.00     0.035 H 
ATOM     30  H24 MOL d         -11.983 -25.575 -14.152  0.00  0.00     0.035 H 
ATOM     31  H25 MOL d         -10.456 -26.760 -12.693  0.00  0.00     0.076 H 
ATOM     32  H26 MOL d         -10.415 -28.158 -13.821  0.00  0.00     0.076 H 
ATOM     33  H18 MOL d          -9.428 -25.427 -14.370  0.00  0.00     0.281 HD
ENDBRANCH   1  17
BRANCH   1  34
ATOM     34  CA  MOL d          -7.507 -28.303 -14.186  0.00  0.00    -0.022 A 
ATOM     35  CF  MOL d          -8.393 -29.399 -13.824  0.00  0.00    -0.074 A 
ATOM     36  CE  MOL d          -8.060 -30.760 -14.075  0.00  0.00    -0.082 A 
ATOM     37  H7  MOL d          -9.339 -29.172 -13.346  0.00  0.00     0.084 H 
ATOM     38  CD  MOL d          -6.871 -31.106 -14.691  0.00  0.00    -0.083 A 
ATOM     39  H6  MOL d          -8.751 -31.540 -13.779  0.00  0.00     0.083 H 
ATOM     40  CC  MOL d          -5.963 -30.033 -15.058  0.00  0.00    -0.082 A 
ATOM     41  H5  MOL d          -6.625 -32.141 -14.892  0.00  0.00     0.083 H 
ATOM     42  CB  MOL d          -6.280 -28.652 -14.809  0.00  0.00    -0.074 A 
ATOM     43  H4  MOL d          -5.020 -30.280 -15.534  0.00  0.00     0.083 H 
ATOM     44  H3  MOL d          -5.580 -27.875 -15.097  0.00  0.00     0.084 H 
ENDBRANCH   1  34
TORSDOF 2
ENDMDL
MODEL 4
REMARK VINA RESULT:      -7.5      1.205      4.516
REMARK  2 active torsions:
REMARK  status: ('A' for Active; 'I' for Inactive)
REMARK    1  A    between atoms: CG_8  and  CA_2 
REMARK    2  A    between atoms: NM_14  and  CG_8 
ROOT
ATOM      1  CG  MOL d          -9.381 -28.104 -14.879  0.00  0.00     0.154 C 
ATOM      2  CH  MOL d         -10.733 -28.453 -14.091  0.00  0.00    -0.029 C 
ATOM      3  CI  MOL d         -11.475 -27.149 -13.843  0.00  0.00    -0.062 C 
ATOM      4  CJ  MOL d         -12.006 -26.565 -15.171  0.00  0.00    -0.065 C 
ATOM      5  CK  MOL d         -10.852 -26.396 -16.179  0.00  0.00    -0.062 C 
ATOM      6  CL  MOL d          -9.993 -27.665 -16.269  0.00  0.00    -0.029 C 
ATOM      7  H8  MOL d         -10.493 -28.935 -13.131  0.00  0.00     0.037 H 
ATOM      8  H9  MOL d         -11.355 -29.129 -14.696  0.00  0.00     0.037 H 
ATOM      9  H10 MOL d         -10.789 -26.425 -13.379  0.00  0.00     0.033 H 
ATOM     10  H11 MOL d         -12.322 -27.337 -13.167  0.00  0.00     0.033 H 
ATOM     11  H12 MOL d         -12.466 -25.584 -14.978  0.00  0.00     0.033 H 
ATOM     12  H13 MOL d         -12.758 -27.247 -15.591  0.00  0.00     0.033 H 
ATOM     13  H14 MOL d         -10.218 -25.556 -15.859  0.00  0.00     0.033 H 
ATOM     14  H15 MOL d         -11.274 -26.178 -17.172  0.00  0.00     0.033 H 
ATOM     15  H16 MOL d         -10.620 -28.486 -16.649  0.00  0.00     0.037 H 
ATOM     16  H17 MOL d          -9.168 -27.479 -16.972  0.00  0.00     0.037 H 
ENDROOT
BRANCH   1  17
ATOM     17  NM  MOL d          -8.619 -29.441 -15.188  0.00  0.00    -0.058 N 
ATOM     18  CN  MOL d          -7.072 -29.365 -15.020  0.00  0.00     0.085 C 
ATOM     19  CO  MOL d          -6.380 -30.699 -15.349  0.00  0.00    -0.042 C 
ATOM     20  H19 MOL d          -6.682 -28.588 -15.694  0.00  0.00     0.076 H 
ATOM     21  H20 MOL d          -6.843 -29.096 -13.978  0.00  0.00     0.076 H 
ATOM     22  CP  MOL d          -6.947 -31.879 -14.559  0.00  0.00    -0.062 C 
ATOM     23  H21 MOL d          -6.506 -30.903 -16.423  0.00  0.00     0.035 H 
ATOM     24  H22 MOL d          -5.310 -30.604 -15.117  0.00  0.00     0.035 H 
ATOM     25  CQ  MOL d          -8.469 -31.948 -14.804  0.00  0.00    -0.042 C 
ATOM     26  H1  MOL d          -6.475 -32.813 -14.897  0.00  0.00     0.033 H 
ATOM     27  H2  MOL d          -6.751 -31.735 -13.487  0.00  0.00     0.033 H 
ATOM     28  CR  MOL d          -9.181 -30.664 -14.445  0.00  0.00     0.085 C 
ATOM     29  H23 MOL d          -8.886 -32.764 -14.193  0.00  0.00     0.035 H 
ATOM     30  H24 MOL d          -8.644 -32.161 -15.869  0.00  0.00     0.035 H 
ATOM     31  H25 MOL d         -10.246 -30.770 -14.699  0.00  0.00     0.076 H 
ATOM     32  H26 MOL d          -9.077 -30.495 -13.363  0.00  0.00     0.076 H 
ATOM     33  H18 MOL d          -8.779 -29.614 -16.168  0.00  0.00     0.281 HD
ENDBRANCH   1  17
BRANCH   1  34
ATOM     34  CA  MOL d          -8.457 -27.021 -14.142  0.00  0.00    -0.022 A 
ATOM     35  CF  MOL d          -8.154 -27.137 -12.724  0.00  0.00    -0.074 A 
ATOM     36  CE  MOL d          -7.319 -26.204 -12.047  0.00  0.00    -0.082 A 
ATOM     37  H7  MOL d          -8.577 -27.962 -12.164  0.00  0.00     0.084 H 
ATOM     38  CD  MOL d          -6.744 -25.139 -12.715  0.00  0.00    -0.083 A 
ATOM     39  H6  MOL d          -7.130 -26.331 -10.987  0.00  0.00     0.083 H 
ATOM     40  CC  MOL d          -7.035 -24.992 -14.131  0.00  0.00    -0.082 A 
ATOM     41  H5  MOL d          -6.099 -24.437 -12.201  0.00  0.00     0.083 H 
ATOM     42  CB  MOL d          -7.879 -25.923 -14.833  0.00  0.00    -0.074 A 
ATOM     43  H4  MOL d          -6.603 -24.159 -14.675  0.00  0.00     0.083 H 
ATOM     44  H3  MOL d          -8.074 -25.786 -15.890  0.00  0.00     0.084 H 
ENDBRANCH   1  34
TORSDOF 2
ENDMDL
MODEL 5
REMARK VINA RESULT:      -7.2      1.458      4.754
REMARK  2 active torsions:
REMARK  status: ('A' for Active; 'I' for Inactive)
REMARK    1  A    between atoms: CG_8  and  CA_2 
REMARK    2  A    between atoms: NM_14  and  CG_8 
ROOT
ATOM      1  CG  MOL d          -8.370 -29.235 -14.747  0.00  0.00     0.154 C 
ATOM      2  CH  MOL d          -7.597 -30.138 -15.823  0.00  0.00    -0.029 C 
ATOM      3  CI  MOL d          -6.518 -30.915 -15.085  0.00  0.00    -0.062 C 
ATOM      4  CJ  MOL d          -7.148 -31.973 -14.155  0.00  0.00    -0.065 C 
ATOM      5  CK  MOL d          -8.148 -31.308 -13.189  0.00  0.00    -0.062 C 
ATOM      6  CL  MOL d          -9.111 -30.371 -13.934  0.00  0.00    -0.029 C 
ATOM      7  H8  MOL d          -7.139 -29.497 -16.591  0.00  0.00     0.037 H 
ATOM      8  H9  MOL d          -8.301 -30.837 -16.300  0.00  0.00     0.037 H 
ATOM      9  H10 MOL d          -5.917 -30.217 -14.484  0.00  0.00     0.033 H 
ATOM     10  H11 MOL d          -5.869 -31.418 -15.819  0.00  0.00     0.033 H 
ATOM     11  H12 MOL d          -6.354 -32.465 -13.573  0.00  0.00     0.033 H 
ATOM     12  H13 MOL d          -7.675 -32.723 -14.763  0.00  0.00     0.033 H 
ATOM     13  H14 MOL d          -7.590 -30.726 -12.441  0.00  0.00     0.033 H 
ATOM     14  H15 MOL d          -8.732 -32.090 -12.683  0.00  0.00     0.033 H 
ATOM     15  H16 MOL d          -9.709 -30.970 -14.636  0.00  0.00     0.037 H 
ATOM     16  H17 MOL d          -9.775 -29.896 -13.197  0.00  0.00     0.037 H 
ENDROOT
BRANCH   1  17
ATOM     17  NM  MOL d          -9.522 -28.457 -15.477  0.00  0.00    -0.058 N 
ATOM     18  CN  MOL d         -10.916 -28.558 -14.789  0.00  0.00     0.085 C 
ATOM     19  CO  MOL d         -12.005 -27.789 -15.556  0.00  0.00    -0.042 C 
ATOM     20  H19 MOL d         -11.205 -29.618 -14.731  0.00  0.00     0.076 H 
ATOM     21  H20 MOL d         -10.839 -28.142 -13.773  0.00  0.00     0.076 H 
ATOM     22  CP  MOL d         -11.639 -26.327 -15.812  0.00  0.00    -0.062 C 
ATOM     23  H21 MOL d         -12.168 -28.285 -16.525  0.00  0.00     0.035 H 
ATOM     24  H22 MOL d         -12.934 -27.820 -14.969  0.00  0.00     0.035 H 
ATOM     25  CQ  MOL d         -10.282 -26.281 -16.546  0.00  0.00    -0.042 C 
ATOM     26  H1  MOL d         -12.412 -25.854 -16.435  0.00  0.00     0.033 H 
ATOM     27  H2  MOL d         -11.560 -25.791 -14.855  0.00  0.00     0.033 H 
ATOM     28  CR  MOL d          -9.182 -26.992 -15.791  0.00  0.00     0.085 C 
ATOM     29  H23 MOL d          -9.992 -25.229 -16.682  0.00  0.00     0.035 H 
ATOM     30  H24 MOL d         -10.399 -26.760 -17.530  0.00  0.00     0.035 H 
ATOM     31  H25 MOL d          -8.266 -26.966 -16.400  0.00  0.00     0.076 H 
ATOM     32  H26 MOL d          -9.007 -26.461 -14.844  0.00  0.00     0.076 H 
ATOM     33  H18 MOL d          -9.624 -28.916 -16.369  0.00  0.00     0.281 HD
ENDBRANCH   1  17
BRANCH   1  34
ATOM     34  CA  MOL d          -7.413 -28.269 -13.899  0.00  0.00    -0.022 A 
ATOM     35  CF  MOL d          -6.015 -28.094 -14.262  0.00  0.00    -0.074 A 
ATOM     36  CE  MOL d          -5.146 -27.226 -13.542  0.00  0.00    -0.082 A 
ATOM     37  H7  MOL d          -5.621 -28.642 -15.110  0.00  0.00     0.084 H 
ATOM     38  CD  MOL d          -5.598 -26.496 -12.459  0.00  0.00    -0.083 A 
ATOM     39  H6  MOL d          -4.110 -27.137 -13.848  0.00  0.00     0.083 H 
ATOM     40  CC  MOL d          -6.988 -26.655 -12.067  0.00  0.00    -0.082 A 
ATOM     41  H5  MOL d          -4.938 -25.827 -11.920  0.00  0.00     0.083 H 
ATOM     42  CB  MOL d          -7.881 -27.530 -12.781  0.00  0.00    -0.074 A 
ATOM     43  H4  MOL d          -7.363 -26.099 -11.215  0.00  0.00     0.083 H 
ATOM     44  H3  MOL d          -8.913 -27.624 -12.463  0.00  0.00     0.084 H 
ENDBRANCH   1  34
TORSDOF 2
ENDMDL
MODEL 6
REMARK VINA RESULT:      -6.8      1.074      3.867
REMARK  2 active torsions:
REMARK  status: ('A' for Active; 'I' for Inactive)
REMARK    1  A    between atoms: CG_8  and  CA_2 
REMARK    2  A    between atoms: NM_14  and  CG_8 
ROOT
ATOM      1  CG  MOL d          -8.068 -28.652 -14.205  0.00  0.00     0.154 C 
ATOM      2  CH  MOL d          -8.223 -29.786 -13.081  0.00  0.00    -0.029 C 
ATOM      3  CI  MOL d          -8.881 -30.994 -13.730  0.00  0.00    -0.062 C 
ATOM      4  CJ  MOL d          -7.921 -31.658 -14.741  0.00  0.00    -0.065 C 
ATOM      5  CK  MOL d          -7.444 -30.626 -15.783  0.00  0.00    -0.062 C 
ATOM      6  CL  MOL d          -6.964 -29.331 -15.111  0.00  0.00    -0.029 C 
ATOM      7  H8  MOL d          -8.852 -29.414 -12.259  0.00  0.00     0.037 H 
ATOM      8  H9  MOL d          -7.233 -30.064 -12.690  0.00  0.00     0.037 H 
ATOM      9  H10 MOL d          -9.792 -30.671 -14.255  0.00  0.00     0.033 H 
ATOM     10  H11 MOL d          -9.146 -31.724 -12.950  0.00  0.00     0.033 H 
ATOM     11  H12 MOL d          -8.446 -32.477 -15.256  0.00  0.00     0.033 H 
ATOM     12  H13 MOL d          -7.051 -32.060 -14.204  0.00  0.00     0.033 H 
ATOM     13  H14 MOL d          -8.278 -30.391 -16.460  0.00  0.00     0.033 H 
ATOM     14  H15 MOL d          -6.614 -31.058 -16.360  0.00  0.00     0.033 H 
ATOM     15  H16 MOL d          -6.092 -29.565 -14.484  0.00  0.00     0.037 H 
ATOM     16  H17 MOL d          -6.671 -28.619 -15.897  0.00  0.00     0.037 H 
ENDROOT
BRANCH   1  17
ATOM     17  NM  MOL d          -7.348 -27.410 -13.570  0.00  0.00    -0.058 N 
ATOM     18  CN  MOL d          -6.524 -26.550 -14.574  0.00  0.00     0.085 C 
ATOM     19  CO  MOL d          -5.831 -25.357 -13.892  0.00  0.00    -0.042 C 
ATOM     20  H19 MOL d          -5.756 -27.188 -15.037  0.00  0.00     0.076 H 
ATOM     21  H20 MOL d          -7.202 -26.168 -15.351  0.00  0.00     0.076 H 
ATOM     22  CP  MOL d          -6.797 -24.477 -13.100  0.00  0.00    -0.062 C 
ATOM     23  H21 MOL d          -5.064 -25.743 -13.204  0.00  0.00     0.035 H 
ATOM     24  H22 MOL d          -5.351 -24.742 -14.667  0.00  0.00     0.035 H 
ATOM     25  CQ  MOL d          -7.546 -25.361 -12.082  0.00  0.00    -0.042 C 
ATOM     26  H1  MOL d          -6.236 -23.694 -12.569  0.00  0.00     0.033 H 
ATOM     27  H2  MOL d          -7.519 -24.008 -13.785  0.00  0.00     0.033 H 
ATOM     28  CR  MOL d          -8.274 -26.516 -12.730  0.00  0.00     0.085 C 
ATOM     29  H23 MOL d          -8.280 -24.738 -11.549  0.00  0.00     0.035 H 
ATOM     30  H24 MOL d          -6.817 -25.764 -11.363  0.00  0.00     0.035 H 
ATOM     31  H25 MOL d          -8.733 -27.129 -11.940  0.00  0.00     0.076 H 
ATOM     32  H26 MOL d          -9.061 -26.113 -13.384  0.00  0.00     0.076 H 
ATOM     33  H18 MOL d          -6.676 -27.797 -12.926  0.00  0.00     0.281 HD
ENDBRANCH   1  17
BRANCH   1  34
ATOM     34  CA  MOL d          -9.441 -28.266 -14.935  0.00  0.00    -0.022 A 
ATOM     35  CF  MOL d         -10.650 -29.046 -14.718  0.00  0.00    -0.074 A 
ATOM     36  CE  MOL d         -11.889 -28.714 -15.334  0.00  0.00    -0.082 A 
ATOM     37  H7  MOL d         -10.606 -29.909 -14.064  0.00  0.00     0.084 H 
ATOM     38  CD  MOL d         -12.004 -27.618 -16.169  0.00  0.00    -0.083 A 
ATOM     39  H6  MOL d         -12.759 -29.332 -15.147  0.00  0.00     0.083 H 
ATOM     40  CC  MOL d         -10.812 -26.823 -16.411  0.00  0.00    -0.082 A 
ATOM     41  H5  MOL d         -12.951 -27.360 -16.628  0.00  0.00     0.083 H 
ATOM     42  CB  MOL d          -9.549 -27.145 -15.800  0.00  0.00    -0.074 A 
ATOM     43  H4  MOL d         -10.876 -25.964 -17.069  0.00  0.00     0.083 H 
ATOM     44  H3  MOL d          -8.680 -26.529 -16.000  0.00  0.00     0.084 H 
ENDBRANCH   1  34
TORSDOF 2
ENDMDL
