MODEL 1
REMARK VINA RESULT:      -8.5      0.000      0.000
REMARK  9 active torsions:
REMARK  status: ('A' for Active; 'I' for Inactive)
REMARK    1  A    between atoms: CAH_1  and  CAG_2 
REMARK       I    between atoms: CAG_2  and  NAI_4 
REMARK    2  A    between atoms: NAI_4  and  CAB_5 
REMARK    3  A    between atoms: CAC_6  and  OAJ_7 
REMARK    4  A    between atoms: CAD_8  and  OAK_9 
REMARK    5  A    between atoms: CAE_10  and  CAF_11 
REMARK    6  A    between atoms: CAF_11  and  OAM_12 
REMARK    7  A    between atoms: NAY_15  and  OAQ_16 
REMARK    8  A    between atoms: OAQ_16  and  CAP_17 
REMARK       I    between atoms: CAP_17  and  NAO_19 
REMARK    9  A    between atoms: NAO_19  and  CAS_20 
ROOT
ATOM      1  CAB OAN d          33.078  42.370  21.412  0.00  0.00     0.105 C 
ATOM      2  CAC OAN d          32.505  42.671  22.831  0.00  0.00     0.089 C 
ATOM      3  CAD OAN d          31.054  42.242  22.950  0.00  0.00     0.090 C 
ATOM      4  CAE OAN d          30.980  40.718  22.744  0.00  0.00     0.094 C 
ATOM      5  OAL OAN d          31.432  40.424  21.397  0.00  0.00    -0.324 OA
ATOM      6  CAA OAN d          32.292  41.250  20.718  0.00  0.00     0.194 C 
ATOM      7  NAY OAN d          32.412  41.089  19.391  0.00  0.00    -0.100 NA
ATOM      8  H5  OAN d          32.974  43.277  20.798  0.00  0.00     0.090 H 
ATOM      9  H6  OAN d          33.094  42.098  23.564  0.00  0.00     0.090 H 
ATOM     10  H8  OAN d          30.462  42.746  22.173  0.00  0.00     0.091 H 
ATOM     11  H10 OAN d          31.692  40.275  23.456  0.00  0.00     0.091 H 
ENDROOT
BRANCH   1  12
ATOM     12  NAI OAN d          34.519  42.065  21.535  0.00  0.00    -0.347 N 
ATOM     13  CAG OAN d          35.029  41.122  22.342  0.00  0.00     0.214 C 
ATOM     14  OAN OAN d          34.357  40.358  23.046  0.00  0.00    -0.274 OA
ATOM     15  H4  OAN d          35.157  42.597  20.980  0.00  0.00     0.163 HD
BRANCH  13  16
ATOM     16  CAH OAN d          36.568  41.047  22.349  0.00  0.00    -0.003 C 
ATOM     17  H1  OAN d          36.934  41.126  23.383  0.00  0.00     0.040 H 
ATOM     18  H2  OAN d          36.977  41.875  21.751  0.00  0.00     0.040 H 
ATOM     19  H3  OAN d          36.890  40.088  21.917  0.00  0.00     0.040 H 
ENDBRANCH  13  16
ENDBRANCH   1  12
BRANCH   7  20
ATOM     20  OAQ OAN d          31.728  40.123  18.666  0.00  0.00    -0.153 OA
BRANCH  20  21
ATOM     21  CAP OAN d          30.546  40.569  18.153  0.00  0.00     0.389 C 
ATOM     22  OAR OAN d          30.222  40.240  17.003  0.00  0.00    -0.236 OA
ATOM     23  NAO OAN d          29.779  41.353  18.961  0.00  0.00    -0.301 N 
ATOM     24  H14 OAN d          30.118  41.539  19.883  0.00  0.00     0.171 HD
BRANCH  23  25
ATOM     25  CAS OAN d          28.573  41.909  18.602  0.00  0.00     0.036 A 
ATOM     26  CAT OAN d          28.462  43.184  17.992  0.00  0.00    -0.057 A 
ATOM     27  CAU OAN d          27.212  43.735  17.650  0.00  0.00    -0.081 A 
ATOM     28  H15 OAN d          29.363  43.749  17.784  0.00  0.00     0.086 H 
ATOM     29  CAV OAN d          26.046  43.015  17.915  0.00  0.00    -0.083 A 
ATOM     30  H16 OAN d          27.155  44.712  17.184  0.00  0.00     0.083 H 
ATOM     31  CAW OAN d          26.127  41.745  18.508  0.00  0.00    -0.081 A 
ATOM     32  H17 OAN d          25.079  43.436  17.663  0.00  0.00     0.083 H 
ATOM     33  CAX OAN d          27.378  41.203  18.839  0.00  0.00    -0.057 A 
ATOM     34  H18 OAN d          25.222  41.182  18.710  0.00  0.00     0.083 H 
ATOM     35  H19 OAN d          27.426  40.217  19.288  0.00  0.00     0.086 H 
ENDBRANCH  23  25
ENDBRANCH  20  21
ENDBRANCH   7  20
BRANCH   2  36
ATOM     36  OAJ OAN d          32.627  44.054  23.145  0.00  0.00    -0.390 OA
ATOM     37  H7  OAN d          32.351  44.572  22.397  0.00  0.00     0.210 HD
ENDBRANCH   2  36
BRANCH   4  38
ATOM     38  CAF OAN d          29.623  39.985  22.969  0.00  0.00     0.044 C 
ATOM     39  H11 OAN d          29.192  40.310  23.927  0.00  0.00     0.078 H 
ATOM     40  H12 OAN d          29.799  38.900  22.995  0.00  0.00     0.078 H 
BRANCH  38  41
ATOM     41  OAM OAN d          28.709  40.289  21.916  0.00  0.00    -0.398 OA
ATOM     42  H13 OAN d          28.387  41.176  22.023  0.00  0.00     0.209 HD
ENDBRANCH  38  41
ENDBRANCH   4  38
BRANCH   3  43
ATOM     43  OAK OAN d          30.531  42.590  24.227  0.00  0.00    -0.390 OA
ATOM     44  H9  OAN d          31.196  43.049  24.726  0.00  0.00     0.210 HD
ENDBRANCH   3  43
TORSDOF 9
ENDMDL
MODEL 2
REMARK VINA RESULT:      -8.1      1.518      1.646
REMARK  9 active torsions:
REMARK  status: ('A' for Active; 'I' for Inactive)
REMARK    1  A    between atoms: CAH_1  and  CAG_2 
REMARK       I    between atoms: CAG_2  and  NAI_4 
REMARK    2  A    between atoms: NAI_4  and  CAB_5 
REMARK    3  A    between atoms: CAC_6  and  OAJ_7 
REMARK    4  A    between atoms: CAD_8  and  OAK_9 
REMARK    5  A    between atoms: CAE_10  and  CAF_11 
REMARK    6  A    between atoms: CAF_11  and  OAM_12 
REMARK    7  A    between atoms: NAY_15  and  OAQ_16 
REMARK    8  A    between atoms: OAQ_16  and  CAP_17 
REMARK       I    between atoms: CAP_17  and  NAO_19 
REMARK    9  A    between atoms: NAO_19  and  CAS_20 
ROOT
ATOM      1  CAB OAN d          33.050  42.330  21.353  0.00  0.00     0.105 C 
ATOM      2  CAC OAN d          32.408  42.577  22.753  0.00  0.00     0.089 C 
ATOM      3  CAD OAN d          30.974  42.083  22.804  0.00  0.00     0.090 C 
ATOM      4  CAE OAN d          30.976  40.561  22.568  0.00  0.00     0.094 C 
ATOM      5  OAL OAN d          31.495  40.314  21.236  0.00  0.00    -0.324 OA
ATOM      6  CAA OAN d          32.343  41.190  20.607  0.00  0.00     0.194 C 
ATOM      7  NAY OAN d          32.524  41.060  19.284  0.00  0.00    -0.100 NA
ATOM      8  H5  OAN d          32.931  43.243  20.751  0.00  0.00     0.090 H 
ATOM      9  H6  OAN d          32.991  42.017  23.498  0.00  0.00     0.090 H 
ATOM     10  H8  OAN d          30.391  42.575  22.012  0.00  0.00     0.091 H 
ATOM     11  H10 OAN d          31.678  40.136  23.301  0.00  0.00     0.091 H 
ENDROOT
BRANCH   1  12
ATOM     12  NAI OAN d          34.497  42.086  21.530  0.00  0.00    -0.347 N 
ATOM     13  CAG OAN d          35.015  41.136  22.324  0.00  0.00     0.214 C 
ATOM     14  OAN OAN d          34.350  40.315  22.968  0.00  0.00    -0.274 OA
ATOM     15  H4  OAN d          35.133  42.668  21.024  0.00  0.00     0.163 HD
BRANCH  13  16
ATOM     16  CAH OAN d          36.554  41.132  22.397  0.00  0.00    -0.003 C 
ATOM     17  H1  OAN d          36.890  40.279  23.006  0.00  0.00     0.040 H 
ATOM     18  H2  OAN d          36.902  42.069  22.855  0.00  0.00     0.040 H 
ATOM     19  H3  OAN d          36.969  41.043  21.382  0.00  0.00     0.040 H 
ENDBRANCH  13  16
ENDBRANCH   1  12
BRANCH   7  20
ATOM     20  OAQ OAN d          31.913  40.079  18.514  0.00  0.00    -0.153 OA
BRANCH  20  21
ATOM     21  CAP OAN d          31.011  40.577  17.621  0.00  0.00     0.389 C 
ATOM     22  OAR OAN d          31.397  41.366  16.748  0.00  0.00    -0.236 OA
ATOM     23  NAO OAN d          29.722  40.154  17.745  0.00  0.00    -0.301 N 
ATOM     24  H14 OAN d          29.519  39.494  18.468  0.00  0.00     0.171 HD
BRANCH  23  25
ATOM     25  CAS OAN d          28.680  40.568  16.950  0.00  0.00     0.036 A 
ATOM     26  CAT OAN d          28.270  39.867  15.788  0.00  0.00    -0.057 A 
ATOM     27  CAU OAN d          27.208  40.323  14.983  0.00  0.00    -0.081 A 
ATOM     28  H15 OAN d          28.788  38.956  15.511  0.00  0.00     0.086 H 
ATOM     29  CAV OAN d          26.536  41.496  15.330  0.00  0.00    -0.083 A 
ATOM     30  H16 OAN d          26.914  39.767  14.100  0.00  0.00     0.083 H 
ATOM     31  CAW OAN d          26.912  42.204  16.482  0.00  0.00    -0.081 A 
ATOM     32  H17 OAN d          25.723  41.859  14.711  0.00  0.00     0.083 H 
ATOM     33  CAX OAN d          27.969  41.737  17.280  0.00  0.00    -0.057 A 
ATOM     34  H18 OAN d          26.388  43.113  16.755  0.00  0.00     0.083 H 
ATOM     35  H19 OAN d          28.243  42.290  18.171  0.00  0.00     0.086 H 
ENDBRANCH  23  25
ENDBRANCH  20  21
ENDBRANCH   7  20
BRANCH   2  36
ATOM     36  OAJ OAN d          32.455  43.958  23.095  0.00  0.00    -0.390 OA
ATOM     37  H7  OAN d          32.000  44.095  23.918  0.00  0.00     0.210 HD
ENDBRANCH   2  36
BRANCH   4  38
ATOM     38  CAF OAN d          29.646  39.765  22.725  0.00  0.00     0.044 C 
ATOM     39  H11 OAN d          29.848  38.693  22.592  0.00  0.00     0.078 H 
ATOM     40  H12 OAN d          28.931  40.101  21.959  0.00  0.00     0.078 H 
BRANCH  38  41
ATOM     41  OAM OAN d          29.083  39.980  24.019  0.00  0.00    -0.398 OA
ATOM     42  H13 OAN d          29.044  40.913  24.196  0.00  0.00     0.209 HD
ENDBRANCH  38  41
ENDBRANCH   4  38
BRANCH   3  43
ATOM     43  OAK OAN d          30.385  42.383  24.064  0.00  0.00    -0.390 OA
ATOM     44  H9  OAN d          29.447  42.492  23.956  0.00  0.00     0.210 HD
ENDBRANCH   3  43
TORSDOF 9
ENDMDL
MODEL 3
REMARK VINA RESULT:      -6.2      2.338      3.932
REMARK  9 active torsions:
REMARK  status: ('A' for Active; 'I' for Inactive)
REMARK    1  A    between atoms: CAH_1  and  CAG_2 
REMARK       I    between atoms: CAG_2  and  NAI_4 
REMARK    2  A    between atoms: NAI_4  and  CAB_5 
REMARK    3  A    between atoms: CAC_6  and  OAJ_7 
REMARK    4  A    between atoms: CAD_8  and  OAK_9 
REMARK    5  A    between atoms: CAE_10  and  CAF_11 
REMARK    6  A    between atoms: CAF_11  and  OAM_12 
REMARK    7  A    between atoms: NAY_15  and  OAQ_16 
REMARK    8  A    between atoms: OAQ_16  and  CAP_17 
REMARK       I    between atoms: CAP_17  and  NAO_19 
REMARK    9  A    between atoms: NAO_19  and  CAS_20 
ROOT
ATOM      1  CAB OAN d          31.684  41.643  19.872  0.00  0.00     0.105 C 
ATOM      2  CAC OAN d          32.641  41.221  21.030  0.00  0.00     0.089 C 
ATOM      3  CAD OAN d          31.999  41.429  22.390  0.00  0.00     0.090 C 
ATOM      4  CAE OAN d          30.752  40.530  22.480  0.00  0.00     0.094 C 
ATOM      5  OAL OAN d          29.812  40.960  21.462  0.00  0.00    -0.324 OA
ATOM      6  CAA OAN d          30.217  41.600  20.317  0.00  0.00     0.194 C 
ATOM      7  NAY OAN d          29.291  42.242  19.588  0.00  0.00    -0.100 NA
ATOM      8  H5  OAN d          31.916  42.682  19.594  0.00  0.00     0.090 H 
ATOM      9  H6  OAN d          32.862  40.150  20.915  0.00  0.00     0.090 H 
ATOM     10  H8  OAN d          31.698  42.482  22.492  0.00  0.00     0.091 H 
ATOM     11  H10 OAN d          31.088  39.511  22.237  0.00  0.00     0.091 H 
ENDROOT
BRANCH   1  12
ATOM     12  NAI OAN d          31.951  40.785  18.699  0.00  0.00    -0.347 N 
ATOM     13  CAG OAN d          31.462  41.006  17.469  0.00  0.00     0.214 C 
ATOM     14  OAN OAN d          30.768  41.980  17.152  0.00  0.00    -0.274 OA
ATOM     15  H4  OAN d          32.537  39.986  18.831  0.00  0.00     0.163 HD
BRANCH  13  16
ATOM     16  CAH OAN d          31.823  39.926  16.432  0.00  0.00    -0.003 C 
ATOM     17  H1  OAN d          32.882  39.648  16.545  0.00  0.00     0.040 H 
ATOM     18  H2  OAN d          31.654  40.320  15.419  0.00  0.00     0.040 H 
ATOM     19  H3  OAN d          31.193  39.039  16.591  0.00  0.00     0.040 H 
ENDBRANCH  13  16
ENDBRANCH   1  12
BRANCH   7  20
ATOM     20  OAQ OAN d          27.943  42.284  19.916  0.00  0.00    -0.153 OA
BRANCH  20  21
ATOM     21  CAP OAN d          27.120  42.038  18.857  0.00  0.00     0.389 C 
ATOM     22  OAR OAN d          25.893  42.079  19.022  0.00  0.00    -0.236 OA
ATOM     23  NAO OAN d          27.716  41.770  17.662  0.00  0.00    -0.301 N 
ATOM     24  H14 OAN d          28.715  41.788  17.629  0.00  0.00     0.171 HD
BRANCH  23  25
ATOM     25  CAS OAN d          27.045  41.478  16.497  0.00  0.00     0.036 A 
ATOM     26  CAT OAN d          26.459  40.213  16.242  0.00  0.00    -0.057 A 
ATOM     27  CAU OAN d          25.791  39.936  15.033  0.00  0.00    -0.081 A 
ATOM     28  H15 OAN d          26.526  39.438  16.997  0.00  0.00     0.086 H 
ATOM     29  CAV OAN d          25.701  40.926  14.055  0.00  0.00    -0.083 A 
ATOM     30  H16 OAN d          25.351  38.960  14.863  0.00  0.00     0.083 H 
ATOM     31  CAW OAN d          26.263  42.192  14.285  0.00  0.00    -0.081 A 
ATOM     32  H17 OAN d          25.197  40.718  13.117  0.00  0.00     0.083 H 
ATOM     33  CAX OAN d          26.920  42.459  15.496  0.00  0.00    -0.057 A 
ATOM     34  H18 OAN d          26.189  42.964  13.527  0.00  0.00     0.083 H 
ATOM     35  H19 OAN d          27.342  43.443  15.664  0.00  0.00     0.086 H 
ENDBRANCH  23  25
ENDBRANCH  20  21
ENDBRANCH   7  20
BRANCH   2  36
ATOM     36  OAJ OAN d          33.868  41.940  20.962  0.00  0.00    -0.390 OA
ATOM     37  H7  OAN d          34.276  41.788  20.117  0.00  0.00     0.210 HD
ENDBRANCH   2  36
BRANCH   4  38
ATOM     38  CAF OAN d          29.986  40.425  23.833  0.00  0.00     0.044 C 
ATOM     39  H11 OAN d          30.541  39.763  24.513  0.00  0.00     0.078 H 
ATOM     40  H12 OAN d          28.985  40.008  23.650  0.00  0.00     0.078 H 
BRANCH  38  41
ATOM     41  OAM OAN d          29.855  41.713  24.435  0.00  0.00    -0.398 OA
ATOM     42  H13 OAN d          29.500  41.618  25.311  0.00  0.00     0.209 HD
ENDBRANCH  38  41
ENDBRANCH   4  38
BRANCH   3  43
ATOM     43  OAK OAN d          32.913  41.107  23.431  0.00  0.00    -0.390 OA
ATOM     44  H9  OAN d          32.621  41.506  24.242  0.00  0.00     0.210 HD
ENDBRANCH   3  43
TORSDOF 9
ENDMDL
