MODEL 1
REMARK VINA RESULT:      -7.9      0.000      0.000
REMARK  10 active torsions:
REMARK  status: ('A' for Active; 'I' for Inactive)
REMARK    1  A    between atoms: C1_1  and  O8_8 
REMARK    2  A    between atoms: C2_2  and  O9_9 
REMARK    3  A    between atoms: C3_3  and  N7_7 
REMARK    4  A    between atoms: C5_5  and  C6_6 
REMARK    5  A    between atoms: C10_10  and  C11_11 
REMARK    6  A    between atoms: C11_11  and  N12_12 
REMARK       I    between atoms: N12_12  and  C13_13 
REMARK    7  A    between atoms: C13_13  and  C14_14 
REMARK    8  A    between atoms: C15_15  and  O21_21 
REMARK    9  A    between atoms: C16_16  and  O22_22 
REMARK   10  A    between atoms: C18_18  and  N20_20 
ROOT
ATOM      1  C6  OZZ d          34.502  -4.218 -12.041  0.00  0.00    -0.075 C 
ATOM      2  C10 OZZ d          34.753  -5.346 -11.411  0.00  0.00    -0.087 C 
ATOM      3  H5  OZZ d          33.570  -3.698 -11.823  0.00  0.00     0.080 H 
ATOM      4  H8  OZZ d          35.687  -5.861 -11.629  0.00  0.00     0.079 H 
ENDROOT
BRANCH   1   5
ATOM      5  C5  OZZ d          35.431  -3.620 -13.035  0.00  0.00     0.084 C 
ATOM      6  C1  OZZ d          36.846  -3.377 -12.347  0.00  0.00     0.092 C 
ATOM      7  C2  OZZ d          36.611  -1.931 -11.915  0.00  0.00     0.105 C 
ATOM      8  H1  OZZ d          37.055  -4.059 -11.510  0.00  0.00     0.091 H 
ATOM      9  C3  OZZ d          35.928  -1.314 -13.171  0.00  0.00     0.137 C 
ATOM     10  H2  OZZ d          35.934  -1.915 -11.048  0.00  0.00     0.093 H 
ATOM     11  O4  OZZ d          34.942  -2.345 -13.463  0.00  0.00    -0.352 OA
ATOM     12  H3  OZZ d          36.670  -1.219 -13.978  0.00  0.00     0.122 H 
ATOM     13  H4  OZZ d          35.537  -4.294 -13.898  0.00  0.00     0.093 H 
BRANCH   6  14
ATOM     14  O8  OZZ d          37.880  -3.437 -13.338  0.00  0.00    -0.390 OA
ATOM     15  H6  OZZ d          37.919  -4.315 -13.701  0.00  0.00     0.210 HD
ENDBRANCH   6  14
BRANCH   7  16
ATOM     16  O9  OZZ d          37.785  -1.143 -11.588  0.00  0.00    -0.388 OA
ATOM     17  H7  OZZ d          37.755  -0.319 -12.062  0.00  0.00     0.210 HD
ENDBRANCH   7  16
BRANCH   9  18
ATOM     18  N7  OZZ d          35.247  -0.071 -13.056  0.00  0.00    -0.337 N 
ATOM     19  C26 OZZ d          34.156   0.201 -13.946  0.00  0.00    -0.014 A 
ATOM     20  C27 OZZ d          33.477   1.391 -13.896  0.00  0.00    -0.020 A 
ATOM     21  H16 OZZ d          33.862  -0.553 -14.676  0.00  0.00     0.111 H 
ATOM     22  C28 OZZ d          33.803   2.397 -12.903  0.00  0.00     0.174 A 
ATOM     23  H17 OZZ d          32.681   1.584 -14.612  0.00  0.00     0.091 H 
ATOM     24  C30 OZZ d          34.963   2.093 -12.034  0.00  0.00    -0.020 A 
ATOM     25  O31 OZZ d          33.120   3.405 -12.774  0.00  0.00    -0.288 OA
ATOM     26  C29 OZZ d          35.596   0.926 -12.167  0.00  0.00    -0.014 A 
ATOM     27  H19 OZZ d          35.298   2.817 -11.292  0.00  0.00     0.091 H 
ATOM     28  H18 OZZ d          36.457   0.745 -11.525  0.00  0.00     0.111 H 
ENDBRANCH   9  18
ENDBRANCH   1   5
BRANCH   2  29
ATOM     29  C11 OZZ d          33.826  -5.958 -10.415  0.00  0.00     0.010 C 
ATOM     30  H9  OZZ d          33.296  -6.806 -10.875  0.00  0.00     0.070 H 
ATOM     31  H10 OZZ d          33.095  -5.208 -10.080  0.00  0.00     0.070 H 
BRANCH  29  32
ATOM     32  N12 OZZ d          34.593  -6.420  -9.292  0.00  0.00    -0.353 N 
ATOM     33  C13 OZZ d          35.119  -5.605  -8.384  0.00  0.00     0.254 C 
ATOM     34  O23 OZZ d          34.863  -4.351  -8.464  0.00  0.00    -0.268 OA
ATOM     35  H11 OZZ d          34.739  -7.403  -9.188  0.00  0.00     0.163 HD
BRANCH  33  36
ATOM     36  C14 OZZ d          35.984  -6.125  -7.313  0.00  0.00     0.070 A 
ATOM     37  C15 OZZ d          35.883  -7.471  -6.812  0.00  0.00     0.114 A 
ATOM     38  C16 OZZ d          36.811  -7.837  -5.813  0.00  0.00     0.102 A 
ATOM     39  C17 OZZ d          37.803  -7.023  -5.276  0.00  0.00    -0.016 A 
ATOM     40  C18 OZZ d          37.882  -5.705  -5.860  0.00  0.00     0.106 A 
ATOM     41  H12 OZZ d          38.465  -7.353  -4.483  0.00  0.00     0.091 H 
ATOM     42  C19 OZZ d          36.958  -5.320  -6.839  0.00  0.00    -0.033 A 
ATOM     43  H13 OZZ d          37.028  -4.316  -7.239  0.00  0.00     0.089 H 
BRANCH  37  44
ATOM     44  O21 OZZ d          34.946  -8.274  -7.227  0.00  0.00    -0.357 OA
ATOM     45  H14 OZZ d          34.182  -8.181  -6.671  0.00  0.00     0.217 HD
ENDBRANCH  37  44
BRANCH  38  46
ATOM     46  O22 OZZ d          36.671  -9.137  -5.320  0.00  0.00    -0.358 OA
ATOM     47  H15 OZZ d          35.883  -9.528  -5.679  0.00  0.00     0.217 HD
ENDBRANCH  38  46
BRANCH  40  48
ATOM     48  N20 OZZ d          38.893  -4.815  -5.323  0.00  0.00    -0.116 N 
ATOM     49  O24 OZZ d          39.792  -5.239  -4.677  0.00  0.00    -0.532 OA
ATOM     50  O25 OZZ d          38.790  -3.623  -5.559  0.00  0.00    -0.532 OA
ENDBRANCH  40  48
ENDBRANCH  33  36
ENDBRANCH  29  32
ENDBRANCH   2  29
TORSDOF 10
ENDMDL
MODEL 2
REMARK VINA RESULT:      -7.8      1.419      1.967
REMARK  10 active torsions:
REMARK  status: ('A' for Active; 'I' for Inactive)
REMARK    1  A    between atoms: C1_1  and  O8_8 
REMARK    2  A    between atoms: C2_2  and  O9_9 
REMARK    3  A    between atoms: C3_3  and  N7_7 
REMARK    4  A    between atoms: C5_5  and  C6_6 
REMARK    5  A    between atoms: C10_10  and  C11_11 
REMARK    6  A    between atoms: C11_11  and  N12_12 
REMARK       I    between atoms: N12_12  and  C13_13 
REMARK    7  A    between atoms: C13_13  and  C14_14 
REMARK    8  A    between atoms: C15_15  and  O21_21 
REMARK    9  A    between atoms: C16_16  and  O22_22 
REMARK   10  A    between atoms: C18_18  and  N20_20 
ROOT
ATOM      1  C6  OZZ d          35.082  -3.553 -11.562  0.00  0.00    -0.075 C 
ATOM      2  C10 OZZ d          34.841  -4.815 -11.275  0.00  0.00    -0.087 C 
ATOM      3  H5  OZZ d          35.030  -2.819 -10.759  0.00  0.00     0.080 H 
ATOM      4  H8  OZZ d          34.898  -5.546 -12.080  0.00  0.00     0.079 H 
ENDROOT
BRANCH   1   5
ATOM      5  C5  OZZ d          35.422  -3.083 -12.931  0.00  0.00     0.084 C 
ATOM      6  C1  OZZ d          36.974  -2.734 -12.993  0.00  0.00     0.092 C 
ATOM      7  C2  OZZ d          36.856  -1.247 -12.669  0.00  0.00     0.105 C 
ATOM      8  H1  OZZ d          37.584  -3.296 -12.270  0.00  0.00     0.091 H 
ATOM      9  C3  OZZ d          35.641  -0.810 -13.539  0.00  0.00     0.137 C 
ATOM     10  H2  OZZ d          36.640  -1.122 -11.598  0.00  0.00     0.093 H 
ATOM     11  O4  OZZ d          34.704  -1.883 -13.232  0.00  0.00    -0.352 OA
ATOM     12  H3  OZZ d          35.933  -0.816 -14.601  0.00  0.00     0.122 H 
ATOM     13  H4  OZZ d          35.176  -3.866 -13.664  0.00  0.00     0.093 H 
BRANCH   6  14
ATOM     14  O8  OZZ d          37.455  -2.915 -14.331  0.00  0.00    -0.390 OA
ATOM     15  H6  OZZ d          37.088  -3.713 -14.694  0.00  0.00     0.210 HD
ENDBRANCH   6  14
BRANCH   7  16
ATOM     16  O9  OZZ d          37.993  -0.408 -13.004  0.00  0.00    -0.388 OA
ATOM     17  H7  OZZ d          38.382  -0.070 -12.205  0.00  0.00     0.210 HD
ENDBRANCH   7  16
BRANCH   9  18
ATOM     18  N7  OZZ d          34.997   0.429 -13.271  0.00  0.00    -0.337 N 
ATOM     19  C26 OZZ d          33.914   0.839 -14.115  0.00  0.00    -0.014 A 
ATOM     20  C27 OZZ d          33.270   2.034 -13.916  0.00  0.00    -0.020 A 
ATOM     21  H16 OZZ d          33.596   0.190 -14.930  0.00  0.00     0.111 H 
ATOM     22  C28 OZZ d          33.627   2.901 -12.809  0.00  0.00     0.174 A 
ATOM     23  H17 OZZ d          32.479   2.337 -14.600  0.00  0.00     0.091 H 
ATOM     24  C30 OZZ d          34.779   2.459 -11.990  0.00  0.00    -0.020 A 
ATOM     25  O31 OZZ d          32.975   3.905 -12.555  0.00  0.00    -0.288 OA
ATOM     26  C29 OZZ d          35.377   1.298 -12.268  0.00  0.00    -0.014 A 
ATOM     27  H19 OZZ d          35.136   3.076 -11.167  0.00  0.00     0.091 H 
ATOM     28  H18 OZZ d          36.233   1.016 -11.657  0.00  0.00     0.111 H 
ENDBRANCH   9  18
ENDBRANCH   1   5
BRANCH   2  29
ATOM     29  C11 OZZ d          34.494  -5.298  -9.907  0.00  0.00     0.010 C 
ATOM     30  H9  OZZ d          34.371  -6.391  -9.920  0.00  0.00     0.070 H 
ATOM     31  H10 OZZ d          33.557  -4.827  -9.576  0.00  0.00     0.070 H 
BRANCH  29  32
ATOM     32  N12 OZZ d          35.557  -4.942  -9.008  0.00  0.00    -0.353 N 
ATOM     33  C13 OZZ d          35.814  -5.604  -7.885  0.00  0.00     0.254 C 
ATOM     34  O23 OZZ d          35.136  -6.661  -7.628  0.00  0.00    -0.268 OA
ATOM     35  H11 OZZ d          36.132  -4.157  -9.239  0.00  0.00     0.163 HD
BRANCH  33  36
ATOM     36  C14 OZZ d          36.849  -5.132  -6.950  0.00  0.00     0.070 A 
ATOM     37  C15 OZZ d          37.641  -6.027  -6.147  0.00  0.00     0.114 A 
ATOM     38  C16 OZZ d          38.623  -5.428  -5.329  0.00  0.00     0.102 A 
ATOM     39  C17 OZZ d          38.893  -4.066  -5.233  0.00  0.00    -0.016 A 
ATOM     40  C18 OZZ d          38.098  -3.232  -6.104  0.00  0.00     0.106 A 
ATOM     41  H12 OZZ d          39.640  -3.663  -4.558  0.00  0.00     0.091 H 
ATOM     42  C19 OZZ d          37.107  -3.809  -6.907  0.00  0.00    -0.033 A 
ATOM     43  H13 OZZ d          36.512  -3.153  -7.531  0.00  0.00     0.089 H 
BRANCH  37  44
ATOM     44  O21 OZZ d          37.411  -7.308  -6.143  0.00  0.00    -0.357 OA
ATOM     45  H14 OZZ d          36.885  -7.532  -5.385  0.00  0.00     0.217 HD
ENDBRANCH  37  44
BRANCH  38  46
ATOM     46  O22 OZZ d          39.356  -6.313  -4.535  0.00  0.00    -0.358 OA
ATOM     47  H15 OZZ d          39.438  -7.146  -4.984  0.00  0.00     0.217 HD
ENDBRANCH  38  46
BRANCH  40  48
ATOM     48  N20 OZZ d          38.334  -1.803  -6.029  0.00  0.00    -0.116 N 
ATOM     49  O24 OZZ d          37.607  -1.102  -5.409  0.00  0.00    -0.532 OA
ATOM     50  O25 OZZ d          39.301  -1.351  -6.618  0.00  0.00    -0.532 OA
ENDBRANCH  40  48
ENDBRANCH  33  36
ENDBRANCH  29  32
ENDBRANCH   2  29
TORSDOF 10
ENDMDL
MODEL 3
REMARK VINA RESULT:      -7.5      1.023      2.318
REMARK  10 active torsions:
REMARK  status: ('A' for Active; 'I' for Inactive)
REMARK    1  A    between atoms: C1_1  and  O8_8 
REMARK    2  A    between atoms: C2_2  and  O9_9 
REMARK    3  A    between atoms: C3_3  and  N7_7 
REMARK    4  A    between atoms: C5_5  and  C6_6 
REMARK    5  A    between atoms: C10_10  and  C11_11 
REMARK    6  A    between atoms: C11_11  and  N12_12 
REMARK       I    between atoms: N12_12  and  C13_13 
REMARK    7  A    between atoms: C13_13  and  C14_14 
REMARK    8  A    between atoms: C15_15  and  O21_21 
REMARK    9  A    between atoms: C16_16  and  O22_22 
REMARK   10  A    between atoms: C18_18  and  N20_20 
ROOT
ATOM      1  C6  OZZ d          34.532  -4.038 -11.946  0.00  0.00    -0.075 C 
ATOM      2  C10 OZZ d          34.853  -5.159 -11.336  0.00  0.00    -0.087 C 
ATOM      3  H5  OZZ d          33.648  -3.498 -11.609  0.00  0.00     0.080 H 
ATOM      4  H8  OZZ d          35.740  -5.693 -11.673  0.00  0.00     0.079 H 
ENDROOT
BRANCH   1   5
ATOM      5  C5  OZZ d          35.320  -3.473 -13.073  0.00  0.00     0.084 C 
ATOM      6  C1  OZZ d          36.819  -3.232 -12.592  0.00  0.00     0.092 C 
ATOM      7  C2  OZZ d          36.658  -1.775 -12.165  0.00  0.00     0.105 C 
ATOM      8  H1  OZZ d          37.136  -3.898 -11.776  0.00  0.00     0.091 H 
ATOM      9  C3  OZZ d          35.815  -1.176 -13.329  0.00  0.00     0.137 C 
ATOM     10  H2  OZZ d          36.108  -1.732 -11.214  0.00  0.00     0.093 H 
ATOM     11  O4  OZZ d          34.788  -2.202 -13.458  0.00  0.00    -0.352 OA
ATOM     12  H3  OZZ d          36.439  -1.108 -14.233  0.00  0.00     0.122 H 
ATOM     13  H4  OZZ d          35.299  -4.167 -13.926  0.00  0.00     0.093 H 
BRANCH   6  14
ATOM     14  O8  OZZ d          37.706  -3.327 -13.715  0.00  0.00    -0.390 OA
ATOM     15  H6  OZZ d          37.332  -3.913 -14.363  0.00  0.00     0.210 HD
ENDBRANCH   6  14
BRANCH   7  16
ATOM     16  O9  OZZ d          37.874  -0.993 -12.022  0.00  0.00    -0.388 OA
ATOM     17  H7  OZZ d          37.653  -0.070 -11.976  0.00  0.00     0.210 HD
ENDBRANCH   7  16
BRANCH   9  18
ATOM     18  N7  OZZ d          35.167   0.077 -13.150  0.00  0.00    -0.337 N 
ATOM     19  C26 OZZ d          34.087   0.425 -14.027  0.00  0.00    -0.014 A 
ATOM     20  C27 OZZ d          33.440   1.629 -13.915  0.00  0.00    -0.020 A 
ATOM     21  H16 OZZ d          33.775  -0.281 -14.796  0.00  0.00     0.111 H 
ATOM     22  C28 OZZ d          33.789   2.572 -12.869  0.00  0.00     0.174 A 
ATOM     23  H17 OZZ d          32.652   1.881 -14.622  0.00  0.00     0.091 H 
ATOM     24  C30 OZZ d          34.938   2.191 -12.015  0.00  0.00    -0.020 A 
ATOM     25  O31 OZZ d          33.134   3.589 -12.689  0.00  0.00    -0.288 OA
ATOM     26  C29 OZZ d          35.540   1.015 -12.209  0.00  0.00    -0.014 A 
ATOM     27  H19 OZZ d          35.289   2.865 -11.235  0.00  0.00     0.091 H 
ATOM     28  H18 OZZ d          36.393   0.778 -11.575  0.00  0.00     0.111 H 
ENDBRANCH   9  18
ENDBRANCH   1   5
BRANCH   2  29
ATOM     29  C11 OZZ d          34.067  -5.738 -10.208  0.00  0.00     0.010 C 
ATOM     30  H9  OZZ d          33.592  -6.676 -10.531  0.00  0.00     0.070 H 
ATOM     31  H10 OZZ d          33.292  -5.024  -9.892  0.00  0.00     0.070 H 
BRANCH  29  32
ATOM     32  N12 OZZ d          34.957  -6.001  -9.111  0.00  0.00    -0.353 N 
ATOM     33  C13 OZZ d          35.465  -5.046  -8.340  0.00  0.00     0.254 C 
ATOM     34  O23 OZZ d          35.080  -3.837  -8.527  0.00  0.00    -0.268 OA
ATOM     35  H11 OZZ d          35.207  -6.949  -8.919  0.00  0.00     0.163 HD
BRANCH  33  36
ATOM     36  C14 OZZ d          36.453  -5.363  -7.296  0.00  0.00     0.070 A 
ATOM     37  C15 OZZ d          37.494  -4.448  -6.904  0.00  0.00     0.114 A 
ATOM     38  C16 OZZ d          38.340  -4.877  -5.858  0.00  0.00     0.102 A 
ATOM     39  C17 OZZ d          38.259  -6.089  -5.180  0.00  0.00    -0.016 A 
ATOM     40  C18 OZZ d          37.161  -6.934  -5.588  0.00  0.00     0.106 A 
ATOM     41  H12 OZZ d          38.963  -6.375  -4.407  0.00  0.00     0.091 H 
ATOM     42  C19 OZZ d          36.324  -6.532  -6.636  0.00  0.00    -0.033 A 
ATOM     43  H13 OZZ d          35.525  -7.200  -6.935  0.00  0.00     0.089 H 
BRANCH  37  44
ATOM     44  O21 OZZ d          37.667  -3.318  -7.527  0.00  0.00    -0.357 OA
ATOM     45  H14 OZZ d          37.156  -2.641  -7.101  0.00  0.00     0.217 HD
ENDBRANCH  37  44
BRANCH  38  46
ATOM     46  O22 OZZ d          39.362  -3.986  -5.518  0.00  0.00    -0.358 OA
ATOM     47  H15 OZZ d          39.092  -3.100  -5.730  0.00  0.00     0.217 HD
ENDBRANCH  38  46
BRANCH  40  48
ATOM     48  N20 OZZ d          37.043  -8.215  -4.919  0.00  0.00    -0.116 N 
ATOM     49  O24 OZZ d          36.013  -8.802  -4.911  0.00  0.00    -0.532 OA
ATOM     50  O25 OZZ d          38.035  -8.668  -4.371  0.00  0.00    -0.532 OA
ENDBRANCH  40  48
ENDBRANCH  33  36
ENDBRANCH  29  32
ENDBRANCH   2  29
TORSDOF 10
ENDMDL
MODEL 4
REMARK VINA RESULT:      -6.2      2.486      3.752
REMARK  10 active torsions:
REMARK  status: ('A' for Active; 'I' for Inactive)
REMARK    1  A    between atoms: C1_1  and  O8_8 
REMARK    2  A    between atoms: C2_2  and  O9_9 
REMARK    3  A    between atoms: C3_3  and  N7_7 
REMARK    4  A    between atoms: C5_5  and  C6_6 
REMARK    5  A    between atoms: C10_10  and  C11_11 
REMARK    6  A    between atoms: C11_11  and  N12_12 
REMARK       I    between atoms: N12_12  and  C13_13 
REMARK    7  A    between atoms: C13_13  and  C14_14 
REMARK    8  A    between atoms: C15_15  and  O21_21 
REMARK    9  A    between atoms: C16_16  and  O22_22 
REMARK   10  A    between atoms: C18_18  and  N20_20 
ROOT
ATOM      1  C6  OZZ d          34.377  -4.352 -12.092  0.00  0.00    -0.075 C 
ATOM      2  C10 OZZ d          34.605  -4.973 -10.954  0.00  0.00    -0.087 C 
ATOM      3  H5  OZZ d          33.685  -4.804 -12.801  0.00  0.00     0.080 H 
ATOM      4  H8  OZZ d          35.294  -4.516 -10.246  0.00  0.00     0.079 H 
ENDROOT
BRANCH   1   5
ATOM      5  C5  OZZ d          35.020  -3.061 -12.453  0.00  0.00     0.084 C 
ATOM      6  C1  OZZ d          36.102  -3.318 -13.592  0.00  0.00     0.092 C 
ATOM      7  C2  OZZ d          37.313  -3.498 -12.679  0.00  0.00     0.105 C 
ATOM      8  H1  OZZ d          35.887  -4.196 -14.218  0.00  0.00     0.091 H 
ATOM      9  C3  OZZ d          37.124  -2.352 -11.643  0.00  0.00     0.137 C 
ATOM     10  H2  OZZ d          37.260  -4.484 -12.193  0.00  0.00     0.093 H 
ATOM     11  O4  OZZ d          35.712  -2.522 -11.323  0.00  0.00    -0.352 OA
ATOM     12  H3  OZZ d          37.317  -1.385 -12.131  0.00  0.00     0.122 H 
ATOM     13  H4  OZZ d          34.257  -2.351 -12.804  0.00  0.00     0.093 H 
BRANCH   6  14
ATOM     14  O8  OZZ d          36.253  -2.136 -14.389  0.00  0.00    -0.390 OA
ATOM     15  H6  OZZ d          37.171  -1.892 -14.422  0.00  0.00     0.210 HD
ENDBRANCH   6  14
BRANCH   7  16
ATOM     16  O9  OZZ d          38.623  -3.363 -13.289  0.00  0.00    -0.388 OA
ATOM     17  H7  OZZ d          38.774  -2.453 -13.516  0.00  0.00     0.210 HD
ENDBRANCH   7  16
BRANCH   9  18
ATOM     18  N7  OZZ d          37.859  -2.381 -10.425  0.00  0.00    -0.337 N 
ATOM     19  C26 OZZ d          37.138  -2.393  -9.187  0.00  0.00    -0.014 A 
ATOM     20  C27 OZZ d          37.795  -2.399  -7.982  0.00  0.00    -0.020 A 
ATOM     21  H16 OZZ d          36.049  -2.397  -9.202  0.00  0.00     0.111 H 
ATOM     22  C28 OZZ d          39.243  -2.449  -7.920  0.00  0.00     0.174 A 
ATOM     23  H17 OZZ d          37.220  -2.365  -7.059  0.00  0.00     0.091 H 
ATOM     24  C30 OZZ d          39.947  -2.391  -9.222  0.00  0.00    -0.020 A 
ATOM     25  O31 OZZ d          39.827  -2.579  -6.853  0.00  0.00    -0.288 OA
ATOM     26  C29 OZZ d          39.237  -2.351 -10.352  0.00  0.00    -0.014 A 
ATOM     27  H19 OZZ d          41.035  -2.380  -9.258  0.00  0.00     0.091 H 
ATOM     28  H18 OZZ d          39.788  -2.290 -11.289  0.00  0.00     0.111 H 
ENDBRANCH   9  18
ENDBRANCH   1   5
BRANCH   2  29
ATOM     29  C11 OZZ d          33.970  -6.271 -10.582  0.00  0.00     0.010 C 
ATOM     30  H9  OZZ d          34.121  -7.002 -11.390  0.00  0.00     0.070 H 
ATOM     31  H10 OZZ d          32.893  -6.122 -10.419  0.00  0.00     0.070 H 
BRANCH  29  32
ATOM     32  N12 OZZ d          34.579  -6.754  -9.374  0.00  0.00    -0.353 N 
ATOM     33  C13 OZZ d          35.052  -5.954  -8.425  0.00  0.00     0.254 C 
ATOM     34  O23 OZZ d          34.886  -4.689  -8.552  0.00  0.00    -0.268 OA
ATOM     35  H11 OZZ d          34.650  -7.743  -9.240  0.00  0.00     0.163 HD
BRANCH  33  36
ATOM     36  C14 OZZ d          35.760  -6.502  -7.257  0.00  0.00     0.070 A 
ATOM     37  C15 OZZ d          35.428  -7.775  -6.670  0.00  0.00     0.114 A 
ATOM     38  C16 OZZ d          36.224  -8.186  -5.580  0.00  0.00     0.102 A 
ATOM     39  C17 OZZ d          37.291  -7.482  -5.029  0.00  0.00    -0.016 A 
ATOM     40  C18 OZZ d          37.602  -6.241  -5.700  0.00  0.00     0.106 A 
ATOM     41  H12 OZZ d          37.844  -7.836  -4.167  0.00  0.00     0.091 H 
ATOM     42  C19 OZZ d          36.810  -5.809  -6.770  0.00  0.00    -0.033 A 
ATOM     43  H13 OZZ d          37.055  -4.862  -7.236  0.00  0.00     0.089 H 
BRANCH  37  44
ATOM     44  O21 OZZ d          34.410  -8.466  -7.095  0.00  0.00    -0.357 OA
ATOM     45  H14 OZZ d          34.714  -9.143  -7.688  0.00  0.00     0.217 HD
ENDBRANCH  37  44
BRANCH  38  46
ATOM     46  O22 OZZ d          35.861  -9.408  -5.006  0.00  0.00    -0.358 OA
ATOM     47  H15 OZZ d          35.017  -9.677  -5.347  0.00  0.00     0.217 HD
ENDBRANCH  38  46
BRANCH  40  48
ATOM     48  N20 OZZ d          38.697  -5.464  -5.153  0.00  0.00    -0.116 N 
ATOM     49  O24 OZZ d          39.790  -5.920  -5.088  0.00  0.00    -0.532 OA
ATOM     50  O25 OZZ d          38.459  -4.331  -4.768  0.00  0.00    -0.532 OA
ENDBRANCH  40  48
ENDBRANCH  33  36
ENDBRANCH  29  32
ENDBRANCH   2  29
TORSDOF 10
ENDMDL
MODEL 5
REMARK VINA RESULT:      -5.3      3.678      8.545
REMARK  10 active torsions:
REMARK  status: ('A' for Active; 'I' for Inactive)
REMARK    1  A    between atoms: C1_1  and  O8_8 
REMARK    2  A    between atoms: C2_2  and  O9_9 
REMARK    3  A    between atoms: C3_3  and  N7_7 
REMARK    4  A    between atoms: C5_5  and  C6_6 
REMARK    5  A    between atoms: C10_10  and  C11_11 
REMARK    6  A    between atoms: C11_11  and  N12_12 
REMARK       I    between atoms: N12_12  and  C13_13 
REMARK    7  A    between atoms: C13_13  and  C14_14 
REMARK    8  A    between atoms: C15_15  and  O21_21 
REMARK    9  A    between atoms: C16_16  and  O22_22 
REMARK   10  A    between atoms: C18_18  and  N20_20 
ROOT
ATOM      1  C6  OZZ d          37.741  -3.416  -8.518  0.00  0.00    -0.075 C 
ATOM      2  C10 OZZ d          36.541  -3.864  -8.217  0.00  0.00    -0.087 C 
ATOM      3  H5  OZZ d          37.880  -2.901  -9.468  0.00  0.00     0.080 H 
ATOM      4  H8  OZZ d          36.405  -4.375  -7.265  0.00  0.00     0.079 H 
ENDROOT
BRANCH   1   5
ATOM      5  C5  OZZ d          38.916  -3.580  -7.622  0.00  0.00     0.084 C 
ATOM      6  C1  OZZ d          38.453  -4.305  -6.282  0.00  0.00     0.092 C 
ATOM      7  C2  OZZ d          38.184  -3.047  -5.459  0.00  0.00     0.105 C 
ATOM      8  H1  OZZ d          37.569  -4.947  -6.408  0.00  0.00     0.091 H 
ATOM      9  C3  OZZ d          39.410  -2.152  -5.805  0.00  0.00     0.137 C 
ATOM     10  H2  OZZ d          37.246  -2.582  -5.799  0.00  0.00     0.093 H 
ATOM     11  O4  OZZ d          39.438  -2.299  -7.254  0.00  0.00    -0.352 OA
ATOM     12  H3  OZZ d          40.312  -2.574  -5.335  0.00  0.00     0.122 H 
ATOM     13  H4  OZZ d          39.691  -4.174  -8.129  0.00  0.00     0.093 H 
BRANCH   6  14
ATOM     14  O8  OZZ d          39.553  -5.037  -5.726  0.00  0.00    -0.390 OA
ATOM     15  H6  OZZ d          40.180  -4.429  -5.352  0.00  0.00     0.210 HD
ENDBRANCH   6  14
BRANCH   7  16
ATOM     16  O9  OZZ d          38.115  -3.206  -4.017  0.00  0.00    -0.388 OA
ATOM     17  H7  OZZ d          38.126  -4.131  -3.801  0.00  0.00     0.210 HD
ENDBRANCH   7  16
BRANCH   9  18
ATOM     18  N7  OZZ d          39.370  -0.763  -5.503  0.00  0.00    -0.337 N 
ATOM     19  C26 OZZ d          38.638  -0.330  -4.350  0.00  0.00    -0.014 A 
ATOM     20  C27 OZZ d          38.547   0.999  -4.023  0.00  0.00    -0.020 A 
ATOM     21  H16 OZZ d          38.144  -1.070  -3.721  0.00  0.00     0.111 H 
ATOM     22  C28 OZZ d          39.235   2.010  -4.803  0.00  0.00     0.174 A 
ATOM     23  H17 OZZ d          37.949   1.300  -3.164  0.00  0.00     0.091 H 
ATOM     24  C30 OZZ d          39.942   1.523  -6.009  0.00  0.00    -0.020 A 
ATOM     25  O31 OZZ d          39.259   3.180  -4.443  0.00  0.00    -0.288 OA
ATOM     26  C29 OZZ d          39.956   0.216  -6.280  0.00  0.00    -0.014 A 
ATOM     27  H19 OZZ d          40.448   2.225  -6.670  0.00  0.00     0.091 H 
ATOM     28  H18 OZZ d          40.470  -0.103  -7.186  0.00  0.00     0.111 H 
ENDBRANCH   9  18
ENDBRANCH   1   5
BRANCH   2  29
ATOM     29  C11 OZZ d          35.355  -3.710  -9.110  0.00  0.00     0.010 C 
ATOM     30  H9  OZZ d          34.459  -3.508  -8.505  0.00  0.00     0.070 H 
ATOM     31  H10 OZZ d          35.206  -4.633  -9.689  0.00  0.00     0.070 H 
BRANCH  29  32
ATOM     32  N12 OZZ d          35.591  -2.612 -10.006  0.00  0.00    -0.353 N 
ATOM     33  C13 OZZ d          35.812  -2.767 -11.307  0.00  0.00     0.254 C 
ATOM     34  O23 OZZ d          35.731  -3.945 -11.807  0.00  0.00    -0.268 OA
ATOM     35  H11 OZZ d          35.589  -1.685  -9.632  0.00  0.00     0.163 HD
BRANCH  33  36
ATOM     36  C14 OZZ d          36.152  -1.615 -12.158  0.00  0.00     0.070 A 
ATOM     37  C15 OZZ d          37.397  -1.514 -12.875  0.00  0.00     0.114 A 
ATOM     38  C16 OZZ d          37.560  -0.370 -13.685  0.00  0.00     0.102 A 
ATOM     39  C17 OZZ d          36.635   0.657 -13.852  0.00  0.00    -0.016 A 
ATOM     40  C18 OZZ d          35.389   0.466 -13.147  0.00  0.00     0.106 A 
ATOM     41  H12 OZZ d          36.835   1.530 -14.464  0.00  0.00     0.091 H 
ATOM     42  C19 OZZ d          35.219  -0.654 -12.325  0.00  0.00    -0.033 A 
ATOM     43  H13 OZZ d          34.282  -0.756 -11.790  0.00  0.00     0.089 H 
BRANCH  37  44
ATOM     44  O21 OZZ d          38.332  -2.408 -12.727  0.00  0.00    -0.357 OA
ATOM     45  H14 OZZ d          39.125  -1.987 -12.418  0.00  0.00     0.217 HD
ENDBRANCH  37  44
BRANCH  38  46
ATOM     46  O22 OZZ d          38.789  -0.279 -14.344  0.00  0.00    -0.358 OA
ATOM     47  H15 OZZ d          39.272   0.468 -14.009  0.00  0.00     0.217 HD
ENDBRANCH  38  46
BRANCH  40  48
ATOM     48  N20 OZZ d          34.400   1.517 -13.280  0.00  0.00    -0.116 N 
ATOM     49  O24 OZZ d          33.723   1.592 -14.250  0.00  0.00    -0.532 OA
ATOM     50  O25 OZZ d          34.285   2.314 -12.363  0.00  0.00    -0.532 OA
ENDBRANCH  40  48
ENDBRANCH  33  36
ENDBRANCH  29  32
ENDBRANCH   2  29
TORSDOF 10
ENDMDL
