MODEL 1
REMARK VINA RESULT:      -7.3      0.000      0.000
REMARK  2 active torsions:
REMARK  status: ('A' for Active; 'I' for Inactive)
REMARK    1  A    between atoms: C6_6  and  S11_10 
REMARK    2  A    between atoms: C7_14  and  N15_15 
ROOT
ATOM      1  C1  MOL d         -22.432   2.150 -24.649  0.00  0.00    -0.059 A 
ATOM      2  C2  MOL d         -22.749   2.103 -26.006  0.00  0.00    -0.081 A 
ATOM      3  C3  MOL d         -22.282   1.047 -26.785  0.00  0.00    -0.070 A 
ATOM      4  C4  MOL d         -21.502   0.031 -26.212  0.00  0.00     0.002 A 
ATOM      5  C5  MOL d         -21.181   0.076 -24.838  0.00  0.00     0.001 A 
ATOM      6  C6  MOL d         -21.658   1.144 -24.050  0.00  0.00     0.091 A 
ATOM      7  C9  MOL d         -19.949  -2.008 -25.086  0.00  0.00    -0.080 A 
ATOM      8  C10 MOL d         -20.401  -0.956 -24.291  0.00  0.00    -0.070 A 
ATOM      9  C8  MOL d         -20.265  -2.040 -26.445  0.00  0.00    -0.057 A 
ATOM     10  C7  MOL d         -21.040  -1.027 -27.013  0.00  0.00     0.036 A 
ATOM     11  H1  MOL d         -22.790   2.977 -24.047  0.00  0.00     0.086 H 
ATOM     12  H2  MOL d         -23.354   2.884 -26.452  0.00  0.00     0.083 H 
ATOM     13  H3  MOL d         -22.522   1.010 -27.840  0.00  0.00     0.084 H 
ATOM     14  H4  MOL d         -19.351  -2.800 -24.649  0.00  0.00     0.083 H 
ATOM     15  H5  MOL d         -20.148  -0.934 -23.237  0.00  0.00     0.084 H 
ATOM     16  H6  MOL d         -19.908  -2.856 -27.062  0.00  0.00     0.086 H 
ENDROOT
BRANCH   6  17
ATOM     17  S11 MOL d         -21.346   1.290 -22.468  0.00  0.00     0.138 S 
ATOM     18  O14 MOL d         -22.096   0.239 -21.742  0.00  0.00    -0.591 OA
ATOM     19  O12 MOL d         -21.753   2.652 -22.029  0.00  0.00    -0.591 OA
ATOM     20  O13 MOL d         -19.902   1.131 -22.152  0.00  0.00    -0.591 OA
ENDBRANCH   6  17
BRANCH  10  21
ATOM     21  N15 MOL d         -21.325  -1.096 -28.347  0.00  0.00    -0.398 N 
ATOM     22  H7  MOL d         -20.720  -0.617 -29.028  0.00  0.00     0.156 HD
ATOM     23  H8  MOL d         -22.146  -1.627 -28.671  0.00  0.00     0.156 HD
ENDBRANCH  10  21
TORSDOF 2
ENDMDL
MODEL 2
REMARK VINA RESULT:      -7.3      1.409      3.438
REMARK  2 active torsions:
REMARK  status: ('A' for Active; 'I' for Inactive)
REMARK    1  A    between atoms: C6_6  and  S11_10 
REMARK    2  A    between atoms: C7_14  and  N15_15 
ROOT
ATOM      1  C1  MOL d         -20.529  -2.167 -24.643  0.00  0.00    -0.059 A 
ATOM      2  C2  MOL d         -20.202  -2.123 -25.998  0.00  0.00    -0.081 A 
ATOM      3  C3  MOL d         -20.660  -1.067 -26.782  0.00  0.00    -0.070 A 
ATOM      4  C4  MOL d         -21.442  -0.048 -26.217  0.00  0.00     0.002 A 
ATOM      5  C5  MOL d         -21.774  -0.090 -24.845  0.00  0.00     0.001 A 
ATOM      6  C6  MOL d         -21.306  -1.159 -24.052  0.00  0.00     0.091 A 
ATOM      7  C9  MOL d         -22.999   1.996 -25.106  0.00  0.00    -0.080 A 
ATOM      8  C10 MOL d         -22.555   0.944 -24.306  0.00  0.00    -0.070 A 
ATOM      9  C8  MOL d         -22.672   2.026 -26.462  0.00  0.00    -0.057 A 
ATOM     10  C7  MOL d         -21.895   1.009 -27.023  0.00  0.00     0.036 A 
ATOM     11  H1  MOL d         -20.178  -2.993 -24.037  0.00  0.00     0.086 H 
ATOM     12  H2  MOL d         -19.595  -2.906 -26.439  0.00  0.00     0.083 H 
ATOM     13  H3  MOL d         -20.411  -1.031 -27.836  0.00  0.00     0.084 H 
ATOM     14  H4  MOL d         -23.598   2.791 -24.675  0.00  0.00     0.083 H 
ATOM     15  H5  MOL d         -22.817   0.924 -23.254  0.00  0.00     0.084 H 
ATOM     16  H6  MOL d         -23.023   2.842 -27.084  0.00  0.00     0.086 H 
ENDROOT
BRANCH   6  17
ATOM     17  S11 MOL d         -21.630  -1.301 -22.472  0.00  0.00     0.138 S 
ATOM     18  O14 MOL d         -20.884  -0.250 -21.742  0.00  0.00    -0.591 OA
ATOM     19  O12 MOL d         -21.229  -2.663 -22.028  0.00  0.00    -0.591 OA
ATOM     20  O13 MOL d         -23.076  -1.140 -22.168  0.00  0.00    -0.591 OA
ENDBRANCH   6  17
BRANCH  10  21
ATOM     21  N15 MOL d         -21.599   1.076 -28.355  0.00  0.00    -0.398 N 
ATOM     22  H7  MOL d         -21.494   1.992 -28.813  0.00  0.00     0.156 HD
ATOM     23  H8  MOL d         -21.482   0.211 -28.900  0.00  0.00     0.156 HD
ENDBRANCH  10  21
TORSDOF 2
ENDMDL
MODEL 3
REMARK VINA RESULT:      -7.1      3.976      4.455
REMARK  2 active torsions:
REMARK  status: ('A' for Active; 'I' for Inactive)
REMARK    1  A    between atoms: C6_6  and  S11_10 
REMARK    2  A    between atoms: C7_14  and  N15_15 
ROOT
ATOM      1  C1  MOL d         -22.605   1.618 -27.050  0.00  0.00    -0.059 A 
ATOM      2  C2  MOL d         -22.948   2.335 -25.904  0.00  0.00    -0.081 A 
ATOM      3  C3  MOL d         -22.554   1.861 -24.655  0.00  0.00    -0.070 A 
ATOM      4  C4  MOL d         -21.813   0.674 -24.544  0.00  0.00     0.002 A 
ATOM      5  C5  MOL d         -21.465  -0.052 -25.704  0.00  0.00     0.001 A 
ATOM      6  C6  MOL d         -21.861   0.431 -26.969  0.00  0.00     0.091 A 
ATOM      7  C9  MOL d         -20.331  -1.689 -24.304  0.00  0.00    -0.080 A 
ATOM      8  C10 MOL d         -20.722  -1.234 -25.564  0.00  0.00    -0.070 A 
ATOM      9  C8  MOL d         -20.686  -0.968 -23.164  0.00  0.00    -0.057 A 
ATOM     10  C7  MOL d         -21.425   0.212 -23.276  0.00  0.00     0.036 A 
ATOM     11  H1  MOL d         -22.920   1.984 -28.021  0.00  0.00     0.086 H 
ATOM     12  H2  MOL d         -23.516   3.254 -25.984  0.00  0.00     0.083 H 
ATOM     13  H3  MOL d         -22.821   2.413 -23.762  0.00  0.00     0.084 H 
ATOM     14  H4  MOL d         -19.753  -2.601 -24.212  0.00  0.00     0.083 H 
ATOM     15  H5  MOL d         -20.447  -1.802 -26.446  0.00  0.00     0.084 H 
ATOM     16  H6  MOL d         -20.386  -1.325 -22.185  0.00  0.00     0.086 H 
ENDROOT
BRANCH   6  17
ATOM     17  S11 MOL d         -21.515  -0.326 -28.357  0.00  0.00     0.138 S 
ATOM     18  O14 MOL d         -20.044  -0.335 -28.534  0.00  0.00    -0.591 OA
ATOM     19  O12 MOL d         -22.193   0.393 -29.469  0.00  0.00    -0.591 OA
ATOM     20  O13 MOL d         -21.994  -1.733 -28.377  0.00  0.00    -0.591 OA
ENDBRANCH   6  17
BRANCH  10  21
ATOM     21  N15 MOL d         -21.752   0.886 -22.134  0.00  0.00    -0.398 N 
ATOM     22  H7  MOL d         -21.562   1.896 -22.060  0.00  0.00     0.156 HD
ATOM     23  H8  MOL d         -22.187   0.385 -21.347  0.00  0.00     0.156 HD
ENDBRANCH  10  21
TORSDOF 2
ENDMDL
MODEL 4
REMARK VINA RESULT:      -7.1      3.867      5.035
REMARK  2 active torsions:
REMARK  status: ('A' for Active; 'I' for Inactive)
REMARK    1  A    between atoms: C6_6  and  S11_10 
REMARK    2  A    between atoms: C7_14  and  N15_15 
ROOT
ATOM      1  C1  MOL d         -20.290  -1.675 -27.001  0.00  0.00    -0.059 A 
ATOM      2  C2  MOL d         -19.986  -2.411 -25.857  0.00  0.00    -0.081 A 
ATOM      3  C3  MOL d         -20.412  -1.952 -24.612  0.00  0.00    -0.070 A 
ATOM      4  C4  MOL d         -21.145  -0.761 -24.505  0.00  0.00     0.002 A 
ATOM      5  C5  MOL d         -21.454  -0.015 -25.664  0.00  0.00     0.001 A 
ATOM      6  C6  MOL d         -21.026  -0.483 -26.924  0.00  0.00     0.091 A 
ATOM      7  C9  MOL d         -22.614   1.611 -24.273  0.00  0.00    -0.080 A 
ATOM      8  C10 MOL d         -22.192   1.172 -25.527  0.00  0.00    -0.070 A 
ATOM      9  C8  MOL d         -22.298   0.871 -23.133  0.00  0.00    -0.057 A 
ATOM     10  C7  MOL d         -21.565  -0.314 -23.241  0.00  0.00     0.036 A 
ATOM     11  H1  MOL d         -19.952  -2.030 -27.968  0.00  0.00     0.086 H 
ATOM     12  H2  MOL d         -19.423  -3.334 -25.934  0.00  0.00     0.083 H 
ATOM     13  H3  MOL d         -20.174  -2.519 -23.720  0.00  0.00     0.084 H 
ATOM     14  H4  MOL d         -23.187   2.527 -24.183  0.00  0.00     0.083 H 
ATOM     15  H5  MOL d         -22.436   1.754 -26.408  0.00  0.00     0.084 H 
ATOM     16  H6  MOL d         -22.622   1.217 -22.158  0.00  0.00     0.086 H 
ENDROOT
BRANCH   6  17
ATOM     17  S11 MOL d         -21.327   0.297 -28.310  0.00  0.00     0.138 S 
ATOM     18  O14 MOL d         -20.881  -0.555 -29.436  0.00  0.00    -0.591 OA
ATOM     19  O12 MOL d         -20.601   1.595 -28.288  0.00  0.00    -0.591 OA
ATOM     20  O13 MOL d         -22.771   0.595 -28.498  0.00  0.00    -0.591 OA
ENDBRANCH   6  17
BRANCH  10  21
ATOM     21  N15 MOL d         -21.276  -1.007 -22.101  0.00  0.00    -0.398 N 
ATOM     22  H7  MOL d         -21.185  -2.032 -22.131  0.00  0.00     0.156 HD
ATOM     23  H8  MOL d         -21.150  -0.504 -21.211  0.00  0.00     0.156 HD
ENDBRANCH  10  21
TORSDOF 2
ENDMDL
MODEL 5
REMARK VINA RESULT:      -6.7      1.095      1.631
REMARK  2 active torsions:
REMARK  status: ('A' for Active; 'I' for Inactive)
REMARK    1  A    between atoms: C6_6  and  S11_10 
REMARK    2  A    between atoms: C7_14  and  N15_15 
ROOT
ATOM      1  C1  MOL d         -22.523   1.795 -24.386  0.00  0.00    -0.059 A 
ATOM      2  C2  MOL d         -22.891   2.374 -25.601  0.00  0.00    -0.081 A 
ATOM      3  C3  MOL d         -22.523   1.757 -26.794  0.00  0.00    -0.070 A 
ATOM      4  C4  MOL d         -21.791   0.560 -26.781  0.00  0.00     0.002 A 
ATOM      5  C5  MOL d         -21.419  -0.027 -25.552  0.00  0.00     0.001 A 
ATOM      6  C6  MOL d         -21.796   0.596 -24.344  0.00  0.00     0.091 A 
ATOM      7  C9  MOL d         -20.335  -1.831 -26.775  0.00  0.00    -0.080 A 
ATOM      8  C10 MOL d         -20.689  -1.226 -25.569  0.00  0.00    -0.070 A 
ATOM      9  C8  MOL d         -20.702  -1.240 -27.984  0.00  0.00    -0.057 A 
ATOM     10  C7  MOL d         -21.429  -0.047 -27.995  0.00  0.00     0.036 A 
ATOM     11  H1  MOL d         -22.804   2.281 -23.459  0.00  0.00     0.086 H 
ATOM     12  H2  MOL d         -23.460   3.296 -25.616  0.00  0.00     0.083 H 
ATOM     13  H3  MOL d         -22.803   2.205 -27.740  0.00  0.00     0.084 H 
ATOM     14  H4  MOL d         -19.776  -2.760 -26.772  0.00  0.00     0.083 H 
ATOM     15  H5  MOL d         -20.397  -1.688 -24.633  0.00  0.00     0.084 H 
ATOM     16  H6  MOL d         -20.422  -1.709 -28.920  0.00  0.00     0.086 H 
ENDROOT
BRANCH   6  17
ATOM     17  S11 MOL d         -21.418   0.007 -22.885  0.00  0.00     0.138 S 
ATOM     18  O14 MOL d         -22.056   0.858 -21.854  0.00  0.00    -0.591 OA
ATOM     19  O12 MOL d         -19.937   0.002 -22.746  0.00  0.00    -0.591 OA
ATOM     20  O13 MOL d         -21.890  -1.389 -22.691  0.00  0.00    -0.591 OA
ENDBRANCH   6  17
BRANCH  10  21
ATOM     21  N15 MOL d         -21.766   0.499 -29.201  0.00  0.00    -0.398 N 
ATOM     22  H7  MOL d         -22.286   1.387 -29.236  0.00  0.00     0.156 HD
ATOM     23  H8  MOL d         -21.502   0.021 -30.074  0.00  0.00     0.156 HD
ENDBRANCH  10  21
TORSDOF 2
ENDMDL
MODEL 6
REMARK VINA RESULT:      -4.8      2.369      3.023
REMARK  2 active torsions:
REMARK  status: ('A' for Active; 'I' for Inactive)
REMARK    1  A    between atoms: C6_6  and  S11_10 
REMARK    2  A    between atoms: C7_14  and  N15_15 
ROOT
ATOM      1  C1  MOL d         -20.586   0.330 -23.231  0.00  0.00    -0.059 A 
ATOM      2  C2  MOL d         -19.802   1.303 -23.850  0.00  0.00    -0.081 A 
ATOM      3  C3  MOL d         -19.834   1.431 -25.236  0.00  0.00    -0.070 A 
ATOM      4  C4  MOL d         -20.653   0.595 -26.010  0.00  0.00     0.002 A 
ATOM      5  C5  MOL d         -21.449  -0.390 -25.385  0.00  0.00     0.001 A 
ATOM      6  C6  MOL d         -21.418  -0.516 -23.980  0.00  0.00     0.091 A 
ATOM      7  C9  MOL d         -22.284  -1.062 -27.570  0.00  0.00    -0.080 A 
ATOM      8  C10 MOL d         -22.260  -1.211 -26.184  0.00  0.00    -0.070 A 
ATOM      9  C8  MOL d         -21.488  -0.091 -28.179  0.00  0.00    -0.057 A 
ATOM     10  C7  MOL d         -20.673   0.740 -27.408  0.00  0.00     0.036 A 
ATOM     11  H1  MOL d         -20.554   0.227 -22.153  0.00  0.00     0.086 H 
ATOM     12  H2  MOL d         -19.170   1.954 -23.257  0.00  0.00     0.083 H 
ATOM     13  H3  MOL d         -19.223   2.183 -25.722  0.00  0.00     0.084 H 
ATOM     14  H4  MOL d         -22.919  -1.701 -28.173  0.00  0.00     0.083 H 
ATOM     15  H5  MOL d         -22.877  -1.970 -25.717  0.00  0.00     0.084 H 
ATOM     16  H6  MOL d         -21.504   0.020 -29.257  0.00  0.00     0.086 H 
ENDROOT
BRANCH   6  17
ATOM     17  S11 MOL d         -22.290  -1.611 -23.168  0.00  0.00     0.138 S 
ATOM     18  O14 MOL d         -21.577  -2.909 -23.214  0.00  0.00    -0.591 OA
ATOM     19  O12 MOL d         -23.634  -1.706 -23.796  0.00  0.00    -0.591 OA
ATOM     20  O13 MOL d         -22.488  -1.242 -21.742  0.00  0.00    -0.591 OA
ENDBRANCH   6  17
BRANCH  10  21
ATOM     21  N15 MOL d         -19.909   1.676 -28.044  0.00  0.00    -0.398 N 
ATOM     22  H7  MOL d         -19.661   2.551 -27.563  0.00  0.00     0.156 HD
ATOM     23  H8  MOL d         -19.583   1.506 -29.006  0.00  0.00     0.156 HD
ENDBRANCH  10  21
TORSDOF 2
ENDMDL
MODEL 7
REMARK VINA RESULT:      -4.6      1.643      2.553
REMARK  2 active torsions:
REMARK  status: ('A' for Active; 'I' for Inactive)
REMARK    1  A    between atoms: C6_6  and  S11_10 
REMARK    2  A    between atoms: C7_14  and  N15_15 
ROOT
ATOM      1  C1  MOL d         -22.503  -0.461 -23.398  0.00  0.00    -0.059 A 
ATOM      2  C2  MOL d         -23.156  -1.481 -24.089  0.00  0.00    -0.081 A 
ATOM      3  C3  MOL d         -23.013  -1.573 -25.472  0.00  0.00    -0.070 A 
ATOM      4  C4  MOL d         -22.216  -0.653 -26.168  0.00  0.00     0.002 A 
ATOM      5  C5  MOL d         -21.554   0.380 -25.469  0.00  0.00     0.001 A 
ATOM      6  C6  MOL d         -21.696   0.470 -24.069  0.00  0.00     0.091 A 
ATOM      7  C9  MOL d         -20.626   1.172 -27.575  0.00  0.00    -0.080 A 
ATOM      8  C10 MOL d         -20.760   1.285 -26.192  0.00  0.00    -0.070 A 
ATOM      9  C8  MOL d         -21.289   0.152 -28.258  0.00  0.00    -0.057 A 
ATOM     10  C7  MOL d         -22.084  -0.762 -27.563  0.00  0.00     0.036 A 
ATOM     11  H1  MOL d         -22.622  -0.386 -22.323  0.00  0.00     0.086 H 
ATOM     12  H2  MOL d         -23.770  -2.197 -23.555  0.00  0.00     0.083 H 
ATOM     13  H3  MOL d         -23.522  -2.362 -26.013  0.00  0.00     0.084 H 
ATOM     14  H4  MOL d         -20.005   1.875 -28.119  0.00  0.00     0.083 H 
ATOM     15  H5  MOL d         -20.246   2.083 -25.668  0.00  0.00     0.084 H 
ATOM     16  H6  MOL d         -21.187   0.069 -29.334  0.00  0.00     0.086 H 
ENDROOT
BRANCH   6  17
ATOM     17  S11 MOL d         -20.981   1.615 -23.175  0.00  0.00     0.138 S 
ATOM     18  O14 MOL d         -19.566   1.728 -23.598  0.00  0.00    -0.591 OA
ATOM     19  O12 MOL d         -21.093   1.234 -21.742  0.00  0.00    -0.591 OA
ATOM     20  O13 MOL d         -21.621   2.948 -23.334  0.00  0.00    -0.591 OA
ENDBRANCH   6  17
BRANCH  10  21
ATOM     21  N15 MOL d         -22.717  -1.744 -28.270  0.00  0.00    -0.398 N 
ATOM     22  H7  MOL d         -23.630  -2.099 -27.954  0.00  0.00     0.156 HD
ATOM     23  H8  MOL d         -22.281  -2.130 -29.119  0.00  0.00     0.156 HD
ENDBRANCH  10  21
TORSDOF 2
ENDMDL
