MODEL 1
REMARK VINA RESULT:     -16.5      0.000      0.000
REMARK  2 active torsions:
REMARK  status: ('A' for Active; 'I' for Inactive)
REMARK       I    between atoms: N4_8  and  C11_17 
REMARK    1  A    between atoms: C16_22  and  N4_8 
REMARK    2  A    between atoms: C11_17  and  C12_18 
ROOT
ATOM      1  C1  YKI d          13.534  14.316  26.362  0.00  0.00     0.004 A 
ATOM      2  N1  YKI d          13.251  14.590  27.700  0.00  0.00    -0.271 NA
ATOM      3  C2  YKI d          11.941  14.702  28.155  0.00  0.00     0.030 A 
ATOM      4  N2  YKI d           9.516  14.576  27.352  0.00  0.00    -0.337 N 
ATOM      5  C3  YKI d          12.507  14.133  25.406  0.00  0.00    -0.036 A 
ATOM      6  N3  YKI d           9.964  14.137  25.226  0.00  0.00    -0.228 NA
ATOM      7  C4  YKI d           8.983  14.340  26.142  0.00  0.00     0.140 A 
ATOM      8  C5  YKI d          11.177  14.245  25.848  0.00  0.00     0.088 A 
ATOM      9  C6  YKI d          10.883  14.528  27.241  0.00  0.00     0.080 A 
ATOM     10  C7  YKI d           7.556  14.331  25.903  0.00  0.00     0.022 A 
ATOM     11  C8  YKI d           4.701  14.501  25.503  0.00  0.00    -0.074 A 
ATOM     12  C9  YKI d           5.391  15.533  26.208  0.00  0.00    -0.081 A 
ATOM     13  C10 YKI d           6.809  15.431  26.398  0.00  0.00    -0.068 A 
ATOM     14  C16 YKI d           4.784  12.249  24.241  0.00  0.00     0.065 A 
ATOM     15  C17 YKI d           5.415  13.360  24.982  0.00  0.00    -0.019 A 
ATOM     16  C18 YKI d           6.803  13.229  25.154  0.00  0.00    -0.003 A 
ATOM     17  C19 YKI d           6.032  11.358  23.968  0.00  0.00    -0.020 A 
ATOM     18  C20 YKI d           7.220  11.965  24.509  0.00  0.00    -0.016 A 
ATOM     19  C21 YKI d           8.500  11.276  24.343  0.00  0.00    -0.072 A 
ATOM     20  C22 YKI d           8.570  10.022  23.651  0.00  0.00    -0.082 A 
ATOM     21  C23 YKI d           7.356   9.426  23.112  0.00  0.00    -0.082 A 
ATOM     22  C24 YKI d           6.096  10.093  23.269  0.00  0.00    -0.074 A 
ATOM     23  H1  YKI d          14.569  14.240  26.047  0.00  0.00     0.114 H 
ATOM     24  H2  YKI d          11.738  14.920  29.197  0.00  0.00     0.118 H 
ATOM     25  H3  YKI d           8.989  14.762  28.217  0.00  0.00     0.167 HD
ATOM     26  H4  YKI d          12.737  13.914  24.370  0.00  0.00     0.089 H 
ATOM     27  H7  YKI d           3.630  14.576  25.356  0.00  0.00     0.084 H 
ATOM     28  H8  YKI d           4.848  16.386  26.596  0.00  0.00     0.083 H 
ATOM     29  H9  YKI d           7.326  16.217  26.937  0.00  0.00     0.085 H 
ATOM     30  H12 YKI d           4.494  12.651  23.259  0.00  0.00     0.088 H 
ATOM     31  H13 YKI d           9.403  11.717  24.747  0.00  0.00     0.084 H 
ATOM     32  H14 YKI d           9.523   9.520  23.529  0.00  0.00     0.083 H 
ATOM     33  H15 YKI d           7.405   8.477  22.592  0.00  0.00     0.083 H 
ATOM     34  H16 YKI d           5.194   9.650  22.864  0.00  0.00     0.084 H 
ENDROOT
BRANCH  14  35
ATOM     35  N4  YKI d           3.779  11.843  24.643  0.00  0.00    -0.344 N 
ATOM     36  C11 YKI d           2.643  11.373  24.089  0.00  0.00     0.253 C 
ATOM     37  O13 YKI d           2.613  11.334  22.850  0.00  0.00    -0.268 OA
ATOM     38  H5  YKI d           3.744  11.840  25.643  0.00  0.00     0.163 HD
BRANCH  36  39
ATOM     39  C12 YKI d           1.442  10.937  24.891  0.00  0.00     0.047 A 
ATOM     40  C14 YKI d           1.484  10.096  26.061  0.00  0.00    -0.050 A 
ATOM     41  C15 YKI d           0.240   9.781  26.711  0.00  0.00     0.005 A 
ATOM     42  H10 YKI d           2.425   9.712  26.440  0.00  0.00     0.087 H 
ATOM     43  N5  YKI d          -0.962  10.273  26.212  0.00  0.00    -0.242 NA
ATOM     44  H11 YKI d           0.239   9.156  27.597  0.00  0.00     0.114 H 
ATOM     45  C26 YKI d          -1.018  11.092  25.078  0.00  0.00     0.138 A 
ATOM     46  N6  YKI d          -2.146  11.629  24.501  0.00  0.00    -0.350 N 
ATOM     47  C25 YKI d           0.126  11.437  24.390  0.00  0.00     0.027 A 
ATOM     48  C27 YKI d          -1.717  12.360  23.407  0.00  0.00    -0.020 A 
ATOM     49  H6  YKI d          -3.117  11.511  24.821  0.00  0.00     0.166 HD
ATOM     50  C28 YKI d          -0.314  12.272  23.303  0.00  0.00    -0.053 A 
ATOM     51  H17 YKI d          -2.365  12.917  22.731  0.00  0.00     0.111 H 
ATOM     52  H18 YKI d           0.314  12.743  22.549  0.00  0.00     0.087 H 
ENDBRANCH  36  39
ENDBRANCH  14  35
TORSDOF 2
ENDMDL
MODEL 2
REMARK VINA RESULT:     -15.8      0.862      1.925
REMARK  2 active torsions:
REMARK  status: ('A' for Active; 'I' for Inactive)
REMARK       I    between atoms: N4_8  and  C11_17 
REMARK    1  A    between atoms: C16_22  and  N4_8 
REMARK    2  A    between atoms: C11_17  and  C12_18 
ROOT
ATOM      1  C1  YKI d          12.895  14.221  26.330  0.00  0.00     0.004 A 
ATOM      2  N1  YKI d          12.611  14.498  27.667  0.00  0.00    -0.271 NA
ATOM      3  C2  YKI d          11.302  14.640  28.116  0.00  0.00     0.030 A 
ATOM      4  N2  YKI d           8.879  14.576  27.298  0.00  0.00    -0.337 N 
ATOM      5  C3  YKI d          11.869  14.067  25.368  0.00  0.00    -0.036 A 
ATOM      6  N3  YKI d           9.328  14.134  25.173  0.00  0.00    -0.228 NA
ATOM      7  C4  YKI d           8.347  14.358  26.084  0.00  0.00     0.140 A 
ATOM      8  C5  YKI d          10.540  14.210  25.802  0.00  0.00     0.088 A 
ATOM      9  C6  YKI d          10.245  14.495  27.195  0.00  0.00     0.080 A 
ATOM     10  C7  YKI d           6.921  14.385  25.838  0.00  0.00     0.022 A 
ATOM     11  C8  YKI d           4.074  14.627  25.421  0.00  0.00    -0.074 A 
ATOM     12  C9  YKI d           4.785  15.638  26.134  0.00  0.00    -0.081 A 
ATOM     13  C10 YKI d           6.199  15.501  26.333  0.00  0.00    -0.068 A 
ATOM     14  C16 YKI d           4.109  12.378  24.152  0.00  0.00     0.065 A 
ATOM     15  C17 YKI d           4.763  13.470  24.901  0.00  0.00    -0.019 A 
ATOM     16  C18 YKI d           6.146  13.305  25.080  0.00  0.00    -0.003 A 
ATOM     17  C19 YKI d           5.336  11.457  23.882  0.00  0.00    -0.020 A 
ATOM     18  C20 YKI d           6.536  12.032  24.432  0.00  0.00    -0.016 A 
ATOM     19  C21 YKI d           7.799  11.313  24.271  0.00  0.00    -0.072 A 
ATOM     20  C22 YKI d           7.842  10.061  23.574  0.00  0.00    -0.082 A 
ATOM     21  C23 YKI d           6.618   9.497  23.026  0.00  0.00    -0.082 A 
ATOM     22  C24 YKI d           5.374  10.194  23.179  0.00  0.00    -0.074 A 
ATOM     23  H1  YKI d          13.929  14.122  26.020  0.00  0.00     0.114 H 
ATOM     24  H2  YKI d          11.098  14.859  29.157  0.00  0.00     0.118 H 
ATOM     25  H3  YKI d           8.351  14.772  28.161  0.00  0.00     0.167 HD
ATOM     26  H4  YKI d          12.100  13.846  24.332  0.00  0.00     0.089 H 
ATOM     27  H7  YKI d           3.005  14.728  25.269  0.00  0.00     0.084 H 
ATOM     28  H8  YKI d           4.261  16.503  26.523  0.00  0.00     0.083 H 
ATOM     29  H9  YKI d           6.732  16.272  26.877  0.00  0.00     0.085 H 
ATOM     30  H12 YKI d           3.835  12.790  23.169  0.00  0.00     0.088 H 
ATOM     31  H13 YKI d           8.711  11.730  24.682  0.00  0.00     0.084 H 
ATOM     32  H14 YKI d           8.783   9.536  23.456  0.00  0.00     0.083 H 
ATOM     33  H15 YKI d           6.646   8.549  22.503  0.00  0.00     0.083 H 
ATOM     34  H16 YKI d           4.463   9.775  22.767  0.00  0.00     0.084 H 
ENDROOT
BRANCH  14  35
ATOM     35  N4  YKI d           3.092  11.995  24.547  0.00  0.00    -0.344 N 
ATOM     36  C11 YKI d           1.923  11.622  23.986  0.00  0.00     0.253 C 
ATOM     37  O13 YKI d           1.868  11.673  22.748  0.00  0.00    -0.268 OA
ATOM     38  H5  YKI d           3.075  11.923  25.545  0.00  0.00     0.163 HD
BRANCH  36  39
ATOM     39  C12 YKI d           0.716  11.192  24.782  0.00  0.00     0.047 A 
ATOM     40  C14 YKI d          -0.629  11.670  24.576  0.00  0.00    -0.050 A 
ATOM     41  C15 YKI d          -1.667  11.148  25.424  0.00  0.00     0.005 A 
ATOM     42  H10 YKI d          -0.850  12.400  23.806  0.00  0.00     0.087 H 
ATOM     43  N5  YKI d          -1.369  10.217  26.415  0.00  0.00    -0.242 NA
ATOM     44  H11 YKI d          -2.690  11.483  25.291  0.00  0.00     0.114 H 
ATOM     45  C26 YKI d          -0.069   9.744  26.625  0.00  0.00     0.138 A 
ATOM     46  N6  YKI d           0.335   8.830  27.571  0.00  0.00    -0.350 N 
ATOM     47  C25 YKI d           0.987  10.195  25.862  0.00  0.00     0.027 A 
ATOM     48  C27 YKI d           1.701   8.673  27.408  0.00  0.00    -0.020 A 
ATOM     49  H6  YKI d          -0.261   8.356  28.264  0.00  0.00     0.166 HD
ATOM     50  C28 YKI d           2.146   9.499  26.355  0.00  0.00    -0.053 A 
ATOM     51  H17 YKI d           2.333   8.014  28.001  0.00  0.00     0.111 H 
ATOM     52  H18 YKI d           3.167   9.591  25.987  0.00  0.00     0.087 H 
ENDBRANCH  36  39
ENDBRANCH  14  35
TORSDOF 2
ENDMDL
