MODEL 1
REMARK VINA RESULT:     -11.6      0.000      0.000
REMARK  7 active torsions:
REMARK  status: ('A' for Active; 'I' for Inactive)
REMARK    1  A    between atoms: C2_4  and  C8_8 
REMARK    2  A    between atoms: C4_6  and  C7_7 
REMARK    3  A    between atoms: C13_9  and  C14_10 
REMARK    4  A    between atoms: C16_16  and  C19_17 
REMARK    5  A    between atoms: C17_18  and  O20_19 
REMARK    6  A    between atoms: C48_24  and  C49_25 
REMARK    7  A    between atoms: C36_28  and  C38_29 
ROOT
ATOM      1  C8  GYN d           5.013  25.418  -8.126  0.00  0.00    -0.048 C 
ATOM      2  C13 GYN d           4.107  26.144  -7.441  0.00  0.00    -0.070 C 
ATOM      3  C12 GYN d           3.786  25.908  -5.979  0.00  0.00    -0.003 C 
ATOM      4  C27 GYN d           4.846  25.044  -5.279  0.00  0.00     0.011 C 
ATOM      5  C10 GYN d           5.148  23.842  -6.175  0.00  0.00    -0.049 C 
ATOM      6  C9  GYN d           5.669  24.183  -7.563  0.00  0.00    -0.041 C 
ATOM      7  C15 GYN d           3.628  27.249  -5.279  0.00  0.00    -0.090 C 
ATOM      8  C16 GYN d           2.487  27.750  -4.756  0.00  0.00    -0.059 C 
ATOM      9  C17 GYN d           2.559  29.112  -4.107  0.00  0.00     0.057 C 
ATOM     10  C18 GYN d           2.036  29.071  -2.676  0.00  0.00    -0.035 C 
ATOM     11  C21 GYN d           3.092  28.726  -1.642  0.00  0.00    -0.038 C 
ATOM     12  C43 GYN d           2.859  27.363  -1.009  0.00  0.00     0.040 C 
ATOM     13  C47 GYN d           3.534  27.190   0.347  0.00  0.00    -0.035 C 
ATOM     14  C48 GYN d           2.623  26.246   1.116  0.00  0.00    -0.026 C 
ATOM     15  O43 GYN d           1.487  27.008  -0.781  0.00  0.00    -0.376 OA
ATOM     16  C37 GYN d           1.482  25.916   0.161  0.00  0.00     0.063 C 
ATOM     17  C36 GYN d           1.692  24.571  -0.502  0.00  0.00    -0.059 C 
ATOM     18  C35 GYN d           2.168  24.525  -1.764  0.00  0.00    -0.098 C 
ATOM     19  C34 GYN d           2.451  23.285  -2.593  0.00  0.00    -0.045 C 
ATOM     20  C33 GYN d           2.940  23.681  -3.995  0.00  0.00    -0.025 C 
ATOM     21  C32 GYN d           4.270  24.432  -4.005  0.00  0.00     0.016 C 
ATOM     22  N31 GYN d           4.934  24.520  -2.925  0.00  0.00    -0.298 NA
ATOM     23  C30 GYN d           6.340  24.832  -2.714  0.00  0.00     0.015 C 
ATOM     24  C46 GYN d           6.607  26.048  -3.588  0.00  0.00    -0.047 C 
ATOM     25  C28 GYN d           6.130  25.873  -5.027  0.00  0.00    -0.051 C 
ATOM     26  H11 GYN d           2.827  25.373  -5.922  0.00  0.00     0.054 H 
ATOM     27  H12 GYN d           4.220  23.264  -6.292  0.00  0.00     0.035 H 
ATOM     28  H13 GYN d           5.905  23.223  -5.670  0.00  0.00     0.035 H 
ATOM     29  H14 GYN d           6.754  24.353  -7.503  0.00  0.00     0.039 H 
ATOM     30  H15 GYN d           5.467  23.336  -8.235  0.00  0.00     0.039 H 
ATOM     31  H16 GYN d           4.522  27.865  -5.190  0.00  0.00     0.078 H 
ATOM     32  H20 GYN d           3.602  29.463  -4.105  0.00  0.00     0.090 H 
ATOM     33  H22 GYN d           1.238  28.315  -2.621  0.00  0.00     0.037 H 
ATOM     34  H23 GYN d           1.622  30.060  -2.431  0.00  0.00     0.037 H 
ATOM     35  H24 GYN d           3.076  29.491  -0.852  0.00  0.00     0.036 H 
ATOM     36  H25 GYN d           4.078  28.725  -2.131  0.00  0.00     0.036 H 
ATOM     37  H26 GYN d           3.287  26.626  -1.704  0.00  0.00     0.083 H 
ATOM     38  H27 GYN d           3.617  28.157   0.865  0.00  0.00     0.037 H 
ATOM     39  H28 GYN d           4.535  26.751   0.229  0.00  0.00     0.037 H 
ATOM     40  H29 GYN d           3.165  25.332   1.401  0.00  0.00     0.043 H 
ATOM     41  H33 GYN d           0.526  25.893   0.704  0.00  0.00     0.091 H 
ATOM     42  H37 GYN d           2.372  25.483  -2.240  0.00  0.00     0.077 H 
ATOM     43  H38 GYN d           1.529  22.692  -2.684  0.00  0.00     0.039 H 
ATOM     44  H39 GYN d           3.226  22.684  -2.094  0.00  0.00     0.039 H 
ATOM     45  H40 GYN d           2.177  24.324  -4.457  0.00  0.00     0.042 H 
ATOM     46  H41 GYN d           3.057  22.763  -4.590  0.00  0.00     0.042 H 
ATOM     47  H42 GYN d           6.974  23.988  -3.022  0.00  0.00     0.067 H 
ATOM     48  H43 GYN d           6.529  25.066  -1.656  0.00  0.00     0.067 H 
ATOM     49  H44 GYN d           7.691  26.238  -3.600  0.00  0.00     0.035 H 
ATOM     50  H45 GYN d           6.088  26.914  -3.150  0.00  0.00     0.035 H 
ATOM     51  H46 GYN d           5.954  26.878  -5.437  0.00  0.00     0.034 H 
ATOM     52  H47 GYN d           6.945  25.387  -5.583  0.00  0.00     0.034 H 
ENDROOT
BRANCH   1  53
ATOM     53  C2  GYN d           5.442  25.856  -9.499  0.00  0.00     0.071 C 
ATOM     54  O1  GYN d           6.437  26.875  -9.382  0.00  0.00    -0.311 OA
ATOM     55  C5  GYN d           7.452  26.555 -10.359  0.00  0.00     0.263 C 
ATOM     56  O6  GYN d           8.429  27.257 -10.531  0.00  0.00    -0.265 OA
ATOM     57  C4  GYN d           7.182  25.315 -11.133  0.00  0.00     0.029 C 
ATOM     58  C3  GYN d           6.028  24.714 -10.340  0.00  0.00    -0.025 C 
ATOM     59  H4  GYN d           6.858  25.554 -12.157  0.00  0.00     0.055 H 
ATOM     60  H2  GYN d           5.265  24.313 -11.023  0.00  0.00     0.038 H 
ATOM     61  H3  GYN d           6.395  23.909  -9.686  0.00  0.00     0.038 H 
ATOM     62  H1  GYN d           4.564  26.262 -10.023  0.00  0.00     0.091 H 
BRANCH  57  63
ATOM     63  C7  GYN d           8.415  24.432 -11.214  0.00  0.00    -0.064 C 
ATOM     64  H5  GYN d           8.294  23.707 -12.033  0.00  0.00     0.028 H 
ATOM     65  H6  GYN d           8.544  23.893 -10.264  0.00  0.00     0.028 H 
ATOM     66  H7  GYN d           9.301  25.056 -11.405  0.00  0.00     0.028 H 
ENDBRANCH  57  63
ENDBRANCH   1  53
BRANCH   2  67
ATOM     67  C14 GYN d           3.369  27.268  -8.137  0.00  0.00    -0.054 C 
ATOM     68  H8  GYN d           3.000  27.983  -7.388  0.00  0.00     0.033 H 
ATOM     69  H9  GYN d           2.519  26.855  -8.700  0.00  0.00     0.033 H 
ATOM     70  H10 GYN d           4.052  27.781  -8.829  0.00  0.00     0.033 H 
ENDBRANCH   2  67
BRANCH   8  71
ATOM     71  C19 GYN d           1.166  27.020  -4.814  0.00  0.00    -0.052 C 
ATOM     72  H17 GYN d           1.346  25.950  -4.996  0.00  0.00     0.033 H 
ATOM     73  H18 GYN d           0.554  27.432  -5.630  0.00  0.00     0.033 H 
ATOM     74  H19 GYN d           0.636  27.146  -3.859  0.00  0.00     0.033 H 
ENDBRANCH   8  71
BRANCH   9  75
ATOM     75  O20 GYN d           1.738  30.012  -4.866  0.00  0.00    -0.391 OA
ATOM     76  H21 GYN d           1.732  30.864  -4.446  0.00  0.00     0.210 HD
ENDBRANCH   9  75
BRANCH  17  77
ATOM     77  C38 GYN d           1.345  23.307   0.250  0.00  0.00    -0.052 C 
ATOM     78  H34 GYN d           1.083  23.558   1.288  0.00  0.00     0.033 H 
ATOM     79  H35 GYN d           2.210  22.628   0.246  0.00  0.00     0.033 H 
ATOM     80  H36 GYN d           0.489  22.815  -0.235  0.00  0.00     0.033 H 
ENDBRANCH  17  77
BRANCH  14  81
ATOM     81  C49 GYN d           2.093  26.939   2.373  0.00  0.00    -0.070 C 
ATOM     82  H30 GYN d           2.897  27.008   3.121  0.00  0.00     0.028 H 
ATOM     83  H31 GYN d           1.256  26.358   2.786  0.00  0.00     0.028 H 
ATOM     84  H32 GYN d           1.745  27.950   2.115  0.00  0.00     0.028 H 
ENDBRANCH  14  81
TORSDOF 7
ENDMDL
