MODEL 1
REMARK VINA RESULT:      -5.4      0.000      0.000
REMARK  5 active torsions:
REMARK  status: ('A' for Active; 'I' for Inactive)
REMARK    1  A    between atoms: C11_2  and  O1_3 
REMARK    2  A    between atoms: C11_2  and  C13_14 
REMARK    3  A    between atoms: O1_3  and  C2_4 
REMARK    4  A    between atoms: C7_5  and  C1_6 
REMARK    5  A    between atoms: C3_10  and  C8_11 
ROOT
ATOM      1  C2  M3S d          35.805  40.539  -4.025  0.00  0.00     0.102 A 
ATOM      2  C7  M3S d          36.164  39.489  -3.159  0.00  0.00    -0.027 A 
ATOM      3  C6  M3S d          36.233  38.189  -3.664  0.00  0.00    -0.074 A 
ATOM      4  C5  M3S d          35.955  37.937  -5.012  0.00  0.00    -0.081 A 
ATOM      5  C4  M3S d          35.597  38.988  -5.876  0.00  0.00    -0.064 A 
ATOM      6  C3  M3S d          35.525  40.287  -5.363  0.00  0.00     0.075 A 
ATOM      7  H4  M3S d          36.504  37.370  -3.008  0.00  0.00     0.084 H 
ATOM      8  H5  M3S d          36.016  36.925  -5.394  0.00  0.00     0.083 H 
ATOM      9  H6  M3S d          35.381  38.794  -6.920  0.00  0.00     0.085 H 
ENDROOT
BRANCH   1  10
ATOM     10  O1  M3S d          35.752  41.797  -3.462  0.00  0.00    -0.278 OA
BRANCH  10  11
ATOM     11  C11 M3S d          36.909  42.452  -3.247  0.00  0.00     0.260 C 
ATOM     12  O12 M3S d          37.820  42.241  -4.043  0.00  0.00    -0.265 OA
BRANCH  11  13
ATOM     13  C13 M3S d          36.939  43.414  -2.098  0.00  0.00     0.004 C 
ATOM     14  H7  M3S d          37.934  43.878  -2.035  0.00  0.00     0.041 H 
ATOM     15  H8  M3S d          36.725  42.877  -1.163  0.00  0.00     0.041 H 
ATOM     16  H9  M3S d          36.180  44.196  -2.254  0.00  0.00     0.041 H 
ENDBRANCH  11  13
ENDBRANCH  10  11
ENDBRANCH   1  10
BRANCH   2  17
ATOM     17  C1  M3S d          36.465  39.806  -1.695  0.00  0.00    -0.049 C 
ATOM     18  H1  M3S d          36.727  38.878  -1.165  0.00  0.00     0.033 H 
ATOM     19  H2  M3S d          35.578  40.258  -1.227  0.00  0.00     0.033 H 
ATOM     20  H3  M3S d          37.308  40.512  -1.638  0.00  0.00     0.033 H 
ENDBRANCH   2  17
BRANCH   6  21
ATOM     21  C8  M3S d          35.122  41.444  -6.363  0.00  0.00     0.212 C 
ATOM     22  O10 M3S d          34.815  42.590  -5.809  0.00  0.00    -0.644 OA
ATOM     23  O9  M3S d          35.198  41.116  -7.612  0.00  0.00    -0.644 OA
ENDBRANCH   6  21
TORSDOF 5
ENDMDL
