MODEL 1
REMARK VINA RESULT:      -4.8      0.000      0.000
REMARK  5 active torsions:
REMARK  status: ('A' for Active; 'I' for Inactive)
REMARK    1  A    between atoms: C11_2  and  O1_3 
REMARK    2  A    between atoms: C11_2  and  C13_14 
REMARK    3  A    between atoms: O1_3  and  C2_4 
REMARK    4  A    between atoms: C7_5  and  C1_6 
REMARK    5  A    between atoms: C3_10  and  C8_11 
ROOT
ATOM      1  C2  M3S d          35.735  40.258  -2.852  0.00  0.00     0.102 A 
ATOM      2  C7  M3S d          35.926  40.644  -1.512  0.00  0.00    -0.027 A 
ATOM      3  C6  M3S d          36.379  39.695  -0.592  0.00  0.00    -0.074 A 
ATOM      4  C5  M3S d          36.644  38.383  -1.001  0.00  0.00    -0.081 A 
ATOM      5  C4  M3S d          36.452  38.000  -2.341  0.00  0.00    -0.064 A 
ATOM      6  C3  M3S d          35.995  38.954  -3.256  0.00  0.00     0.075 A 
ATOM      7  H4  M3S d          36.526  39.976   0.443  0.00  0.00     0.084 H 
ATOM      8  H5  M3S d          36.999  37.656  -0.280  0.00  0.00     0.083 H 
ATOM      9  H6  M3S d          36.656  36.984  -2.659  0.00  0.00     0.085 H 
ENDROOT
BRANCH   1  10
ATOM     10  O1  M3S d          35.284  41.242  -3.707  0.00  0.00    -0.278 OA
BRANCH  10  11
ATOM     11  C11 M3S d          36.140  41.742  -4.617  0.00  0.00     0.260 C 
ATOM     12  O12 M3S d          35.692  41.954  -5.740  0.00  0.00    -0.265 OA
BRANCH  11  13
ATOM     13  C13 M3S d          37.530  42.046  -4.145  0.00  0.00     0.004 C 
ATOM     14  H7  M3S d          37.579  43.088  -3.795  0.00  0.00     0.041 H 
ATOM     15  H8  M3S d          38.238  41.904  -4.974  0.00  0.00     0.041 H 
ATOM     16  H9  M3S d          37.793  41.370  -3.318  0.00  0.00     0.041 H 
ENDBRANCH  11  13
ENDBRANCH  10  11
ENDBRANCH   1  10
BRANCH   2  17
ATOM     17  C1  M3S d          35.631  42.088  -1.107  0.00  0.00    -0.049 C 
ATOM     18  H1  M3S d          34.582  42.326  -1.336  0.00  0.00     0.033 H 
ATOM     19  H2  M3S d          36.292  42.768  -1.665  0.00  0.00     0.033 H 
ATOM     20  H3  M3S d          35.808  42.209  -0.028  0.00  0.00     0.033 H 
ENDBRANCH   2  17
BRANCH   6  21
ATOM     21  C8  M3S d          35.794  38.489  -4.754  0.00  0.00     0.212 C 
ATOM     22  O10 M3S d          36.891  38.206  -5.412  0.00  0.00    -0.644 OA
ATOM     23  O9  M3S d          34.557  38.402  -5.121  0.00  0.00    -0.644 OA
ENDBRANCH   6  21
TORSDOF 5
ENDMDL
MODEL 2
REMARK VINA RESULT:      -4.6      1.245      3.524
REMARK  5 active torsions:
REMARK  status: ('A' for Active; 'I' for Inactive)
REMARK    1  A    between atoms: C11_2  and  O1_3 
REMARK    2  A    between atoms: C11_2  and  C13_14 
REMARK    3  A    between atoms: O1_3  and  C2_4 
REMARK    4  A    between atoms: C7_5  and  C1_6 
REMARK    5  A    between atoms: C3_10  and  C8_11 
ROOT
ATOM      1  C2  M3S d          36.895  39.602  -3.000  0.00  0.00     0.102 A 
ATOM      2  C7  M3S d          36.805  38.795  -1.851  0.00  0.00    -0.027 A 
ATOM      3  C6  M3S d          36.150  39.294  -0.723  0.00  0.00    -0.074 A 
ATOM      4  C5  M3S d          35.588  40.575  -0.739  0.00  0.00    -0.081 A 
ATOM      5  C4  M3S d          35.679  41.380  -1.889  0.00  0.00    -0.064 A 
ATOM      6  C3  M3S d          36.340  40.877  -3.014  0.00  0.00     0.075 A 
ATOM      7  H4  M3S d          36.077  38.685   0.170  0.00  0.00     0.084 H 
ATOM      8  H5  M3S d          35.079  40.951   0.140  0.00  0.00     0.083 H 
ATOM      9  H6  M3S d          35.245  42.373  -1.903  0.00  0.00     0.085 H 
ENDROOT
BRANCH   1  10
ATOM     10  O1  M3S d          37.557  39.051  -4.078  0.00  0.00    -0.278 OA
BRANCH  10  11
ATOM     11  C11 M3S d          36.877  38.221  -4.891  0.00  0.00     0.260 C 
ATOM     12  O12 M3S d          37.532  37.368  -5.484  0.00  0.00    -0.265 OA
BRANCH  11  13
ATOM     13  C13 M3S d          35.387  38.385  -4.936  0.00  0.00     0.004 C 
ATOM     14  H7  M3S d          35.058  38.980  -4.071  0.00  0.00     0.041 H 
ATOM     15  H8  M3S d          34.908  37.397  -4.904  0.00  0.00     0.041 H 
ATOM     16  H9  M3S d          35.103  38.901  -5.865  0.00  0.00     0.041 H 
ENDBRANCH  11  13
ENDBRANCH  10  11
ENDBRANCH   1  10
BRANCH   2  17
ATOM     17  C1  M3S d          37.427  37.399  -1.876  0.00  0.00    -0.049 C 
ATOM     18  H1  M3S d          36.628  36.642  -1.884  0.00  0.00     0.033 H 
ATOM     19  H2  M3S d          38.053  37.261  -0.981  0.00  0.00     0.033 H 
ATOM     20  H3  M3S d          38.047  37.289  -2.778  0.00  0.00     0.033 H 
ENDBRANCH   2  17
BRANCH   6  21
ATOM     21  C8  M3S d          36.420  41.808  -4.290  0.00  0.00     0.212 C 
ATOM     22  O10 M3S d          35.323  41.893  -5.000  0.00  0.00    -0.644 OA
ATOM     23  O9  M3S d          37.556  42.407  -4.438  0.00  0.00    -0.644 OA
ENDBRANCH   6  21
TORSDOF 5
ENDMDL
MODEL 3
REMARK VINA RESULT:      -4.5      1.421      2.125
REMARK  5 active torsions:
REMARK  status: ('A' for Active; 'I' for Inactive)
REMARK    1  A    between atoms: C11_2  and  O1_3 
REMARK    2  A    between atoms: C11_2  and  C13_14 
REMARK    3  A    between atoms: O1_3  and  C2_4 
REMARK    4  A    between atoms: C7_5  and  C1_6 
REMARK    5  A    between atoms: C3_10  and  C8_11 
ROOT
ATOM      1  C2  M3S d          35.851  40.839  -2.448  0.00  0.00     0.102 A 
ATOM      2  C7  M3S d          36.113  40.302  -1.174  0.00  0.00    -0.027 A 
ATOM      3  C6  M3S d          36.413  38.942  -1.061  0.00  0.00    -0.074 A 
ATOM      4  C5  M3S d          36.460  38.130  -2.199  0.00  0.00    -0.081 A 
ATOM      5  C4  M3S d          36.199  38.670  -3.472  0.00  0.00    -0.064 A 
ATOM      6  C3  M3S d          35.894  40.030  -3.578  0.00  0.00     0.075 A 
ATOM      7  H4  M3S d          36.612  38.514  -0.085  0.00  0.00     0.084 H 
ATOM      8  H5  M3S d          36.698  37.078  -2.100  0.00  0.00     0.083 H 
ATOM      9  H6  M3S d          36.234  38.041  -4.355  0.00  0.00     0.085 H 
ENDROOT
BRANCH   1  10
ATOM     10  O1  M3S d          35.559  42.186  -2.489  0.00  0.00    -0.278 OA
BRANCH  10  11
ATOM     11  C11 M3S d          36.571  43.066  -2.375  0.00  0.00     0.260 C 
ATOM     12  O12 M3S d          37.557  42.869  -3.081  0.00  0.00    -0.265 OA
BRANCH  11  13
ATOM     13  C13 M3S d          36.362  44.224  -1.447  0.00  0.00     0.004 C 
ATOM     14  H7  M3S d          36.121  43.850  -0.441  0.00  0.00     0.041 H 
ATOM     15  H8  M3S d          35.532  44.844  -1.816  0.00  0.00     0.041 H 
ATOM     16  H9  M3S d          37.280  44.829  -1.403  0.00  0.00     0.041 H 
ENDBRANCH  11  13
ENDBRANCH  10  11
ENDBRANCH   1  10
BRANCH   2  17
ATOM     17  C1  M3S d          36.058  41.223   0.045  0.00  0.00    -0.049 C 
ATOM     18  H1  M3S d          36.081  40.618   0.963  0.00  0.00     0.033 H 
ATOM     19  H2  M3S d          35.129  41.813   0.017  0.00  0.00     0.033 H 
ATOM     20  H3  M3S d          36.924  41.902   0.031  0.00  0.00     0.033 H 
ENDBRANCH   2  17
BRANCH   6  21
ATOM     21  C8  M3S d          35.610  40.603  -5.025  0.00  0.00     0.212 C 
ATOM     22  O10 M3S d          36.104  41.791  -5.271  0.00  0.00    -0.644 OA
ATOM     23  O9  M3S d          34.961  39.794  -5.797  0.00  0.00    -0.644 OA
ENDBRANCH   6  21
TORSDOF 5
ENDMDL
MODEL 4
REMARK VINA RESULT:      -4.5      1.127      3.331
REMARK  5 active torsions:
REMARK  status: ('A' for Active; 'I' for Inactive)
REMARK    1  A    between atoms: C11_2  and  O1_3 
REMARK    2  A    between atoms: C11_2  and  C13_14 
REMARK    3  A    between atoms: O1_3  and  C2_4 
REMARK    4  A    between atoms: C7_5  and  C1_6 
REMARK    5  A    between atoms: C3_10  and  C8_11 
ROOT
ATOM      1  C2  M3S d          36.607  39.941  -2.775  0.00  0.00     0.102 A 
ATOM      2  C7  M3S d          36.508  39.342  -1.505  0.00  0.00    -0.027 A 
ATOM      3  C6  M3S d          36.073  40.113  -0.425  0.00  0.00    -0.074 A 
ATOM      4  C5  M3S d          35.737  41.459  -0.606  0.00  0.00    -0.081 A 
ATOM      5  C4  M3S d          35.836  42.056  -1.876  0.00  0.00    -0.064 A 
ATOM      6  C3  M3S d          36.275  41.280  -2.953  0.00  0.00     0.075 A 
ATOM      7  H4  M3S d          35.997  39.667   0.559  0.00  0.00     0.084 H 
ATOM      8  H5  M3S d          35.397  42.047   0.239  0.00  0.00     0.083 H 
ATOM      9  H6  M3S d          35.576  43.099  -2.017  0.00  0.00     0.085 H 
ENDROOT
BRANCH   1  10
ATOM     10  O1  M3S d          37.045  39.126  -3.797  0.00  0.00    -0.278 OA
BRANCH  10  11
ATOM     11  C11 M3S d          36.128  38.460  -4.524  0.00  0.00     0.260 C 
ATOM     12  O12 M3S d          34.949  38.676  -4.257  0.00  0.00    -0.265 OA
BRANCH  11  13
ATOM     13  C13 M3S d          36.642  37.577  -5.620  0.00  0.00     0.004 C 
ATOM     14  H7  M3S d          37.560  37.071  -5.284  0.00  0.00     0.041 H 
ATOM     15  H8  M3S d          36.864  38.186  -6.508  0.00  0.00     0.041 H 
ATOM     16  H9  M3S d          35.881  36.824  -5.873  0.00  0.00     0.041 H 
ENDBRANCH  11  13
ENDBRANCH  10  11
ENDBRANCH   1  10
BRANCH   2  17
ATOM     17  C1  M3S d          36.880  37.868  -1.350  0.00  0.00    -0.049 C 
ATOM     18  H1  M3S d          37.966  37.778  -1.194  0.00  0.00     0.033 H 
ATOM     19  H2  M3S d          36.594  37.320  -2.261  0.00  0.00     0.033 H 
ATOM     20  H3  M3S d          36.348  37.444  -0.485  0.00  0.00     0.033 H 
ENDBRANCH   2  17
BRANCH   6  21
ATOM     21  C8  M3S d          36.372  41.983  -4.366  0.00  0.00     0.212 C 
ATOM     22  O10 M3S d          37.556  42.438  -4.692  0.00  0.00    -0.644 OA
ATOM     23  O9  M3S d          35.269  41.971  -5.041  0.00  0.00    -0.644 OA
ENDBRANCH   6  21
TORSDOF 5
ENDMDL
MODEL 5
REMARK VINA RESULT:      -4.4      1.910      3.392
REMARK  5 active torsions:
REMARK  status: ('A' for Active; 'I' for Inactive)
REMARK    1  A    between atoms: C11_2  and  O1_3 
REMARK    2  A    between atoms: C11_2  and  C13_14 
REMARK    3  A    between atoms: O1_3  and  C2_4 
REMARK    4  A    between atoms: C7_5  and  C1_6 
REMARK    5  A    between atoms: C3_10  and  C8_11 
ROOT
ATOM      1  C2  M3S d          35.595  40.551  -4.173  0.00  0.00     0.102 A 
ATOM      2  C7  M3S d          35.253  40.645  -5.535  0.00  0.00    -0.027 A 
ATOM      3  C6  M3S d          35.288  39.493  -6.323  0.00  0.00    -0.074 A 
ATOM      4  C5  M3S d          35.651  38.263  -5.763  0.00  0.00    -0.081 A 
ATOM      5  C4  M3S d          35.991  38.171  -4.401  0.00  0.00    -0.064 A 
ATOM      6  C3  M3S d          35.959  39.329  -3.619  0.00  0.00     0.075 A 
ATOM      7  H4  M3S d          35.032  39.551  -7.375  0.00  0.00     0.084 H 
ATOM      8  H5  M3S d          35.671  37.374  -6.383  0.00  0.00     0.083 H 
ATOM      9  H6  M3S d          36.273  37.219  -3.967  0.00  0.00     0.085 H 
ENDROOT
BRANCH   1  10
ATOM     10  O1  M3S d          35.543  41.726  -3.453  0.00  0.00    -0.278 OA
BRANCH  10  11
ATOM     11  C11 M3S d          36.696  42.374  -3.199  0.00  0.00     0.260 C 
ATOM     12  O12 M3S d          37.557  42.333  -4.073  0.00  0.00    -0.265 OA
BRANCH  11  13
ATOM     13  C13 M3S d          36.779  43.127  -1.905  0.00  0.00     0.004 C 
ATOM     14  H7  M3S d          37.713  43.708  -1.879  0.00  0.00     0.041 H 
ATOM     15  H8  M3S d          36.766  42.417  -1.066  0.00  0.00     0.041 H 
ATOM     16  H9  M3S d          35.920  43.809  -1.822  0.00  0.00     0.041 H 
ENDBRANCH  11  13
ENDBRANCH  10  11
ENDBRANCH   1  10
BRANCH   2  17
ATOM     17  C1  M3S d          34.857  42.006  -6.107  0.00  0.00    -0.049 C 
ATOM     18  H1  M3S d          34.299  41.861  -7.045  0.00  0.00     0.033 H 
ATOM     19  H2  M3S d          35.762  42.598  -6.307  0.00  0.00     0.033 H 
ATOM     20  H3  M3S d          34.223  42.539  -5.382  0.00  0.00     0.033 H 
ENDBRANCH   2  17
BRANCH   6  21
ATOM     21  C8  M3S d          36.344  39.188  -2.092  0.00  0.00     0.212 C 
ATOM     22  O10 M3S d          37.540  38.710  -1.851  0.00  0.00    -0.644 OA
ATOM     23  O9  M3S d          35.437  39.613  -1.274  0.00  0.00    -0.644 OA
ENDBRANCH   6  21
TORSDOF 5
ENDMDL
MODEL 6
REMARK VINA RESULT:      -4.3      1.581      3.541
REMARK  5 active torsions:
REMARK  status: ('A' for Active; 'I' for Inactive)
REMARK    1  A    between atoms: C11_2  and  O1_3 
REMARK    2  A    between atoms: C11_2  and  C13_14 
REMARK    3  A    between atoms: O1_3  and  C2_4 
REMARK    4  A    between atoms: C7_5  and  C1_6 
REMARK    5  A    between atoms: C3_10  and  C8_11 
ROOT
ATOM      1  C2  M3S d          36.617  40.263  -3.343  0.00  0.00     0.102 A 
ATOM      2  C7  M3S d          36.560  38.858  -3.278  0.00  0.00    -0.027 A 
ATOM      3  C6  M3S d          36.388  38.244  -2.035  0.00  0.00    -0.074 A 
ATOM      4  C5  M3S d          36.268  39.017  -0.874  0.00  0.00    -0.081 A 
ATOM      5  C4  M3S d          36.324  40.421  -0.942  0.00  0.00    -0.064 A 
ATOM      6  C3  M3S d          36.500  41.029  -2.189  0.00  0.00     0.075 A 
ATOM      7  H4  M3S d          36.348  37.164  -1.969  0.00  0.00     0.084 H 
ATOM      8  H5  M3S d          36.131  38.531   0.084  0.00  0.00     0.083 H 
ATOM      9  H6  M3S d          36.231  41.020  -0.044  0.00  0.00     0.085 H 
ENDROOT
BRANCH   1  10
ATOM     10  O1  M3S d          36.791  40.804  -4.600  0.00  0.00    -0.278 OA
BRANCH  10  11
ATOM     11  C11 M3S d          35.700  41.193  -5.287  0.00  0.00     0.260 C 
ATOM     12  O12 M3S d          35.369  42.370  -5.180  0.00  0.00    -0.265 OA
BRANCH  11  13
ATOM     13  C13 M3S d          35.045  40.163  -6.158  0.00  0.00     0.004 C 
ATOM     14  H7  M3S d          35.720  39.303  -6.280  0.00  0.00     0.041 H 
ATOM     15  H8  M3S d          34.827  40.600  -7.142  0.00  0.00     0.041 H 
ATOM     16  H9  M3S d          34.108  39.829  -5.689  0.00  0.00     0.041 H 
ENDBRANCH  11  13
ENDBRANCH  10  11
ENDBRANCH   1  10
BRANCH   2  17
ATOM     17  C1  M3S d          36.690  38.050  -4.569  0.00  0.00    -0.049 C 
ATOM     18  H1  M3S d          37.745  38.023  -4.880  0.00  0.00     0.033 H 
ATOM     19  H2  M3S d          36.087  38.522  -5.359  0.00  0.00     0.033 H 
ATOM     20  H3  M3S d          36.332  37.024  -4.397  0.00  0.00     0.033 H 
ENDBRANCH   2  17
BRANCH   6  21
ATOM     21  C8  M3S d          36.555  42.609  -2.228  0.00  0.00     0.212 C 
ATOM     22  O10 M3S d          35.619  43.226  -1.550  0.00  0.00    -0.644 OA
ATOM     23  O9  M3S d          37.557  43.089  -2.891  0.00  0.00    -0.644 OA
ENDBRANCH   6  21
TORSDOF 5
ENDMDL
MODEL 7
REMARK VINA RESULT:      -3.4      1.423      1.985
REMARK  5 active torsions:
REMARK  status: ('A' for Active; 'I' for Inactive)
REMARK    1  A    between atoms: C11_2  and  O1_3 
REMARK    2  A    between atoms: C11_2  and  C13_14 
REMARK    3  A    between atoms: O1_3  and  C2_4 
REMARK    4  A    between atoms: C7_5  and  C1_6 
REMARK    5  A    between atoms: C3_10  and  C8_11 
ROOT
ATOM      1  C2  M3S d          36.642  41.316  -2.633  0.00  0.00     0.102 A 
ATOM      2  C7  M3S d          36.744  42.370  -1.706  0.00  0.00    -0.027 A 
ATOM      3  C6  M3S d          36.446  42.124  -0.364  0.00  0.00    -0.074 A 
ATOM      4  C5  M3S d          36.059  40.845   0.051  0.00  0.00    -0.081 A 
ATOM      5  C4  M3S d          35.959  39.792  -0.876  0.00  0.00    -0.064 A 
ATOM      6  C3  M3S d          36.254  40.047  -2.219  0.00  0.00     0.075 A 
ATOM      7  H4  M3S d          36.516  42.927   0.359  0.00  0.00     0.084 H 
ATOM      8  H5  M3S d          35.834  40.664   1.096  0.00  0.00     0.083 H 
ATOM      9  H6  M3S d          35.658  38.802  -0.555  0.00  0.00     0.085 H 
ENDROOT
BRANCH   1  10
ATOM     10  O1  M3S d          36.947  41.628  -3.941  0.00  0.00    -0.278 OA
BRANCH  10  11
ATOM     11  C11 M3S d          35.937  41.750  -4.823  0.00  0.00     0.260 C 
ATOM     12  O12 M3S d          35.215  42.736  -4.704  0.00  0.00    -0.265 OA
BRANCH  11  13
ATOM     13  C13 M3S d          35.841  40.704  -5.893  0.00  0.00     0.004 C 
ATOM     14  H7  M3S d          35.426  39.779  -5.466  0.00  0.00     0.041 H 
ATOM     15  H8  M3S d          36.842  40.503  -6.300  0.00  0.00     0.041 H 
ATOM     16  H9  M3S d          35.183  41.063  -6.699  0.00  0.00     0.041 H 
ENDBRANCH  11  13
ENDBRANCH  10  11
ENDBRANCH   1  10
BRANCH   2  17
ATOM     17  C1  M3S d          37.176  43.751  -2.199  0.00  0.00    -0.049 C 
ATOM     18  H1  M3S d          38.062  43.650  -2.845  0.00  0.00     0.033 H 
ATOM     19  H2  M3S d          37.422  44.388  -1.337  0.00  0.00     0.033 H 
ATOM     20  H3  M3S d          36.356  44.210  -2.771  0.00  0.00     0.033 H 
ENDBRANCH   2  17
BRANCH   6  21
ATOM     21  C8  M3S d          36.133  38.839  -3.233  0.00  0.00     0.212 C 
ATOM     22  O10 M3S d          37.186  38.063  -3.318  0.00  0.00    -0.644 OA
ATOM     23  O9  M3S d          34.982  38.748  -3.815  0.00  0.00    -0.644 OA
ENDBRANCH   6  21
TORSDOF 5
ENDMDL
MODEL 8
REMARK VINA RESULT:      -3.1      1.774      3.906
REMARK  5 active torsions:
REMARK  status: ('A' for Active; 'I' for Inactive)
REMARK    1  A    between atoms: C11_2  and  O1_3 
REMARK    2  A    between atoms: C11_2  and  C13_14 
REMARK    3  A    between atoms: O1_3  and  C2_4 
REMARK    4  A    between atoms: C7_5  and  C1_6 
REMARK    5  A    between atoms: C3_10  and  C8_11 
ROOT
ATOM      1  C2  M3S d          36.831  39.301  -3.496  0.00  0.00     0.102 A 
ATOM      2  C7  M3S d          36.964  37.901  -3.527  0.00  0.00    -0.027 A 
ATOM      3  C6  M3S d          36.548  37.206  -4.665  0.00  0.00    -0.074 A 
ATOM      4  C5  M3S d          36.014  37.895  -5.759  0.00  0.00    -0.081 A 
ATOM      5  C4  M3S d          35.883  39.296  -5.727  0.00  0.00    -0.064 A 
ATOM      6  C3  M3S d          36.297  39.985  -4.583  0.00  0.00     0.075 A 
ATOM      7  H4  M3S d          36.640  36.127  -4.701  0.00  0.00     0.084 H 
ATOM      8  H5  M3S d          35.698  37.347  -6.639  0.00  0.00     0.083 H 
ATOM      9  H6  M3S d          35.469  39.830  -6.574  0.00  0.00     0.085 H 
ENDROOT
BRANCH   1  10
ATOM     10  O1  M3S d          37.257  39.925  -2.342  0.00  0.00    -0.278 OA
BRANCH  10  11
ATOM     11  C11 M3S d          36.330  40.443  -1.513  0.00  0.00     0.260 C 
ATOM     12  O12 M3S d          35.522  39.656  -1.027  0.00  0.00    -0.265 OA
BRANCH  11  13
ATOM     13  C13 M3S d          36.424  41.911  -1.224  0.00  0.00     0.004 C 
ATOM     14  H7  M3S d          36.434  42.070  -0.135  0.00  0.00     0.041 H 
ATOM     15  H8  M3S d          35.557  42.427  -1.662  0.00  0.00     0.041 H 
ATOM     16  H9  M3S d          37.350  42.312  -1.661  0.00  0.00     0.041 H 
ENDBRANCH  11  13
ENDBRANCH  10  11
ENDBRANCH   1  10
BRANCH   2  17
ATOM     17  C1  M3S d          37.557  37.186  -2.313  0.00  0.00    -0.049 C 
ATOM     18  H1  M3S d          37.490  36.097  -2.460  0.00  0.00     0.033 H 
ATOM     19  H2  M3S d          36.996  37.469  -1.410  0.00  0.00     0.033 H 
ATOM     20  H3  M3S d          38.612  37.477  -2.195  0.00  0.00     0.033 H 
ENDBRANCH   2  17
BRANCH   6  21
ATOM     21  C8  M3S d          36.137  41.558  -4.582  0.00  0.00     0.212 C 
ATOM     22  O10 M3S d          34.908  42.003  -4.669  0.00  0.00    -0.644 OA
ATOM     23  O9  M3S d          37.249  42.204  -4.445  0.00  0.00    -0.644 OA
ENDBRANCH   6  21
TORSDOF 5
ENDMDL
MODEL 9
REMARK VINA RESULT:      -3.0      1.987      4.709
REMARK  5 active torsions:
REMARK  status: ('A' for Active; 'I' for Inactive)
REMARK    1  A    between atoms: C11_2  and  O1_3 
REMARK    2  A    between atoms: C11_2  and  C13_14 
REMARK    3  A    between atoms: O1_3  and  C2_4 
REMARK    4  A    between atoms: C7_5  and  C1_6 
REMARK    5  A    between atoms: C3_10  and  C8_11 
ROOT
ATOM      1  C2  M3S d          36.419  40.107  -4.062  0.00  0.00     0.102 A 
ATOM      2  C7  M3S d          36.037  39.299  -5.149  0.00  0.00    -0.027 A 
ATOM      3  C6  M3S d          35.293  39.866  -6.186  0.00  0.00    -0.074 A 
ATOM      4  C5  M3S d          34.940  41.219  -6.146  0.00  0.00    -0.081 A 
ATOM      5  C4  M3S d          35.324  42.026  -5.059  0.00  0.00    -0.064 A 
ATOM      6  C3  M3S d          36.065  41.451  -4.022  0.00  0.00     0.075 A 
ATOM      7  H4  M3S d          34.987  39.255  -7.027  0.00  0.00     0.084 H 
ATOM      8  H5  M3S d          34.365  41.650  -6.958  0.00  0.00     0.083 H 
ATOM      9  H6  M3S d          35.050  43.074  -5.027  0.00  0.00     0.085 H 
ENDROOT
BRANCH   1  10
ATOM     10  O1  M3S d          37.150  39.484  -3.072  0.00  0.00    -0.278 OA
BRANCH  10  11
ATOM     11  C11 M3S d          36.484  38.859  -2.082  0.00  0.00     0.260 C 
ATOM     12  O12 M3S d          35.306  39.167  -1.927  0.00  0.00    -0.265 OA
BRANCH  11  13
ATOM     13  C13 M3S d          37.235  37.810  -1.318  0.00  0.00     0.004 C 
ATOM     14  H7  M3S d          38.061  37.427  -1.936  0.00  0.00     0.041 H 
ATOM     15  H8  M3S d          36.555  36.985  -1.063  0.00  0.00     0.041 H 
ATOM     16  H9  M3S d          37.641  38.249  -0.395  0.00  0.00     0.041 H 
ENDBRANCH  11  13
ENDBRANCH  10  11
ENDBRANCH   1  10
BRANCH   2  17
ATOM     17  C1  M3S d          36.447  37.826  -5.158  0.00  0.00    -0.049 C 
ATOM     18  H1  M3S d          35.842  37.282  -5.898  0.00  0.00     0.033 H 
ATOM     19  H2  M3S d          36.283  37.394  -4.160  0.00  0.00     0.033 H 
ATOM     20  H3  M3S d          37.512  37.744  -5.422  0.00  0.00     0.033 H 
ENDBRANCH   2  17
BRANCH   6  21
ATOM     21  C8  M3S d          36.482  42.388  -2.818  0.00  0.00     0.212 C 
ATOM     22  O10 M3S d          35.723  42.313  -1.753  0.00  0.00    -0.644 OA
ATOM     23  O9  M3S d          37.557  43.075  -3.028  0.00  0.00    -0.644 OA
ENDBRANCH   6  21
TORSDOF 5
ENDMDL
MODEL 10
REMARK VINA RESULT:      -2.9      1.727      3.193
REMARK  5 active torsions:
REMARK  status: ('A' for Active; 'I' for Inactive)
REMARK    1  A    between atoms: C11_2  and  O1_3 
REMARK    2  A    between atoms: C11_2  and  C13_14 
REMARK    3  A    between atoms: O1_3  and  C2_4 
REMARK    4  A    between atoms: C7_5  and  C1_6 
REMARK    5  A    between atoms: C3_10  and  C8_11 
ROOT
ATOM      1  C2  M3S d          36.486  39.916  -3.256  0.00  0.00     0.102 A 
ATOM      2  C7  M3S d          35.951  41.217  -3.285  0.00  0.00    -0.027 A 
ATOM      3  C6  M3S d          35.696  41.871  -2.077  0.00  0.00    -0.074 A 
ATOM      4  C5  M3S d          35.973  41.241  -0.859  0.00  0.00    -0.081 A 
ATOM      5  C4  M3S d          36.509  39.941  -0.832  0.00  0.00    -0.064 A 
ATOM      6  C3  M3S d          36.758  39.290  -2.045  0.00  0.00     0.075 A 
ATOM      7  H4  M3S d          35.280  42.871  -2.084  0.00  0.00     0.084 H 
ATOM      8  H5  M3S d          35.775  41.759   0.072  0.00  0.00     0.083 H 
ATOM      9  H6  M3S d          36.723  39.452   0.111  0.00  0.00     0.085 H 
ENDROOT
BRANCH   1  10
ATOM     10  O1  M3S d          36.712  39.327  -4.482  0.00  0.00    -0.278 OA
BRANCH  10  11
ATOM     11  C11 M3S d          35.717  38.613  -5.044  0.00  0.00     0.260 C 
ATOM     12  O12 M3S d          34.624  38.655  -4.486  0.00  0.00    -0.265 OA
BRANCH  11  13
ATOM     13  C13 M3S d          36.034  37.898  -6.322  0.00  0.00     0.004 C 
ATOM     14  H7  M3S d          35.496  38.376  -7.154  0.00  0.00     0.041 H 
ATOM     15  H8  M3S d          35.724  36.846  -6.241  0.00  0.00     0.041 H 
ATOM     16  H9  M3S d          37.117  37.946  -6.511  0.00  0.00     0.041 H 
ENDBRANCH  11  13
ENDBRANCH  10  11
ENDBRANCH   1  10
BRANCH   2  17
ATOM     17  C1  M3S d          35.667  41.872  -4.636  0.00  0.00    -0.049 C 
ATOM     18  H1  M3S d          34.769  41.419  -5.082  0.00  0.00     0.033 H 
ATOM     19  H2  M3S d          36.527  41.719  -5.306  0.00  0.00     0.033 H 
ATOM     20  H3  M3S d          35.502  42.951  -4.494  0.00  0.00     0.033 H 
ENDBRANCH   2  17
BRANCH   6  21
ATOM     21  C8  M3S d          37.362  37.830  -1.978  0.00  0.00     0.212 C 
ATOM     22  O10 M3S d          37.557  37.353  -0.773  0.00  0.00    -0.644 OA
ATOM     23  O9  M3S d          37.541  37.276  -3.132  0.00  0.00    -0.644 OA
ENDBRANCH   6  21
TORSDOF 5
ENDMDL
