REMARK WARNING: 32 MAX_TORS EXCEEDED!!!
REMARK  34 active torsions:
REMARK  status: ('A' for Active; 'I' for Inactive)
REMARK    1  A    between atoms: N_1  and  CA_2 
REMARK    2  A    between atoms: CA_2  and  CB_3 
REMARK    3  A    between atoms: CA_2  and  C_6 
REMARK    4  A    between atoms: CB_3  and  CG1_4 
REMARK    5  A    between atoms: CB_3  and  CG2_5 
REMARK       I    between atoms: C_6  and  N_8 
REMARK    6  A    between atoms: CA_9  and  C_13 
REMARK       I    between atoms: C_13  and  N_15 
REMARK    7  A    between atoms: N_15  and  CA_16 
REMARK    8  A    between atoms: CA_16  and  C_17 
REMARK       I    between atoms: C_17  and  N_19 
REMARK    9  A    between atoms: N_19  and  CA_20 
REMARK   10  A    between atoms: CA_20  and  C_21 
REMARK   11  A    between atoms: CA_20  and  CB_23 
REMARK       I    between atoms: C_21  and  N_25 
REMARK   12  A    between atoms: CB_23  and  OG_24 
REMARK   13  A    between atoms: N_25  and  CA_26 
REMARK   14  A    between atoms: CA_26  and  C_27 
REMARK   15  A    between atoms: CA_26  and  CB_29 
REMARK       I    between atoms: C_27  and  N_34 
REMARK   16  A    between atoms: CB_29  and  CG_30 
REMARK   17  A    between atoms: CG_30  and  CD_31 
REMARK       I    between atoms: CD_31  and  NE2_33 
REMARK   18  A    between atoms: N_34  and  CA_35 
REMARK   19  A    between atoms: CA_35  and  C_36 
REMARK   20  A    between atoms: CA_35  and  CB_38 
REMARK       I    between atoms: C_36  and  N_44 
REMARK   21  A    between atoms: CB_38  and  CG_39 
REMARK   22  A    between atoms: N_44  and  CA_45 
REMARK   23  A    between atoms: CA_45  and  C_46 
REMARK   24  A    between atoms: CA_45  and  CB_48 
REMARK       I    between atoms: C_46  and  N_56 
REMARK   25  A    between atoms: CB_48  and  CG_49 
REMARK   26  A    between atoms: CZ_54  and  OH_55 
REMARK   27  A    between atoms: N_56  and  CA_57 
REMARK   28  A    between atoms: CA_57  and  C_58 
REMARK   29  A    between atoms: CA_57  and  CB_60 
REMARK       I    between atoms: C_58  and  N_64 
REMARK   30  A    between atoms: CB_60  and  CG_61 
REMARK   31  A    between atoms: N_64  and  CA_65 
REMARK   32  A    between atoms: CA_65  and  C_66 
REMARK   33  A    between atoms: CA_65  and  CB_69 
REMARK   34  A    between atoms: CB_69  and  OG_70 
ROOT
ATOM      1  CA  DVA d          43.120  56.086  87.579  0.00  0.00     0.090 C 
ATOM      2  H28 DVA d          43.744  56.647  88.291  0.00  0.00     0.087 H 
ENDROOT
BRANCH   1   3
ATOM      3  N   DVA d          42.539  54.943  88.264  0.00  0.00    -0.346 N 
ATOM      4  C   DVA d          43.320  54.160  88.986  0.00  0.00     0.243 C 
ATOM      5  O   DVA d          44.516  54.368  89.114  0.00  0.00    -0.271 OA
ATOM      6  H27 DVA d          41.560  54.752  88.189  0.00  0.00     0.163 HD
BRANCH   4   7
ATOM      7  CA  DVA d          42.674  52.955  89.643  0.00  0.00     0.109 C 
ATOM      8  H23 DVA d          41.581  53.069  89.686  0.00  0.00     0.090 H 
BRANCH   7   9
ATOM      9  N   DVA d          43.220  52.837  90.976  0.00  0.00    -0.344 N 
ATOM     10  C   DVA d          42.444  52.741  92.044  0.00  0.00     0.236 C 
ATOM     11  O   DVA d          41.214  52.740  91.986  0.00  0.00    -0.272 OA
ATOM     12  H22 DVA d          44.213  52.828  91.095  0.00  0.00     0.163 HD
BRANCH  10  13
ATOM     13  CA  DVA d          43.150  52.627  93.370  0.00  0.00     0.069 C 
ATOM     14  H20 DVA d          43.805  51.743  93.373  0.00  0.00     0.078 H 
ATOM     15  H21 DVA d          43.751  53.529  93.555  0.00  0.00     0.078 H 
BRANCH  13  16
ATOM     16  N   DVA d          42.135  52.493  94.386  0.00  0.00    -0.351 N 
ATOM     17  C   DVA d          42.324  51.718  95.445  0.00  0.00     0.241 C 
ATOM     18  O   DVA d          43.363  51.081  95.643  0.00  0.00    -0.271 OA
ATOM     19  H19 DVA d          41.274  52.993  94.290  0.00  0.00     0.163 HD
BRANCH  17  20
ATOM     20  CA  DVA d          41.158  51.675  96.430  0.00  0.00     0.091 C 
ATOM     21  N   DVA d          40.446  52.962  96.440  0.00  0.00    -0.337 N 
ATOM     22  C   DVA d          39.557  53.559  95.604  0.00  0.00     0.251 C 
ATOM     23  CD  DVA d          40.810  53.725  97.650  0.00  0.00    -0.001 C 
ATOM     24  O   DVA d          39.126  54.696  95.831  0.00  0.00    -0.271 OA
ATOM     25  CG  DVA d          41.998  52.951  98.190  0.00  0.00    -0.048 C 
ATOM     26  H17 DVA d          39.983  53.737  98.375  0.00  0.00     0.064 H 
ATOM     27  H18 DVA d          41.092  54.758  97.397  0.00  0.00     0.064 H 
ATOM     28  CB  DVA d          41.639  51.543  97.868  0.00  0.00    -0.036 C 
ATOM     29  H15 DVA d          42.929  53.249  97.686  0.00  0.00     0.035 H 
ATOM     30  H16 DVA d          42.106  53.095  99.275  0.00  0.00     0.035 H 
ATOM     31  H13 DVA d          42.513  50.879  97.940  0.00  0.00     0.036 H 
ATOM     32  H14 DVA d          40.840  51.171  98.527  0.00  0.00     0.036 H 
ATOM     33  H12 DVA d          40.483  50.848  96.163  0.00  0.00     0.087 H 
BRANCH  22  34
ATOM     34  CA  DVA d          39.106  52.825  94.319  0.00  0.00     0.178 C 
ATOM     35  H4  DVA d          39.910  52.938  93.577  0.00  0.00     0.099 H 
BRANCH  34  36
ATOM     36  N   DVA d          37.882  53.485  93.785  0.00  0.00    -0.066 N 
ATOM     37  H1  DVA d          37.583  53.011  92.947  0.00  0.00     0.275 HD
ATOM     38  H2  DVA d          38.086  54.449  93.571  0.00  0.00     0.275 HD
ATOM     39  H3  DVA d          37.149  53.442  94.475  0.00  0.00     0.275 HD
ENDBRANCH  34  36
BRANCH  34  40
ATOM     40  CB  DVA d          38.857  51.314  94.494  0.00  0.00    -0.025 C 
ATOM     41  H5  DVA d          39.794  50.825  94.800  0.00  0.00     0.042 H 
BRANCH  40  42
ATOM     42  CG1 DVA d          37.802  51.073  95.562  0.00  0.00    -0.071 C 
ATOM     43  H6  DVA d          37.635  49.992  95.675  0.00  0.00     0.028 H 
ATOM     44  H7  DVA d          36.861  51.560  95.265  0.00  0.00     0.028 H 
ATOM     45  H8  DVA d          38.146  51.493  96.519  0.00  0.00     0.028 H 
ENDBRANCH  40  42
BRANCH  40  46
ATOM     46  CG2 DVA d          38.396  50.730  93.156  0.00  0.00    -0.071 C 
ATOM     47  H9  DVA d          39.167  50.910  92.392  0.00  0.00     0.028 H 
ATOM     48  H10 DVA d          37.456  51.212  92.850  0.00  0.00     0.028 H 
ATOM     49  H11 DVA d          38.234  49.648  93.265  0.00  0.00     0.028 H 
ENDBRANCH  40  46
ENDBRANCH  34  40
ENDBRANCH  22  34
ENDBRANCH  17  20
ENDBRANCH  13  16
ENDBRANCH  10  13
ENDBRANCH   7   9
BRANCH   7  50
ATOM     50  CB  DVA d          43.051  51.733  88.812  0.00  0.00     0.044 C 
ATOM     51  H24 DVA d          42.508  50.854  89.190  0.00  0.00     0.077 H 
ATOM     52  H25 DVA d          44.134  51.558  88.893  0.00  0.00     0.077 H 
BRANCH  50  53
ATOM     53  OG  DVA d          42.710  51.945  87.452  0.00  0.00    -0.398 OA
ATOM     54  H26 DVA d          42.949  51.179  86.944  0.00  0.00     0.209 HD
ENDBRANCH  50  53
ENDBRANCH   7  50
ENDBRANCH   4   7
ENDBRANCH   1   3
BRANCH   1  55
ATOM     55  C   DVA d          43.998  55.626  86.418  0.00  0.00     0.241 C 
ATOM     56  O   DVA d          44.803  56.402  85.894  0.00  0.00    -0.271 OA
ATOM     57  N   DVA d          43.840  54.363  86.019  0.00  0.00    -0.346 N 
ATOM     58  H35 DVA d          43.191  53.776  86.504  0.00  0.00     0.163 HD
BRANCH  57  59
ATOM     59  CA  DVA d          44.600  53.808  84.878  0.00  0.00     0.094 C 
ATOM     60  H36 DVA d          44.789  54.628  84.170  0.00  0.00     0.088 H 
BRANCH  59  61
ATOM     61  C   DVA d          45.906  53.177  85.265  0.00  0.00     0.241 C 
ATOM     62  O   DVA d          46.834  53.117  84.446  0.00  0.00    -0.271 OA
ATOM     63  N   DVA d          45.964  52.678  86.495  0.00  0.00    -0.346 N 
ATOM     64  H42 DVA d          45.205  52.828  87.128  0.00  0.00     0.163 HD
BRANCH  63  65
ATOM     65  CA  DVA d          47.131  51.911  86.929  0.00  0.00     0.093 C 
ATOM     66  H43 DVA d          47.876  51.959  86.121  0.00  0.00     0.088 H 
BRANCH  65  67
ATOM     67  C   DVA d          47.815  52.409  88.196  0.00  0.00     0.241 C 
ATOM     68  O   DVA d          48.925  51.970  88.510  0.00  0.00    -0.271 OA
ATOM     69  N   DVA d          47.145  53.307  88.916  0.00  0.00    -0.345 N 
ATOM     70  H51 DVA d          46.242  53.602  88.604  0.00  0.00     0.163 HD
BRANCH  69  71
ATOM     71  CA  DVA d          47.691  53.878  90.155  0.00  0.00     0.098 C 
ATOM     72  H52 DVA d          48.662  53.396  90.344  0.00  0.00     0.088 H 
BRANCH  71  73
ATOM     73  C   DVA d          47.910  55.389  90.103  0.00  0.00     0.241 C 
ATOM     74  O   DVA d          47.612  56.051  89.100  0.00  0.00    -0.271 OA
ATOM     75  N   DVA d          48.420  55.898  91.226  0.00  0.00    -0.343 N 
ATOM     76  H55 DVA d          48.630  55.251  91.959  0.00  0.00     0.163 HD
BRANCH  75  77
ATOM     77  CA  DVA d          48.702  57.310  91.491  0.00  0.00     0.116 C 
ATOM     78  H56 DVA d          48.472  57.483  92.553  0.00  0.00     0.093 H 
BRANCH  77  79
ATOM     79  C   DVA d          50.160  57.695  91.285  0.00  0.00     0.198 C 
ATOM     80  O   DVA d          50.450  58.439  90.326  0.00  0.00    -0.646 OA
ATOM     81  OXT DVA d          50.993  57.242  92.104  0.00  0.00    -0.646 OA
ENDBRANCH  77  79
BRANCH  77  82
ATOM     82  CB  DVA d          47.791  58.230  90.669  0.00  0.00     0.045 C 
ATOM     83  H57 DVA d          46.743  57.935  90.829  0.00  0.00     0.077 H 
ATOM     84  H58 DVA d          48.043  58.127  89.603  0.00  0.00     0.077 H 
BRANCH  82  85
ATOM     85  OG  DVA d          47.955  59.589  91.056  0.00  0.00    -0.398 OA
ATOM     86  H59 DVA d          48.858  59.850  90.917  0.00  0.00     0.209 HD
ENDBRANCH  82  85
ENDBRANCH  77  82
ENDBRANCH  75  77
ENDBRANCH  71  73
BRANCH  71  87
ATOM     87  CB  DVA d          46.757  53.593  91.333  0.00  0.00     0.043 C 
ATOM     88  H53 DVA d          45.805  54.117  91.162  0.00  0.00     0.052 H 
ATOM     89  H54 DVA d          47.225  53.973  92.253  0.00  0.00     0.052 H 
BRANCH  87  90
ATOM     90  CG  DVA d          46.475  52.124  91.507  0.00  0.00     0.175 C 
ATOM     91  OD1 DVA d          47.416  51.314  91.358  0.00  0.00    -0.648 OA
ATOM     92  OD2 DVA d          45.321  51.777  91.808  0.00  0.00    -0.648 OA
ENDBRANCH  87  90
ENDBRANCH  71  87
ENDBRANCH  69  71
ENDBRANCH  65  67
BRANCH  65  93
ATOM     93  CB  DVA d          46.699  50.452  87.108  0.00  0.00    -0.014 C 
ATOM     94  H44 DVA d          46.029  50.388  87.978  0.00  0.00     0.043 H 
ATOM     95  H45 DVA d          47.595  49.840  87.289  0.00  0.00     0.043 H 
BRANCH  93  96
ATOM     96  CG  DVA d          45.971  49.900  85.892  0.00  0.00    -0.056 A 
ATOM     97  CD1 DVA d          46.616  49.799  84.655  0.00  0.00    -0.074 A 
ATOM     98  CE1 DVA d          45.953  49.324  83.511  0.00  0.00    -0.051 A 
ATOM     99  H46 DVA d          47.656  50.095  84.577  0.00  0.00     0.084 H 
ATOM    100  CZ  DVA d          44.604  48.935  83.623  0.00  0.00     0.065 A 
ATOM    101  H48 DVA d          46.470  49.258  82.560  0.00  0.00     0.087 H 
ATOM    102  CE2 DVA d          43.947  49.029  84.841  0.00  0.00    -0.051 A 
ATOM    103  CD2 DVA d          44.627  49.511  85.974  0.00  0.00    -0.074 A 
ATOM    104  H49 DVA d          42.908  48.730  84.920  0.00  0.00     0.087 H 
ATOM    105  H47 DVA d          44.105  49.582  86.922  0.00  0.00     0.084 H 
BRANCH 100 106
ATOM    106  OH  DVA d          43.922  48.442  82.533  0.00  0.00    -0.361 OA
ATOM    107  H50 DVA d          44.497  48.437  81.777  0.00  0.00     0.217 HD
ENDBRANCH 100 106
ENDBRANCH  93  96
ENDBRANCH  65  93
ENDBRANCH  63  65
ENDBRANCH  59  61
BRANCH  59 108
ATOM    108  CB  DVA d          43.835  52.686  84.173  0.00  0.00     0.004 C 
ATOM    109  H37 DVA d          43.511  51.960  84.933  0.00  0.00     0.046 H 
ATOM    110  H38 DVA d          44.519  52.195  83.465  0.00  0.00     0.046 H 
BRANCH 108 111
ATOM    111  CG  DVA d          42.625  53.142  83.415  0.00  0.00     0.053 A 
ATOM    112  ND1 DVA d          42.695  53.683  82.146  0.00  0.00    -0.247 NA
ATOM    113  CE1 DVA d          41.471  53.965  81.723  0.00  0.00     0.064 A 
ATOM    114  NE2 DVA d          40.611  53.629  82.677  0.00  0.00    -0.359 N 
ATOM    115  H40 DVA d          41.214  54.398  80.757  0.00  0.00     0.143 H 
ATOM    116  CD2 DVA d          41.312  53.114  83.745  0.00  0.00     0.002 A 
ATOM    117  H41 DVA d          39.588  53.736  82.627  0.00  0.00     0.166 HD
ATOM    118  H39 DVA d          40.889  52.752  84.681  0.00  0.00     0.114 H 
ENDBRANCH 108 111
ENDBRANCH  59 108
ENDBRANCH  57  59
ENDBRANCH   1  55
BRANCH   1 119
ATOM    119  CB  DVA d          42.001  57.004  87.071  0.00  0.00    -0.030 C 
ATOM    120  H29 DVA d          41.310  56.417  86.448  0.00  0.00     0.037 H 
ATOM    121  H30 DVA d          42.444  57.811  86.468  0.00  0.00     0.037 H 
BRANCH 119 122
ATOM    122  CG  DVA d          41.214  57.627  88.250  0.00  0.00     0.011 C 
ATOM    123  H31 DVA d          41.891  58.295  88.802  0.00  0.00     0.047 H 
ATOM    124  H32 DVA d          40.882  56.813  88.912  0.00  0.00     0.047 H 
BRANCH 122 125
ATOM    125  CD  DVA d          39.977  58.438  87.825  0.00  0.00     0.215 C 
ATOM    126  OE1 DVA d          39.245  58.979  88.674  0.00  0.00    -0.274 OA
ATOM    127  NE2 DVA d          39.750  58.531  86.531  0.00  0.00    -0.370 N 
ATOM    128  H33 DVA d          38.960  59.046  86.198  0.00  0.00     0.159 HD
ATOM    129  H34 DVA d          40.367  58.087  85.882  0.00  0.00     0.159 HD
ENDBRANCH 122 125
ENDBRANCH 119 122
ENDBRANCH   1 119
TORSDOF 34
