MODEL 1
REMARK VINA RESULT:      -5.3      0.000      0.000
REMARK WARNING: 32 MAX_TORS EXCEEDED!!!
REMARK  34 active torsions:
REMARK  status: ('A' for Active; 'I' for Inactive)
REMARK    1  A    between atoms: N_1  and  CA_2 
REMARK    2  A    between atoms: CA_2  and  CB_3 
REMARK    3  A    between atoms: CA_2  and  C_6 
REMARK    4  A    between atoms: CB_3  and  CG1_4 
REMARK    5  A    between atoms: CB_3  and  CG2_5 
REMARK       I    between atoms: C_6  and  N_8 
REMARK    6  A    between atoms: CA_9  and  C_13 
REMARK       I    between atoms: C_13  and  N_15 
REMARK    7  A    between atoms: N_15  and  CA_16 
REMARK    8  A    between atoms: CA_16  and  C_17 
REMARK       I    between atoms: C_17  and  N_19 
REMARK    9  A    between atoms: N_19  and  CA_20 
REMARK   10  A    between atoms: CA_20  and  C_21 
REMARK   11  A    between atoms: CA_20  and  CB_23 
REMARK       I    between atoms: C_21  and  N_25 
REMARK   12  A    between atoms: CB_23  and  OG_24 
REMARK   13  A    between atoms: N_25  and  CA_26 
REMARK   14  A    between atoms: CA_26  and  C_27 
REMARK   15  A    between atoms: CA_26  and  CB_29 
REMARK       I    between atoms: C_27  and  N_34 
REMARK   16  A    between atoms: CB_29  and  CG_30 
REMARK   17  A    between atoms: CG_30  and  CD_31 
REMARK       I    between atoms: CD_31  and  NE2_33 
REMARK   18  A    between atoms: N_34  and  CA_35 
REMARK   19  A    between atoms: CA_35  and  C_36 
REMARK   20  A    between atoms: CA_35  and  CB_38 
REMARK       I    between atoms: C_36  and  N_44 
REMARK   21  A    between atoms: CB_38  and  CG_39 
REMARK   22  A    between atoms: N_44  and  CA_45 
REMARK   23  A    between atoms: CA_45  and  C_46 
REMARK   24  A    between atoms: CA_45  and  CB_48 
REMARK       I    between atoms: C_46  and  N_56 
REMARK   25  A    between atoms: CB_48  and  CG_49 
REMARK   26  A    between atoms: CZ_54  and  OH_55 
REMARK   27  A    between atoms: N_56  and  CA_57 
REMARK   28  A    between atoms: CA_57  and  C_58 
REMARK   29  A    between atoms: CA_57  and  CB_60 
REMARK       I    between atoms: C_58  and  N_64 
REMARK   30  A    between atoms: CB_60  and  CG_61 
REMARK   31  A    between atoms: N_64  and  CA_65 
REMARK   32  A    between atoms: CA_65  and  C_66 
REMARK   33  A    between atoms: CA_65  and  CB_69 
REMARK   34  A    between atoms: CB_69  and  OG_70 
ROOT
ATOM      1  CA  DVA d          46.027  54.519  88.417  0.00  0.00     0.090 C 
ATOM      2  H28 DVA d          46.647  55.338  88.812  0.00  0.00     0.087 H 
ENDROOT
BRANCH   1   3
ATOM      3  N   DVA d          45.863  54.703  86.985  0.00  0.00    -0.346 N 
ATOM      4  C   DVA d          46.558  55.644  86.372  0.00  0.00     0.243 C 
ATOM      5  O   DVA d          47.351  56.360  86.963  0.00  0.00    -0.271 OA
ATOM      6  H27 DVA d          45.230  54.124  86.470  0.00  0.00     0.163 HD
BRANCH   4   7
ATOM      7  CA  DVA d          46.317  55.826  84.886  0.00  0.00     0.109 C 
ATOM      8  H23 DVA d          45.312  56.233  84.698  0.00  0.00     0.090 H 
BRANCH   7   9
ATOM      9  N   DVA d          46.461  54.533  84.256  0.00  0.00    -0.344 N 
ATOM     10  C   DVA d          47.646  53.971  84.076  0.00  0.00     0.236 C 
ATOM     11  O   DVA d          48.702  54.496  84.430  0.00  0.00    -0.272 OA
ATOM     12  H22 DVA d          45.643  54.049  83.947  0.00  0.00     0.163 HD
BRANCH  10  13
ATOM     13  CA  DVA d          47.647  52.623  83.404  0.00  0.00     0.069 C 
ATOM     14  H20 DVA d          47.712  52.747  82.313  0.00  0.00     0.078 H 
ATOM     15  H21 DVA d          48.501  52.027  83.756  0.00  0.00     0.078 H 
BRANCH  13  16
ATOM     16  N   DVA d          46.410  51.969  83.754  0.00  0.00    -0.351 N 
ATOM     17  C   DVA d          45.711  51.297  82.850  0.00  0.00     0.241 C 
ATOM     18  O   DVA d          46.065  51.172  81.674  0.00  0.00    -0.271 OA
ATOM     19  H19 DVA d          46.075  52.023  84.695  0.00  0.00     0.163 HD
BRANCH  17  20
ATOM     20  CA  DVA d          44.423  50.663  83.370  0.00  0.00     0.091 C 
ATOM     21  N   DVA d          44.109  51.167  84.716  0.00  0.00    -0.337 N 
ATOM     22  C   DVA d          43.587  52.326  85.195  0.00  0.00     0.251 C 
ATOM     23  CD  DVA d          44.450  50.144  85.724  0.00  0.00    -0.001 C 
ATOM     24  O   DVA d          43.458  52.518  86.410  0.00  0.00    -0.271 OA
ATOM     25  CG  DVA d          45.257  49.140  84.924  0.00  0.00    -0.048 C 
ATOM     26  H17 DVA d          43.543  49.681  86.141  0.00  0.00     0.064 H 
ATOM     27  H18 DVA d          45.050  50.576  86.539  0.00  0.00     0.064 H 
ATOM     28  CB  DVA d          44.583  49.167  83.598  0.00  0.00    -0.036 C 
ATOM     29  H15 DVA d          46.309  49.451  84.841  0.00  0.00     0.035 H 
ATOM     30  H16 DVA d          45.205  48.138  85.376  0.00  0.00     0.035 H 
ATOM     31  H13 DVA d          45.208  48.706  82.819  0.00  0.00     0.036 H 
ATOM     32  H14 DVA d          43.607  48.659  83.633  0.00  0.00     0.036 H 
ATOM     33  H12 DVA d          43.603  50.869  82.666  0.00  0.00     0.087 H 
BRANCH  22  34
ATOM     34  CA  DVA d          43.187  53.448  84.209  0.00  0.00     0.178 C 
ATOM     35  H4  DVA d          44.049  53.630  83.550  0.00  0.00     0.099 H 
BRANCH  34  36
ATOM     36  N   DVA d          42.913  54.696  84.975  0.00  0.00    -0.066 N 
ATOM     37  H1  DVA d          42.524  54.460  85.874  0.00  0.00     0.275 HD
ATOM     38  H2  DVA d          42.257  55.267  84.465  0.00  0.00     0.275 HD
ATOM     39  H3  DVA d          43.773  55.206  85.105  0.00  0.00     0.275 HD
ENDBRANCH  34  36
BRANCH  34  40
ATOM     40  CB  DVA d          41.986  53.111  83.303  0.00  0.00    -0.025 C 
ATOM     41  H5  DVA d          41.808  52.026  83.325  0.00  0.00     0.042 H 
BRANCH  40  42
ATOM     42  CG1 DVA d          40.737  53.826  83.795  0.00  0.00    -0.071 C 
ATOM     43  H6  DVA d          40.079  53.107  84.303  0.00  0.00     0.028 H 
ATOM     44  H7  DVA d          40.205  54.267  82.938  0.00  0.00     0.028 H 
ATOM     45  H8  DVA d          41.023  54.622  84.498  0.00  0.00     0.028 H 
ENDBRANCH  40  42
BRANCH  40  46
ATOM     46  CG2 DVA d          42.310  53.542  81.870  0.00  0.00    -0.071 C 
ATOM     47  H9  DVA d          42.681  54.578  81.873  0.00  0.00     0.028 H 
ATOM     48  H10 DVA d          41.401  53.479  81.254  0.00  0.00     0.028 H 
ATOM     49  H11 DVA d          43.081  52.878  81.454  0.00  0.00     0.028 H 
ENDBRANCH  40  46
ENDBRANCH  34  40
ENDBRANCH  22  34
ENDBRANCH  17  20
ENDBRANCH  13  16
ENDBRANCH  10  13
ENDBRANCH   7   9
BRANCH   7  50
ATOM     50  CB  DVA d          47.386  56.783  84.370  0.00  0.00     0.044 C 
ATOM     51  H24 DVA d          48.296  56.215  84.126  0.00  0.00     0.077 H 
ATOM     52  H25 DVA d          47.614  57.527  85.148  0.00  0.00     0.077 H 
BRANCH  50  53
ATOM     53  OG  DVA d          46.923  57.448  83.206  0.00  0.00    -0.398 OA
ATOM     54  H26 DVA d          45.997  57.635  83.297  0.00  0.00     0.209 HD
ENDBRANCH  50  53
ENDBRANCH   7  50
ENDBRANCH   4   7
ENDBRANCH   1   3
BRANCH   1  55
ATOM     55  C   DVA d          44.673  54.550  89.121  0.00  0.00     0.241 C 
ATOM     56  O   DVA d          44.596  54.383  90.342  0.00  0.00    -0.271 OA
ATOM     57  N   DVA d          43.607  54.763  88.348  0.00  0.00    -0.346 N 
ATOM     58  H35 DVA d          43.739  54.920  87.369  0.00  0.00     0.163 HD
BRANCH  57  59
ATOM     59  CA  DVA d          42.236  54.774  88.901  0.00  0.00     0.094 C 
ATOM     60  H36 DVA d          41.534  54.673  88.061  0.00  0.00     0.088 H 
BRANCH  59  61
ATOM     61  C   DVA d          41.973  53.686  89.901  0.00  0.00     0.241 C 
ATOM     62  O   DVA d          41.776  52.524  89.517  0.00  0.00    -0.271 OA
ATOM     63  N   DVA d          41.935  54.066  91.173  0.00  0.00    -0.346 N 
ATOM     64  H42 DVA d          42.177  55.005  91.418  0.00  0.00     0.163 HD
BRANCH  63  65
ATOM     65  CA  DVA d          41.541  53.122  92.218  0.00  0.00     0.093 C 
ATOM     66  H43 DVA d          41.160  52.219  91.719  0.00  0.00     0.088 H 
BRANCH  65  67
ATOM     67  C   DVA d          42.654  52.676  93.158  0.00  0.00     0.241 C 
ATOM     68  O   DVA d          42.373  52.211  94.267  0.00  0.00    -0.271 OA
ATOM     69  N   DVA d          43.900  52.833  92.717  0.00  0.00    -0.345 N 
ATOM     70  H51 DVA d          44.047  53.232  91.812  0.00  0.00     0.163 HD
BRANCH  69  71
ATOM     71  CA  DVA d          45.067  52.437  93.517  0.00  0.00     0.098 C 
ATOM     72  H52 DVA d          44.736  51.666  94.230  0.00  0.00     0.088 H 
BRANCH  71  73
ATOM     73  C   DVA d          46.222  51.863  92.697  0.00  0.00     0.241 C 
ATOM     74  O   DVA d          46.039  51.387  91.569  0.00  0.00    -0.271 OA
ATOM     75  N   DVA d          47.407  51.950  93.303  0.00  0.00    -0.343 N 
ATOM     76  H55 DVA d          47.416  52.344  94.222  0.00  0.00     0.163 HD
BRANCH  75  77
ATOM     77  CA  DVA d          48.697  51.525  92.755  0.00  0.00     0.116 C 
ATOM     78  H56 DVA d          49.471  52.072  93.313  0.00  0.00     0.093 H 
BRANCH  77  79
ATOM     79  C   DVA d          48.984  50.042  92.937  0.00  0.00     0.198 C 
ATOM     80  O   DVA d          48.115  49.219  92.584  0.00  0.00    -0.646 OA
ATOM     81  OXT DVA d          50.092  49.729  93.432  0.00  0.00    -0.646 OA
ENDBRANCH  77  79
BRANCH  77  82
ATOM     82  CB  DVA d          48.836  51.913  91.278  0.00  0.00     0.045 C 
ATOM     83  H57 DVA d          49.812  52.399  91.124  0.00  0.00     0.077 H 
ATOM     84  H58 DVA d          48.031  52.614  91.013  0.00  0.00     0.077 H 
BRANCH  82  85
ATOM     85  OG  DVA d          48.750  50.768  90.439  0.00  0.00    -0.398 OA
ATOM     86  H59 DVA d          48.479  50.018  90.956  0.00  0.00     0.209 HD
ENDBRANCH  82  85
ENDBRANCH  77  82
ENDBRANCH  75  77
ENDBRANCH  71  73
BRANCH  71  87
ATOM     87  CB  DVA d          45.613  53.634  94.297  0.00  0.00     0.043 C 
ATOM     88  H53 DVA d          46.630  53.396  94.642  0.00  0.00     0.052 H 
ATOM     89  H54 DVA d          44.963  53.813  95.167  0.00  0.00     0.052 H 
BRANCH  87  90
ATOM     90  CG  DVA d          45.666  54.891  93.469  0.00  0.00     0.175 C 
ATOM     91  OD1 DVA d          46.719  55.150  92.846  0.00  0.00    -0.648 OA
ATOM     92  OD2 DVA d          44.655  55.611  93.425  0.00  0.00    -0.648 OA
ENDBRANCH  87  90
ENDBRANCH  71  87
ENDBRANCH  69  71
ENDBRANCH  65  67
BRANCH  65  93
ATOM     93  CB  DVA d          40.400  53.753  93.021  0.00  0.00    -0.014 C 
ATOM     94  H44 DVA d          39.913  54.519  92.399  0.00  0.00     0.043 H 
ATOM     95  H45 DVA d          40.822  54.226  93.920  0.00  0.00     0.043 H 
BRANCH  93  96
ATOM     96  CG  DVA d          39.352  52.739  93.452  0.00  0.00    -0.056 A 
ATOM     97  CD1 DVA d          38.504  52.999  94.533  0.00  0.00    -0.074 A 
ATOM     98  CE1 DVA d          37.552  52.063  94.970  0.00  0.00    -0.051 A 
ATOM     99  H46 DVA d          38.583  53.950  95.048  0.00  0.00     0.084 H 
ATOM    100  CZ  DVA d          37.451  50.833  94.291  0.00  0.00     0.065 A 
ATOM    101  H48 DVA d          36.907  52.283  95.814  0.00  0.00     0.087 H 
ATOM    102  CE2 DVA d          38.284  50.556  93.217  0.00  0.00    -0.051 A 
ATOM    103  CD2 DVA d          39.234  51.505  92.798  0.00  0.00    -0.074 A 
ATOM    104  H49 DVA d          38.203  49.607  92.700  0.00  0.00     0.087 H 
ATOM    105  H47 DVA d          39.882  51.279  91.958  0.00  0.00     0.084 H 
BRANCH 100 106
ATOM    106  OH  DVA d          36.516  49.896  94.670  0.00  0.00    -0.361 OA
ATOM    107  H50 DVA d          36.892  49.325  95.330  0.00  0.00     0.217 HD
ENDBRANCH 100 106
ENDBRANCH  93  96
ENDBRANCH  65  93
ENDBRANCH  63  65
ENDBRANCH  59  61
BRANCH  59 108
ATOM    108  CB  DVA d          41.938  56.066  89.666  0.00  0.00     0.004 C 
ATOM    109  H37 DVA d          42.896  56.526  89.951  0.00  0.00     0.046 H 
ATOM    110  H38 DVA d          41.372  55.807  90.572  0.00  0.00     0.046 H 
BRANCH 108 111
ATOM    111  CG  DVA d          41.146  57.076  88.892  0.00  0.00     0.053 A 
ATOM    112  ND1 DVA d          40.212  57.906  89.480  0.00  0.00    -0.247 NA
ATOM    113  CE1 DVA d          39.696  58.706  88.557  0.00  0.00     0.064 A 
ATOM    114  NE2 DVA d          40.261  58.418  87.391  0.00  0.00    -0.359 N 
ATOM    115  H40 DVA d          38.938  59.470  88.727  0.00  0.00     0.143 H 
ATOM    116  CD2 DVA d          41.170  57.400  87.577  0.00  0.00     0.002 A 
ATOM    117  H41 DVA d          40.054  58.880  86.494  0.00  0.00     0.166 HD
ATOM    118  H39 DVA d          41.792  56.941  86.810  0.00  0.00     0.114 H 
ENDBRANCH 108 111
ENDBRANCH  59 108
ENDBRANCH  57  59
ENDBRANCH   1  55
BRANCH   1 119
ATOM    119  CB  DVA d          46.738  53.186  88.686  0.00  0.00    -0.030 C 
ATOM    120  H29 DVA d          46.191  52.639  89.468  0.00  0.00     0.037 H 
ATOM    121  H30 DVA d          47.764  53.389  89.029  0.00  0.00     0.037 H 
BRANCH 119 122
ATOM    122  CG  DVA d          46.795  52.318  87.405  0.00  0.00     0.011 C 
ATOM    123  H31 DVA d          46.410  52.915  86.566  0.00  0.00     0.047 H 
ATOM    124  H32 DVA d          46.151  51.439  87.555  0.00  0.00     0.047 H 
BRANCH 122 125
ATOM    125  CD  DVA d          48.206  51.825  87.039  0.00  0.00     0.215 C 
ATOM    126  OE1 DVA d          49.202  52.552  87.211  0.00  0.00    -0.274 OA
ATOM    127  NE2 DVA d          48.296  50.605  86.552  0.00  0.00    -0.370 N 
ATOM    128  H33 DVA d          49.188  50.233  86.297  0.00  0.00     0.159 HD
ATOM    129  H34 DVA d          47.472  50.051  86.437  0.00  0.00     0.159 HD
ENDBRANCH 122 125
ENDBRANCH 119 122
ENDBRANCH   1 119
TORSDOF 34
ENDMDL
MODEL 2
REMARK VINA RESULT:      -5.1      1.595      2.036
REMARK WARNING: 32 MAX_TORS EXCEEDED!!!
REMARK  34 active torsions:
REMARK  status: ('A' for Active; 'I' for Inactive)
REMARK    1  A    between atoms: N_1  and  CA_2 
REMARK    2  A    between atoms: CA_2  and  CB_3 
REMARK    3  A    between atoms: CA_2  and  C_6 
REMARK    4  A    between atoms: CB_3  and  CG1_4 
REMARK    5  A    between atoms: CB_3  and  CG2_5 
REMARK       I    between atoms: C_6  and  N_8 
REMARK    6  A    between atoms: CA_9  and  C_13 
REMARK       I    between atoms: C_13  and  N_15 
REMARK    7  A    between atoms: N_15  and  CA_16 
REMARK    8  A    between atoms: CA_16  and  C_17 
REMARK       I    between atoms: C_17  and  N_19 
REMARK    9  A    between atoms: N_19  and  CA_20 
REMARK   10  A    between atoms: CA_20  and  C_21 
REMARK   11  A    between atoms: CA_20  and  CB_23 
REMARK       I    between atoms: C_21  and  N_25 
REMARK   12  A    between atoms: CB_23  and  OG_24 
REMARK   13  A    between atoms: N_25  and  CA_26 
REMARK   14  A    between atoms: CA_26  and  C_27 
REMARK   15  A    between atoms: CA_26  and  CB_29 
REMARK       I    between atoms: C_27  and  N_34 
REMARK   16  A    between atoms: CB_29  and  CG_30 
REMARK   17  A    between atoms: CG_30  and  CD_31 
REMARK       I    between atoms: CD_31  and  NE2_33 
REMARK   18  A    between atoms: N_34  and  CA_35 
REMARK   19  A    between atoms: CA_35  and  C_36 
REMARK   20  A    between atoms: CA_35  and  CB_38 
REMARK       I    between atoms: C_36  and  N_44 
REMARK   21  A    between atoms: CB_38  and  CG_39 
REMARK   22  A    between atoms: N_44  and  CA_45 
REMARK   23  A    between atoms: CA_45  and  C_46 
REMARK   24  A    between atoms: CA_45  and  CB_48 
REMARK       I    between atoms: C_46  and  N_56 
REMARK   25  A    between atoms: CB_48  and  CG_49 
REMARK   26  A    between atoms: CZ_54  and  OH_55 
REMARK   27  A    between atoms: N_56  and  CA_57 
REMARK   28  A    between atoms: CA_57  and  C_58 
REMARK   29  A    between atoms: CA_57  and  CB_60 
REMARK       I    between atoms: C_58  and  N_64 
REMARK   30  A    between atoms: CB_60  and  CG_61 
REMARK   31  A    between atoms: N_64  and  CA_65 
REMARK   32  A    between atoms: CA_65  and  C_66 
REMARK   33  A    between atoms: CA_65  and  CB_69 
REMARK   34  A    between atoms: CB_69  and  OG_70 
ROOT
ATOM      1  CA  DVA d          45.178  54.806  89.085  0.00  0.00     0.090 C 
ATOM      2  H28 DVA d          45.673  55.639  89.608  0.00  0.00     0.087 H 
ENDROOT
BRANCH   1   3
ATOM      3  N   DVA d          45.101  55.123  87.668  0.00  0.00    -0.346 N 
ATOM      4  C   DVA d          45.777  56.156  87.201  0.00  0.00     0.243 C 
ATOM      5  O   DVA d          46.482  56.852  87.915  0.00  0.00    -0.271 OA
ATOM      6  H27 DVA d          44.541  54.565  87.055  0.00  0.00     0.163 HD
BRANCH   4   7
ATOM      7  CA  DVA d          45.627  56.472  85.725  0.00  0.00     0.109 C 
ATOM      8  H23 DVA d          44.586  56.732  85.483  0.00  0.00     0.090 H 
BRANCH   7   9
ATOM      9  N   DVA d          46.039  55.303  84.983  0.00  0.00    -0.344 N 
ATOM     10  C   DVA d          47.312  54.953  84.879  0.00  0.00     0.236 C 
ATOM     11  O   DVA d          48.230  55.584  85.404  0.00  0.00    -0.272 OA
ATOM     12  H22 DVA d          45.344  54.742  84.533  0.00  0.00     0.163 HD
BRANCH  10  13
ATOM     13  CA  DVA d          47.596  53.713  84.072  0.00  0.00     0.069 C 
ATOM     14  H20 DVA d          47.705  53.973  83.008  0.00  0.00     0.078 H 
ATOM     15  H21 DVA d          48.520  53.235  84.428  0.00  0.00     0.078 H 
BRANCH  13  16
ATOM     16  N   DVA d          46.478  52.820  84.250  0.00  0.00    -0.351 N 
ATOM     17  C   DVA d          45.992  52.120  83.234  0.00  0.00     0.241 C 
ATOM     18  O   DVA d          46.458  52.168  82.092  0.00  0.00    -0.271 OA
ATOM     19  H19 DVA d          46.062  52.727  85.155  0.00  0.00     0.163 HD
BRANCH  17  20
ATOM     20  CA  DVA d          44.805  51.222  83.578  0.00  0.00     0.091 C 
ATOM     21  N   DVA d          44.293  51.538  84.920  0.00  0.00    -0.337 N 
ATOM     22  C   DVA d          43.526  52.538  85.429  0.00  0.00     0.251 C 
ATOM     23  CD  DVA d          44.733  50.506  85.879  0.00  0.00    -0.001 C 
ATOM     24  O   DVA d          43.264  52.593  86.637  0.00  0.00    -0.271 OA
ATOM     25  CG  DVA d          45.777  49.738  85.090  0.00  0.00    -0.048 C 
ATOM     26  H17 DVA d          43.897  49.853  86.169  0.00  0.00     0.064 H 
ATOM     27  H18 DVA d          45.172  50.963  86.778  0.00  0.00     0.064 H 
ATOM     28  CB  DVA d          45.221  49.764  83.709  0.00  0.00    -0.036 C 
ATOM     29  H15 DVA d          46.755  50.238  85.134  0.00  0.00     0.035 H 
ATOM     30  H16 DVA d          45.875  48.707  85.459  0.00  0.00     0.035 H 
ATOM     31  H13 DVA d          45.984  49.494  82.964  0.00  0.00     0.036 H 
ATOM     32  H14 DVA d          44.357  49.089  83.611  0.00  0.00     0.036 H 
ATOM     33  H12 DVA d          44.022  51.341  82.814  0.00  0.00     0.087 H 
BRANCH  22  34
ATOM     34  CA  DVA d          43.007  53.655  84.493  0.00  0.00     0.178 C 
ATOM     35  H4  DVA d          43.872  54.046  83.938  0.00  0.00     0.099 H 
BRANCH  34  36
ATOM     36  N   DVA d          42.444  54.759  85.319  0.00  0.00    -0.066 N 
ATOM     37  H1  DVA d          42.032  54.377  86.156  0.00  0.00     0.275 HD
ATOM     38  H2  DVA d          41.738  55.248  84.790  0.00  0.00     0.275 HD
ATOM     39  H3  DVA d          43.180  55.400  85.569  0.00  0.00     0.275 HD
ENDBRANCH  34  36
BRANCH  34  40
ATOM     40  CB  DVA d          41.969  53.192  83.452  0.00  0.00    -0.025 C 
ATOM     41  H5  DVA d          41.847  52.100  83.522  0.00  0.00     0.042 H 
BRANCH  40  42
ATOM     42  CG1 DVA d          40.627  53.856  83.714  0.00  0.00    -0.071 C 
ATOM     43  H6  DVA d          40.449  53.909  84.798  0.00  0.00     0.028 H 
ATOM     44  H7  DVA d          39.827  53.268  83.240  0.00  0.00     0.028 H 
ATOM     45  H8  DVA d          40.632  54.873  83.293  0.00  0.00     0.028 H 
ENDBRANCH  40  42
BRANCH  40  46
ATOM     46  CG2 DVA d          42.474  53.556  82.054  0.00  0.00    -0.071 C 
ATOM     47  H9  DVA d          42.786  54.611  82.039  0.00  0.00     0.028 H 
ATOM     48  H10 DVA d          41.668  53.401  81.321  0.00  0.00     0.028 H 
ATOM     49  H11 DVA d          43.331  52.917  81.796  0.00  0.00     0.028 H 
ENDBRANCH  40  46
ENDBRANCH  34  40
ENDBRANCH  22  34
ENDBRANCH  17  20
ENDBRANCH  13  16
ENDBRANCH  10  13
ENDBRANCH   7   9
BRANCH   7  50
ATOM     50  CB  DVA d          46.555  57.643  85.418  0.00  0.00     0.044 C 
ATOM     51  H24 DVA d          47.583  57.271  85.301  0.00  0.00     0.077 H 
ATOM     52  H25 DVA d          46.517  58.364  86.248  0.00  0.00     0.077 H 
BRANCH  50  53
ATOM     53  OG  DVA d          46.149  58.284  84.221  0.00  0.00    -0.398 OA
ATOM     54  H26 DVA d          45.201  58.289  84.171  0.00  0.00     0.209 HD
ENDBRANCH  50  53
ENDBRANCH   7  50
ENDBRANCH   4   7
ENDBRANCH   1   3
BRANCH   1  55
ATOM     55  C   DVA d          43.780  54.625  89.671  0.00  0.00     0.241 C 
ATOM     56  O   DVA d          43.600  54.678  90.892  0.00  0.00    -0.271 OA
ATOM     57  N   DVA d          42.794  54.411  88.799  0.00  0.00    -0.346 N 
ATOM     58  H35 DVA d          43.002  54.408  87.820  0.00  0.00     0.163 HD
BRANCH  57  59
ATOM     59  CA  DVA d          41.403  54.177  89.241  0.00  0.00     0.094 C 
ATOM     60  H36 DVA d          40.821  53.857  88.365  0.00  0.00     0.088 H 
BRANCH  59  61
ATOM     61  C   DVA d          41.272  53.148  90.326  0.00  0.00     0.241 C 
ATOM     62  O   DVA d          41.594  51.971  90.108  0.00  0.00    -0.271 OA
ATOM     63  N   DVA d          40.770  53.582  91.477  0.00  0.00    -0.346 N 
ATOM     64  H42 DVA d          40.603  54.558  91.609  0.00  0.00     0.163 HD
BRANCH  63  65
ATOM     65  CA  DVA d          40.461  52.640  92.552  0.00  0.00     0.093 C 
ATOM     66  H43 DVA d          40.428  51.633  92.109  0.00  0.00     0.088 H 
BRANCH  65  67
ATOM     67  C   DVA d          41.465  52.591  93.697  0.00  0.00     0.241 C 
ATOM     68  O   DVA d          41.199  51.959  94.723  0.00  0.00    -0.271 OA
ATOM     69  N   DVA d          42.599  53.266  93.518  0.00  0.00    -0.345 N 
ATOM     70  H51 DVA d          42.734  53.768  92.664  0.00  0.00     0.163 HD
BRANCH  69  71
ATOM     71  CA  DVA d          43.657  53.297  94.537  0.00  0.00     0.098 C 
ATOM     72  H52 DVA d          43.406  52.546  95.301  0.00  0.00     0.088 H 
BRANCH  71  73
ATOM     73  C   DVA d          45.052  52.981  93.998  0.00  0.00     0.241 C 
ATOM     74  O   DVA d          45.213  52.475  92.880  0.00  0.00    -0.271 OA
ATOM     75  N   DVA d          46.039  53.320  94.829  0.00  0.00    -0.343 N 
ATOM     76  H55 DVA d          45.772  53.709  95.711  0.00  0.00     0.163 HD
BRANCH  75  77
ATOM     77  CA  DVA d          47.475  53.180  94.577  0.00  0.00     0.116 C 
ATOM     78  H56 DVA d          47.581  52.450  93.760  0.00  0.00     0.093 H 
BRANCH  77  79
ATOM     79  C   DVA d          48.147  54.464  94.115  0.00  0.00     0.198 C 
ATOM     80  O   DVA d          48.921  55.048  94.900  0.00  0.00    -0.646 OA
ATOM     81  OXT DVA d          47.884  54.862  92.956  0.00  0.00    -0.646 OA
ENDBRANCH  77  79
BRANCH  77  82
ATOM     82  CB  DVA d          48.207  52.610  95.798  0.00  0.00     0.045 C 
ATOM     83  H57 DVA d          48.799  53.409  96.268  0.00  0.00     0.077 H 
ATOM     84  H58 DVA d          48.877  51.801  95.471  0.00  0.00     0.077 H 
BRANCH  82  85
ATOM     85  OG  DVA d          47.286  52.093  96.751  0.00  0.00    -0.398 OA
ATOM     86  H59 DVA d          46.415  52.076  96.371  0.00  0.00     0.209 HD
ENDBRANCH  82  85
ENDBRANCH  77  82
ENDBRANCH  75  77
ENDBRANCH  71  73
BRANCH  71  87
ATOM     87  CB  DVA d          43.725  54.675  95.198  0.00  0.00     0.043 C 
ATOM     88  H53 DVA d          44.712  54.791  95.669  0.00  0.00     0.052 H 
ATOM     89  H54 DVA d          42.942  54.734  95.968  0.00  0.00     0.052 H 
BRANCH  87  90
ATOM     90  CG  DVA d          43.522  55.799  94.217  0.00  0.00     0.175 C 
ATOM     91  OD1 DVA d          44.529  56.390  93.770  0.00  0.00    -0.648 OA
ATOM     92  OD2 DVA d          42.361  56.083  93.878  0.00  0.00    -0.648 OA
ENDBRANCH  87  90
ENDBRANCH  71  87
ENDBRANCH  69  71
ENDBRANCH  65  67
BRANCH  65  93
ATOM     93  CB  DVA d          39.068  52.980  93.093  0.00  0.00    -0.014 C 
ATOM     94  H44 DVA d          38.473  53.421  92.280  0.00  0.00     0.043 H 
ATOM     95  H45 DVA d          39.177  53.712  93.907  0.00  0.00     0.043 H 
BRANCH  93  96
ATOM     96  CG  DVA d          38.331  51.762  93.629  0.00  0.00    -0.056 A 
ATOM     97  CD1 DVA d          37.503  51.862  94.752  0.00  0.00    -0.074 A 
ATOM     98  CE1 DVA d          36.840  50.744  95.285  0.00  0.00    -0.051 A 
ATOM     99  H46 DVA d          37.370  52.829  95.224  0.00  0.00     0.084 H 
ATOM    100  CZ  DVA d          37.014  49.494  94.661  0.00  0.00     0.065 A 
ATOM    101  H48 DVA d          36.206  50.842  96.159  0.00  0.00     0.087 H 
ATOM    102  CE2 DVA d          37.832  49.374  93.547  0.00  0.00    -0.051 A 
ATOM    103  CD2 DVA d          38.491  50.505  93.032  0.00  0.00    -0.074 A 
ATOM    104  H49 DVA d          37.963  48.408  93.073  0.00  0.00     0.087 H 
ATOM    105  H47 DVA d          39.129  50.402  92.161  0.00  0.00     0.084 H 
BRANCH 100 106
ATOM    106  OH  DVA d          36.364  48.376  95.135  0.00  0.00    -0.361 OA
ATOM    107  H50 DVA d          36.905  47.951  95.791  0.00  0.00     0.217 HD
ENDBRANCH 100 106
ENDBRANCH  93  96
ENDBRANCH  65  93
ENDBRANCH  63  65
ENDBRANCH  59  61
BRANCH  59 108
ATOM    108  CB  DVA d          40.775  55.437  89.842  0.00  0.00     0.004 C 
ATOM    109  H37 DVA d          41.391  55.755  90.696  0.00  0.00     0.046 H 
ATOM    110  H38 DVA d          39.764  55.184  90.193  0.00  0.00     0.046 H 
BRANCH 108 111
ATOM    111  CG  DVA d          40.665  56.589  88.890  0.00  0.00     0.053 A 
ATOM    112  ND1 DVA d          41.091  56.521  87.578  0.00  0.00    -0.247 NA
ATOM    113  CE1 DVA d          40.842  57.676  86.977  0.00  0.00     0.064 A 
ATOM    114  NE2 DVA d          40.272  58.491  87.856  0.00  0.00    -0.359 N 
ATOM    115  H40 DVA d          41.065  57.915  85.938  0.00  0.00     0.143 H 
ATOM    116  CD2 DVA d          40.154  57.832  89.060  0.00  0.00     0.002 A 
ATOM    117  H41 DVA d          39.969  59.457  87.670  0.00  0.00     0.166 HD
ATOM    118  H39 DVA d          39.729  58.235  89.978  0.00  0.00     0.114 H 
ENDBRANCH 108 111
ENDBRANCH  59 108
ENDBRANCH  57  59
ENDBRANCH   1  55
BRANCH   1 119
ATOM    119  CB  DVA d          46.009  53.533  89.282  0.00  0.00    -0.030 C 
ATOM    120  H29 DVA d          45.414  52.799  89.846  0.00  0.00     0.037 H 
ATOM    121  H30 DVA d          46.919  53.781  89.850  0.00  0.00     0.037 H 
BRANCH 119 122
ATOM    122  CG  DVA d          46.415  52.916  87.921  0.00  0.00     0.011 C 
ATOM    123  H31 DVA d          46.018  53.557  87.120  0.00  0.00     0.047 H 
ATOM    124  H32 DVA d          45.963  51.915  87.847  0.00  0.00     0.047 H 
BRANCH 122 125
ATOM    125  CD  DVA d          47.934  52.775  87.719  0.00  0.00     0.215 C 
ATOM    126  OE1 DVA d          48.717  53.651  88.129  0.00  0.00    -0.274 OA
ATOM    127  NE2 DVA d          48.347  51.686  87.105  0.00  0.00    -0.370 N 
ATOM    128  H33 DVA d          49.324  51.542  86.946  0.00  0.00     0.159 HD
ATOM    129  H34 DVA d          47.685  51.003  86.797  0.00  0.00     0.159 HD
ENDBRANCH 122 125
ENDBRANCH 119 122
ENDBRANCH   1 119
TORSDOF 34
ENDMDL
MODEL 3
REMARK VINA RESULT:      -5.0      2.588      4.564
REMARK WARNING: 32 MAX_TORS EXCEEDED!!!
REMARK  34 active torsions:
REMARK  status: ('A' for Active; 'I' for Inactive)
REMARK    1  A    between atoms: N_1  and  CA_2 
REMARK    2  A    between atoms: CA_2  and  CB_3 
REMARK    3  A    between atoms: CA_2  and  C_6 
REMARK    4  A    between atoms: CB_3  and  CG1_4 
REMARK    5  A    between atoms: CB_3  and  CG2_5 
REMARK       I    between atoms: C_6  and  N_8 
REMARK    6  A    between atoms: CA_9  and  C_13 
REMARK       I    between atoms: C_13  and  N_15 
REMARK    7  A    between atoms: N_15  and  CA_16 
REMARK    8  A    between atoms: CA_16  and  C_17 
REMARK       I    between atoms: C_17  and  N_19 
REMARK    9  A    between atoms: N_19  and  CA_20 
REMARK   10  A    between atoms: CA_20  and  C_21 
REMARK   11  A    between atoms: CA_20  and  CB_23 
REMARK       I    between atoms: C_21  and  N_25 
REMARK   12  A    between atoms: CB_23  and  OG_24 
REMARK   13  A    between atoms: N_25  and  CA_26 
REMARK   14  A    between atoms: CA_26  and  C_27 
REMARK   15  A    between atoms: CA_26  and  CB_29 
REMARK       I    between atoms: C_27  and  N_34 
REMARK   16  A    between atoms: CB_29  and  CG_30 
REMARK   17  A    between atoms: CG_30  and  CD_31 
REMARK       I    between atoms: CD_31  and  NE2_33 
REMARK   18  A    between atoms: N_34  and  CA_35 
REMARK   19  A    between atoms: CA_35  and  C_36 
REMARK   20  A    between atoms: CA_35  and  CB_38 
REMARK       I    between atoms: C_36  and  N_44 
REMARK   21  A    between atoms: CB_38  and  CG_39 
REMARK   22  A    between atoms: N_44  and  CA_45 
REMARK   23  A    between atoms: CA_45  and  C_46 
REMARK   24  A    between atoms: CA_45  and  CB_48 
REMARK       I    between atoms: C_46  and  N_56 
REMARK   25  A    between atoms: CB_48  and  CG_49 
REMARK   26  A    between atoms: CZ_54  and  OH_55 
REMARK   27  A    between atoms: N_56  and  CA_57 
REMARK   28  A    between atoms: CA_57  and  C_58 
REMARK   29  A    between atoms: CA_57  and  CB_60 
REMARK       I    between atoms: C_58  and  N_64 
REMARK   30  A    between atoms: CB_60  and  CG_61 
REMARK   31  A    between atoms: N_64  and  CA_65 
REMARK   32  A    between atoms: CA_65  and  C_66 
REMARK   33  A    between atoms: CA_65  and  CB_69 
REMARK   34  A    between atoms: CB_69  and  OG_70 
ROOT
ATOM      1  CA  DVA d          45.746  56.653  86.359  0.00  0.00     0.090 C 
ATOM      2  H28 DVA d          45.205  57.610  86.378  0.00  0.00     0.087 H 
ENDROOT
BRANCH   1   3
ATOM      3  N   DVA d          46.347  56.479  85.046  0.00  0.00    -0.346 N 
ATOM      4  C   DVA d          46.430  57.517  84.234  0.00  0.00     0.243 C 
ATOM      5  O   DVA d          46.034  58.628  84.550  0.00  0.00    -0.271 OA
ATOM      6  H27 DVA d          46.691  55.584  84.762  0.00  0.00     0.163 HD
BRANCH   4   7
ATOM      7  CA  DVA d          47.022  57.273  82.859  0.00  0.00     0.109 C 
ATOM      8  H23 DVA d          46.529  57.900  82.101  0.00  0.00     0.090 H 
BRANCH   7   9
ATOM      9  N   DVA d          46.844  55.874  82.546  0.00  0.00    -0.344 N 
ATOM     10  C   DVA d          46.418  55.470  81.359  0.00  0.00     0.236 C 
ATOM     11  O   DVA d          46.150  56.245  80.440  0.00  0.00    -0.272 OA
ATOM     12  H22 DVA d          47.047  55.190  83.247  0.00  0.00     0.163 HD
BRANCH  10  13
ATOM     13  CA  DVA d          46.276  53.982  81.175  0.00  0.00     0.069 C 
ATOM     14  H20 DVA d          45.268  53.660  81.478  0.00  0.00     0.078 H 
ATOM     15  H21 DVA d          46.445  53.715  80.122  0.00  0.00     0.078 H 
BRANCH  13  16
ATOM     16  N   DVA d          47.267  53.350  82.010  0.00  0.00    -0.351 N 
ATOM     17  C   DVA d          46.966  52.923  83.229  0.00  0.00     0.241 C 
ATOM     18  O   DVA d          45.838  53.020  83.722  0.00  0.00    -0.271 OA
ATOM     19  H19 DVA d          48.198  53.231  81.664  0.00  0.00     0.163 HD
BRANCH  17  20
ATOM     20  CA  DVA d          48.121  52.280  83.992  0.00  0.00     0.091 C 
ATOM     21  N   DVA d          47.682  51.862  85.333  0.00  0.00    -0.337 N 
ATOM     22  C   DVA d          46.950  50.821  85.808  0.00  0.00     0.251 C 
ATOM     23  CD  DVA d          48.182  52.816  86.342  0.00  0.00    -0.001 C 
ATOM     24  O   DVA d          46.684  50.720  87.012  0.00  0.00    -0.271 OA
ATOM     25  CG  DVA d          48.677  53.973  85.494  0.00  0.00    -0.048 C 
ATOM     26  H17 DVA d          49.002  52.378  86.930  0.00  0.00     0.064 H 
ATOM     27  H18 DVA d          47.376  53.137  87.018  0.00  0.00     0.064 H 
ATOM     28  CB  DVA d          49.225  53.282  84.295  0.00  0.00    -0.036 C 
ATOM     29  H15 DVA d          47.853  54.648  85.222  0.00  0.00     0.035 H 
ATOM     30  H16 DVA d          49.460  54.542  86.016  0.00  0.00     0.035 H 
ATOM     31  H13 DVA d          49.371  53.983  83.459  0.00  0.00     0.036 H 
ATOM     32  H14 DVA d          50.176  52.777  84.521  0.00  0.00     0.036 H 
ATOM     33  H12 DVA d          48.510  51.427  83.417  0.00  0.00     0.087 H 
BRANCH  22  34
ATOM     34  CA  DVA d          46.398  49.763  84.823  0.00  0.00     0.178 C 
ATOM     35  H4  DVA d          46.602  48.773  85.257  0.00  0.00     0.099 H 
BRANCH  34  36
ATOM     36  N   DVA d          47.136  49.868  83.533  0.00  0.00    -0.066 N 
ATOM     37  H1  DVA d          48.106  49.636  83.680  0.00  0.00     0.275 HD
ATOM     38  H2  DVA d          47.065  50.810  83.180  0.00  0.00     0.275 HD
ATOM     39  H3  DVA d          46.736  49.228  82.865  0.00  0.00     0.275 HD
ENDBRANCH  34  36
BRANCH  34  40
ATOM     40  CB  DVA d          44.880  49.847  84.571  0.00  0.00    -0.025 C 
ATOM     41  H5  DVA d          44.488  50.770  85.025  0.00  0.00     0.042 H 
BRANCH  40  42
ATOM     42  CG1 DVA d          44.593  49.870  83.079  0.00  0.00    -0.071 C 
ATOM     43  H6  DVA d          43.749  50.546  82.878  0.00  0.00     0.028 H 
ATOM     44  H7  DVA d          44.337  48.855  82.739  0.00  0.00     0.028 H 
ATOM     45  H8  DVA d          45.484  50.224  82.539  0.00  0.00     0.028 H 
ENDBRANCH  40  42
BRANCH  40  46
ATOM     46  CG2 DVA d          44.203  48.637  85.221  0.00  0.00    -0.071 C 
ATOM     47  H9  DVA d          43.376  48.293  84.582  0.00  0.00     0.028 H 
ATOM     48  H10 DVA d          43.811  48.923  86.208  0.00  0.00     0.028 H 
ATOM     49  H11 DVA d          44.936  47.827  85.338  0.00  0.00     0.028 H 
ENDBRANCH  40  46
ENDBRANCH  34  40
ENDBRANCH  22  34
ENDBRANCH  17  20
ENDBRANCH  13  16
ENDBRANCH  10  13
ENDBRANCH   7   9
BRANCH   7  50
ATOM     50  CB  DVA d          48.508  57.606  82.943  0.00  0.00     0.044 C 
ATOM     51  H24 DVA d          48.761  58.342  82.165  0.00  0.00     0.077 H 
ATOM     52  H25 DVA d          49.096  56.690  82.786  0.00  0.00     0.077 H 
BRANCH  50  53
ATOM     53  OG  DVA d          48.814  58.148  84.217  0.00  0.00    -0.398 OA
ATOM     54  H26 DVA d          48.407  59.002  84.302  0.00  0.00     0.209 HD
ENDBRANCH  50  53
ENDBRANCH   7  50
ENDBRANCH   4   7
ENDBRANCH   1   3
BRANCH   1  55
ATOM     55  C   DVA d          44.757  55.527  86.649  0.00  0.00     0.241 C 
ATOM     56  O   DVA d          45.155  54.371  86.825  0.00  0.00    -0.271 OA
ATOM     57  N   DVA d          43.468  55.868  86.698  0.00  0.00    -0.346 N 
ATOM     58  H35 DVA d          43.213  56.828  86.576  0.00  0.00     0.163 HD
BRANCH  57  59
ATOM     59  CA  DVA d          42.407  54.864  86.930  0.00  0.00     0.094 C 
ATOM     60  H36 DVA d          42.847  53.869  86.771  0.00  0.00     0.088 H 
BRANCH  59  61
ATOM     61  C   DVA d          41.801  54.924  88.302  0.00  0.00     0.241 C 
ATOM     62  O   DVA d          40.587  55.135  88.436  0.00  0.00    -0.271 OA
ATOM     63  N   DVA d          42.647  54.775  89.315  0.00  0.00    -0.346 N 
ATOM     64  H42 DVA d          43.600  54.533  89.134  0.00  0.00     0.163 HD
BRANCH  63  65
ATOM     65  CA  DVA d          42.195  54.963  90.692  0.00  0.00     0.093 C 
ATOM     66  H43 DVA d          41.127  55.225  90.656  0.00  0.00     0.088 H 
BRANCH  65  67
ATOM     67  C   DVA d          42.324  53.747  91.602  0.00  0.00     0.241 C 
ATOM     68  O   DVA d          41.995  52.631  91.189  0.00  0.00    -0.271 OA
ATOM     69  N   DVA d          42.787  53.973  92.829  0.00  0.00    -0.345 N 
ATOM     70  H51 DVA d          43.018  54.909  93.096  0.00  0.00     0.163 HD
BRANCH  69  71
ATOM     71  CA  DVA d          42.971  52.891  93.806  0.00  0.00     0.098 C 
ATOM     72  H52 DVA d          42.182  52.144  93.627  0.00  0.00     0.088 H 
BRANCH  71  73
ATOM     73  C   DVA d          44.324  52.188  93.713  0.00  0.00     0.241 C 
ATOM     74  O   DVA d          44.749  51.479  94.635  0.00  0.00    -0.271 OA
ATOM     75  N   DVA d          44.962  52.399  92.560  0.00  0.00    -0.343 N 
ATOM     76  H55 DVA d          44.515  53.005  91.902  0.00  0.00     0.163 HD
BRANCH  75  77
ATOM     77  CA  DVA d          46.251  51.831  92.163  0.00  0.00     0.116 C 
ATOM     78  H56 DVA d          46.385  50.912  92.753  0.00  0.00     0.093 H 
BRANCH  77  79
ATOM     79  C   DVA d          46.321  51.430  90.697  0.00  0.00     0.198 C 
ATOM     80  O   DVA d          45.512  51.945  89.899  0.00  0.00    -0.646 OA
ATOM     81  OXT DVA d          47.202  50.600  90.371  0.00  0.00    -0.646 OA
ENDBRANCH  77  79
BRANCH  77  82
ATOM     82  CB  DVA d          47.412  52.771  92.510  0.00  0.00     0.045 C 
ATOM     83  H57 DVA d          47.242  53.198  93.510  0.00  0.00     0.077 H 
ATOM     84  H58 DVA d          47.453  53.582  91.767  0.00  0.00     0.077 H 
BRANCH  82  85
ATOM     85  OG  DVA d          48.652  52.075  92.507  0.00  0.00    -0.398 OA
ATOM     86  H59 DVA d          48.980  52.019  91.617  0.00  0.00     0.209 HD
ENDBRANCH  82  85
ENDBRANCH  77  82
ENDBRANCH  75  77
ENDBRANCH  71  73
BRANCH  71  87
ATOM     87  CB  DVA d          42.833  53.427  95.232  0.00  0.00     0.043 C 
ATOM     88  H53 DVA d          43.792  53.874  95.534  0.00  0.00     0.052 H 
ATOM     89  H54 DVA d          42.592  52.588  95.902  0.00  0.00     0.052 H 
BRANCH  87  90
ATOM     90  CG  DVA d          41.754  54.469  95.358  0.00  0.00     0.175 C 
ATOM     91  OD1 DVA d          40.690  54.306  94.721  0.00  0.00    -0.648 OA
ATOM     92  OD2 DVA d          41.957  55.442  96.103  0.00  0.00    -0.648 OA
ENDBRANCH  87  90
ENDBRANCH  71  87
ENDBRANCH  69  71
ENDBRANCH  65  67
BRANCH  65  93
ATOM     93  CB  DVA d          42.967  56.144  91.288  0.00  0.00    -0.014 C 
ATOM     94  H44 DVA d          43.230  56.837  90.475  0.00  0.00     0.043 H 
ATOM     95  H45 DVA d          43.886  55.763  91.757  0.00  0.00     0.043 H 
BRANCH  93  96
ATOM     96  CG  DVA d          42.166  56.904  92.334  0.00  0.00    -0.056 A 
ATOM     97  CD1 DVA d          40.767  56.873  92.328  0.00  0.00    -0.074 A 
ATOM     98  CE1 DVA d          40.007  57.594  93.264  0.00  0.00    -0.051 A 
ATOM     99  H46 DVA d          40.256  56.277  91.581  0.00  0.00     0.084 H 
ATOM    100  CZ  DVA d          40.679  58.361  94.236  0.00  0.00     0.065 A 
ATOM    101  H48 DVA d          38.923  57.561  93.239  0.00  0.00     0.087 H 
ATOM    102  CE2 DVA d          42.065  58.405  94.257  0.00  0.00    -0.051 A 
ATOM    103  CD2 DVA d          42.809  57.679  93.309  0.00  0.00    -0.074 A 
ATOM    104  H49 DVA d          42.577  58.998  95.006  0.00  0.00     0.087 H 
ATOM    105  H47 DVA d          43.892  57.720  93.333  0.00  0.00     0.084 H 
BRANCH 100 106
ATOM    106  OH  DVA d          39.974  59.065  95.186  0.00  0.00    -0.361 OA
ATOM    107  H50 DVA d          40.364  59.924  95.296  0.00  0.00     0.217 HD
ENDBRANCH 100 106
ENDBRANCH  93  96
ENDBRANCH  65  93
ENDBRANCH  63  65
ENDBRANCH  59  61
BRANCH  59 108
ATOM    108  CB  DVA d          41.220  55.059  85.985  0.00  0.00     0.004 C 
ATOM    109  H37 DVA d          41.122  56.133  85.772  0.00  0.00     0.046 H 
ATOM    110  H38 DVA d          40.312  54.702  86.494  0.00  0.00     0.046 H 
BRANCH 108 111
ATOM    111  CG  DVA d          41.340  54.332  84.680  0.00  0.00     0.053 A 
ATOM    112  ND1 DVA d          42.530  53.793  84.229  0.00  0.00    -0.247 NA
ATOM    113  CE1 DVA d          42.324  53.191  83.066  0.00  0.00     0.064 A 
ATOM    114  NE2 DVA d          41.042  53.325  82.747  0.00  0.00    -0.359 N 
ATOM    115  H40 DVA d          43.077  52.674  82.473  0.00  0.00     0.143 H 
ATOM    116  CD2 DVA d          40.409  54.037  83.742  0.00  0.00     0.002 A 
ATOM    117  H41 DVA d          40.594  52.958  81.895  0.00  0.00     0.166 HD
ATOM    118  H39 DVA d          39.356  54.313  83.769  0.00  0.00     0.114 H 
ENDBRANCH 108 111
ENDBRANCH  59 108
ENDBRANCH  57  59
ENDBRANCH   1  55
BRANCH   1 119
ATOM    119  CB  DVA d          46.847  56.685  87.427  0.00  0.00    -0.030 C 
ATOM    120  H29 DVA d          47.686  57.295  87.060  0.00  0.00     0.037 H 
ATOM    121  H30 DVA d          47.195  55.658  87.616  0.00  0.00     0.037 H 
BRANCH 119 122
ATOM    122  CG  DVA d          46.321  57.293  88.750  0.00  0.00     0.011 C 
ATOM    123  H31 DVA d          45.268  57.575  88.605  0.00  0.00     0.047 H 
ATOM    124  H32 DVA d          46.914  58.192  88.977  0.00  0.00     0.047 H 
BRANCH 122 125
ATOM    125  CD  DVA d          46.403  56.343  89.958  0.00  0.00     0.215 C 
ATOM    126  OE1 DVA d          46.604  56.784  91.105  0.00  0.00    -0.274 OA
ATOM    127  NE2 DVA d          46.243  55.060  89.710  0.00  0.00    -0.370 N 
ATOM    128  H33 DVA d          46.287  54.397  90.458  0.00  0.00     0.159 HD
ATOM    129  H34 DVA d          46.077  54.748  88.775  0.00  0.00     0.159 HD
ENDBRANCH 122 125
ENDBRANCH 119 122
ENDBRANCH   1 119
TORSDOF 34
ENDMDL
MODEL 4
REMARK VINA RESULT:      -4.6      2.659      4.207
REMARK WARNING: 32 MAX_TORS EXCEEDED!!!
REMARK  34 active torsions:
REMARK  status: ('A' for Active; 'I' for Inactive)
REMARK    1  A    between atoms: N_1  and  CA_2 
REMARK    2  A    between atoms: CA_2  and  CB_3 
REMARK    3  A    between atoms: CA_2  and  C_6 
REMARK    4  A    between atoms: CB_3  and  CG1_4 
REMARK    5  A    between atoms: CB_3  and  CG2_5 
REMARK       I    between atoms: C_6  and  N_8 
REMARK    6  A    between atoms: CA_9  and  C_13 
REMARK       I    between atoms: C_13  and  N_15 
REMARK    7  A    between atoms: N_15  and  CA_16 
REMARK    8  A    between atoms: CA_16  and  C_17 
REMARK       I    between atoms: C_17  and  N_19 
REMARK    9  A    between atoms: N_19  and  CA_20 
REMARK   10  A    between atoms: CA_20  and  C_21 
REMARK   11  A    between atoms: CA_20  and  CB_23 
REMARK       I    between atoms: C_21  and  N_25 
REMARK   12  A    between atoms: CB_23  and  OG_24 
REMARK   13  A    between atoms: N_25  and  CA_26 
REMARK   14  A    between atoms: CA_26  and  C_27 
REMARK   15  A    between atoms: CA_26  and  CB_29 
REMARK       I    between atoms: C_27  and  N_34 
REMARK   16  A    between atoms: CB_29  and  CG_30 
REMARK   17  A    between atoms: CG_30  and  CD_31 
REMARK       I    between atoms: CD_31  and  NE2_33 
REMARK   18  A    between atoms: N_34  and  CA_35 
REMARK   19  A    between atoms: CA_35  and  C_36 
REMARK   20  A    between atoms: CA_35  and  CB_38 
REMARK       I    between atoms: C_36  and  N_44 
REMARK   21  A    between atoms: CB_38  and  CG_39 
REMARK   22  A    between atoms: N_44  and  CA_45 
REMARK   23  A    between atoms: CA_45  and  C_46 
REMARK   24  A    between atoms: CA_45  and  CB_48 
REMARK       I    between atoms: C_46  and  N_56 
REMARK   25  A    between atoms: CB_48  and  CG_49 
REMARK   26  A    between atoms: CZ_54  and  OH_55 
REMARK   27  A    between atoms: N_56  and  CA_57 
REMARK   28  A    between atoms: CA_57  and  C_58 
REMARK   29  A    between atoms: CA_57  and  CB_60 
REMARK       I    between atoms: C_58  and  N_64 
REMARK   30  A    between atoms: CB_60  and  CG_61 
REMARK   31  A    between atoms: N_64  and  CA_65 
REMARK   32  A    between atoms: CA_65  and  C_66 
REMARK   33  A    between atoms: CA_65  and  CB_69 
REMARK   34  A    between atoms: CB_69  and  OG_70 
ROOT
ATOM      1  CA  DVA d          45.976  56.830  86.248  0.00  0.00     0.090 C 
ATOM      2  H28 DVA d          45.420  57.779  86.216  0.00  0.00     0.087 H 
ENDROOT
BRANCH   1   3
ATOM      3  N   DVA d          46.736  56.691  85.016  0.00  0.00    -0.346 N 
ATOM      4  C   DVA d          46.689  57.658  84.118  0.00  0.00     0.243 C 
ATOM      5  O   DVA d          46.040  58.677  84.288  0.00  0.00    -0.271 OA
ATOM      6  H27 DVA d          47.288  55.873  84.852  0.00  0.00     0.163 HD
BRANCH   4   7
ATOM      7  CA  DVA d          47.463  57.444  82.831  0.00  0.00     0.109 C 
ATOM      8  H23 DVA d          47.177  58.187  82.072  0.00  0.00     0.090 H 
BRANCH   7   9
ATOM      9  N   DVA d          47.173  56.109  82.361  0.00  0.00    -0.344 N 
ATOM     10  C   DVA d          46.583  55.889  81.197  0.00  0.00     0.236 C 
ATOM     11  O   DVA d          46.245  56.792  80.432  0.00  0.00    -0.272 OA
ATOM     12  H22 DVA d          47.425  55.328  82.933  0.00  0.00     0.163 HD
BRANCH  10  13
ATOM     13  CA  DVA d          46.340  54.447  80.837  0.00  0.00     0.069 C 
ATOM     14  H20 DVA d          45.356  54.126  81.211  0.00  0.00     0.078 H 
ATOM     15  H21 DVA d          46.376  54.320  79.745  0.00  0.00     0.078 H 
BRANCH  13  16
ATOM     16  N   DVA d          47.383  53.668  81.459  0.00  0.00    -0.351 N 
ATOM     17  C   DVA d          47.176  53.042  82.610  0.00  0.00     0.241 C 
ATOM     18  O   DVA d          46.099  53.067  83.212  0.00  0.00    -0.271 OA
ATOM     19  H19 DVA d          48.276  53.599  81.015  0.00  0.00     0.163 HD
BRANCH  17  20
ATOM     20  CA  DVA d          48.375  52.263  83.145  0.00  0.00     0.091 C 
ATOM     21  N   DVA d          48.145  51.859  84.540  0.00  0.00    -0.337 N 
ATOM     22  C   DVA d          47.404  50.888  85.135  0.00  0.00     0.251 C 
ATOM     23  CD  DVA d          48.919  52.730  85.447  0.00  0.00    -0.001 C 
ATOM     24  O   DVA d          47.352  50.784  86.367  0.00  0.00    -0.271 OA
ATOM     25  CG  DVA d          49.373  53.850  84.530  0.00  0.00    -0.048 C 
ATOM     26  H17 DVA d          49.780  52.193  85.872  0.00  0.00     0.064 H 
ATOM     27  H18 DVA d          48.287  53.115  86.261  0.00  0.00     0.064 H 
ATOM     28  CB  DVA d          49.617  53.137  83.246  0.00  0.00    -0.036 C 
ATOM     29  H15 DVA d          48.589  54.614  84.417  0.00  0.00     0.035 H 
ATOM     30  H16 DVA d          50.293  54.321  84.904  0.00  0.00     0.035 H 
ATOM     31  H13 DVA d          49.684  53.840  82.403  0.00  0.00     0.036 H 
ATOM     32  H14 DVA d          50.534  52.530  83.292  0.00  0.00     0.036 H 
ATOM     33  H12 DVA d          48.561  51.389  82.502  0.00  0.00     0.087 H 
BRANCH  22  34
ATOM     34  CA  DVA d          46.573  49.919  84.261  0.00  0.00     0.178 C 
ATOM     35  H4  DVA d          46.822  48.895  84.578  0.00  0.00     0.099 H 
BRANCH  34  36
ATOM     36  N   DVA d          46.979  50.077  82.837  0.00  0.00    -0.066 N 
ATOM     37  H1  DVA d          47.740  50.735  82.776  0.00  0.00     0.275 HD
ATOM     38  H2  DVA d          46.196  50.418  82.300  0.00  0.00     0.275 HD
ATOM     39  H3  DVA d          47.275  49.186  82.471  0.00  0.00     0.275 HD
ENDBRANCH  34  36
BRANCH  34  40
ATOM     40  CB  DVA d          45.046  50.079  84.396  0.00  0.00    -0.025 C 
ATOM     41  H5  DVA d          44.823  51.038  84.886  0.00  0.00     0.042 H 
BRANCH  40  42
ATOM     42  CG1 DVA d          44.390  50.061  83.024  0.00  0.00    -0.071 C 
ATOM     43  H6  DVA d          45.117  49.715  82.275  0.00  0.00     0.028 H 
ATOM     44  H7  DVA d          44.053  51.076  82.765  0.00  0.00     0.028 H 
ATOM     45  H8  DVA d          43.526  49.381  83.039  0.00  0.00     0.028 H 
ENDBRANCH  40  42
BRANCH  40  46
ATOM     46  CG2 DVA d          44.502  48.934  85.255  0.00  0.00    -0.071 C 
ATOM     47  H9  DVA d          44.625  47.982  84.717  0.00  0.00     0.028 H 
ATOM     48  H10 DVA d          43.435  49.105  85.460  0.00  0.00     0.028 H 
ATOM     49  H11 DVA d          45.055  48.893  86.204  0.00  0.00     0.028 H 
ENDBRANCH  40  46
ENDBRANCH  34  40
ENDBRANCH  22  34
ENDBRANCH  17  20
ENDBRANCH  13  16
ENDBRANCH  10  13
ENDBRANCH   7   9
BRANCH   7  50
ATOM     50  CB  DVA d          48.945  57.571  83.170  0.00  0.00     0.044 C 
ATOM     51  H24 DVA d          49.112  57.231  84.204  0.00  0.00     0.077 H 
ATOM     52  H25 DVA d          49.251  58.623  83.076  0.00  0.00     0.077 H 
BRANCH  50  53
ATOM     53  OG  DVA d          49.716  56.775  82.286  0.00  0.00    -0.398 OA
ATOM     54  H26 DVA d          49.665  57.138  81.410  0.00  0.00     0.209 HD
ENDBRANCH  50  53
ENDBRANCH   7  50
ENDBRANCH   4   7
ENDBRANCH   1   3
BRANCH   1  55
ATOM     55  C   DVA d          44.977  55.685  86.393  0.00  0.00     0.241 C 
ATOM     56  O   DVA d          45.063  54.682  85.677  0.00  0.00    -0.271 OA
ATOM     57  N   DVA d          44.030  55.837  87.320  0.00  0.00    -0.346 N 
ATOM     58  H35 DVA d          44.032  56.661  87.888  0.00  0.00     0.163 HD
BRANCH  57  59
ATOM     59  CA  DVA d          42.978  54.819  87.532  0.00  0.00     0.094 C 
ATOM     60  H36 DVA d          43.387  53.846  87.226  0.00  0.00     0.088 H 
BRANCH  59  61
ATOM     61  C   DVA d          42.493  54.730  88.949  0.00  0.00     0.241 C 
ATOM     62  O   DVA d          41.294  54.909  89.208  0.00  0.00    -0.271 OA
ATOM     63  N   DVA d          43.425  54.489  89.865  0.00  0.00    -0.346 N 
ATOM     64  H42 DVA d          44.360  54.280  89.578  0.00  0.00     0.163 HD
BRANCH  63  65
ATOM     65  CA  DVA d          43.093  54.528  91.288  0.00  0.00     0.093 C 
ATOM     66  H43 DVA d          42.002  54.416  91.375  0.00  0.00     0.088 H 
BRANCH  65  67
ATOM     67  C   DVA d          43.722  53.435  92.143  0.00  0.00     0.241 C 
ATOM     68  O   DVA d          43.032  52.817  92.959  0.00  0.00    -0.271 OA
ATOM     69  N   DVA d          45.023  53.216  91.961  0.00  0.00    -0.345 N 
ATOM     70  H51 DVA d          45.518  53.770  91.292  0.00  0.00     0.163 HD
BRANCH  69  71
ATOM     71  CA  DVA d          45.754  52.186  92.712  0.00  0.00     0.098 C 
ATOM     72  H52 DVA d          45.013  51.479  93.114  0.00  0.00     0.088 H 
BRANCH  71  73
ATOM     73  C   DVA d          46.760  51.398  91.874  0.00  0.00     0.241 C 
ATOM     74  O   DVA d          46.429  50.375  91.260  0.00  0.00    -0.271 OA
ATOM     75  N   DVA d          47.984  51.929  91.863  0.00  0.00    -0.343 N 
ATOM     76  H55 DVA d          48.123  52.752  92.414  0.00  0.00     0.163 HD
BRANCH  75  77
ATOM     77  CA  DVA d          49.143  51.427  91.123  0.00  0.00     0.116 C 
ATOM     78  H56 DVA d          48.820  50.501  90.623  0.00  0.00     0.093 H 
BRANCH  77  79
ATOM     79  C   DVA d          49.634  52.370  90.035  0.00  0.00     0.198 C 
ATOM     80  O   DVA d          49.484  52.034  88.843  0.00  0.00    -0.646 OA
ATOM     81  OXT DVA d          50.162  53.445  90.404  0.00  0.00    -0.646 OA
ENDBRANCH  77  79
BRANCH  77  82
ATOM     82  CB  DVA d          50.297  51.060  92.065  0.00  0.00     0.045 C 
ATOM     83  H57 DVA d          51.215  50.924  91.474  0.00  0.00     0.077 H 
ATOM     84  H58 DVA d          50.052  50.122  92.585  0.00  0.00     0.077 H 
BRANCH  82  85
ATOM     85  OG  DVA d          50.513  52.083  93.030  0.00  0.00    -0.398 OA
ATOM     86  H59 DVA d          50.963  52.813  92.620  0.00  0.00     0.209 HD
ENDBRANCH  82  85
ENDBRANCH  77  82
ENDBRANCH  75  77
ENDBRANCH  71  73
BRANCH  71  87
ATOM     87  CB  DVA d          46.523  52.816  93.875  0.00  0.00     0.043 C 
ATOM     88  H53 DVA d          47.541  52.400  93.890  0.00  0.00     0.052 H 
ATOM     89  H54 DVA d          46.010  52.564  94.814  0.00  0.00     0.052 H 
BRANCH  87  90
ATOM     90  CG  DVA d          46.616  54.315  93.764  0.00  0.00     0.175 C 
ATOM     91  OD1 DVA d          45.838  55.013  94.450  0.00  0.00    -0.648 OA
ATOM     92  OD2 DVA d          47.474  54.798  93.007  0.00  0.00    -0.648 OA
ENDBRANCH  87  90
ENDBRANCH  71  87
ENDBRANCH  69  71
ENDBRANCH  65  67
BRANCH  65  93
ATOM     93  CB  DVA d          43.487  55.906  91.829  0.00  0.00    -0.014 C 
ATOM     94  H44 DVA d          43.609  56.595  90.981  0.00  0.00     0.043 H 
ATOM     95  H45 DVA d          44.443  55.812  92.366  0.00  0.00     0.043 H 
BRANCH  93  96
ATOM     96  CG  DVA d          42.451  56.483  92.781  0.00  0.00    -0.056 A 
ATOM     97  CD1 DVA d          41.103  56.125  92.676  0.00  0.00    -0.074 A 
ATOM     98  CE1 DVA d          40.124  56.672  93.522  0.00  0.00    -0.051 A 
ATOM     99  H46 DVA d          40.806  55.405  91.922  0.00  0.00     0.084 H 
ATOM    100  CZ  DVA d          40.520  57.601  94.504  0.00  0.00     0.065 A 
ATOM    101  H48 DVA d          39.083  56.384  93.422  0.00  0.00     0.087 H 
ATOM    102  CE2 DVA d          41.852  57.970  94.622  0.00  0.00    -0.051 A 
ATOM    103  CD2 DVA d          42.817  57.414  93.763  0.00  0.00    -0.074 A 
ATOM    104  H49 DVA d          42.149  58.687  95.379  0.00  0.00     0.087 H 
ATOM    105  H47 DVA d          43.855  57.709  93.862  0.00  0.00     0.084 H 
BRANCH 100 106
ATOM    106  OH  DVA d          39.597  58.145  95.370  0.00  0.00    -0.361 OA
ATOM    107  H50 DVA d          38.745  57.759  95.205  0.00  0.00     0.217 HD
ENDBRANCH 100 106
ENDBRANCH  93  96
ENDBRANCH  65  93
ENDBRANCH  63  65
ENDBRANCH  59  61
BRANCH  59 108
ATOM    108  CB  DVA d          41.717  55.125  86.721  0.00  0.00     0.004 C 
ATOM    109  H37 DVA d          41.780  56.162  86.363  0.00  0.00     0.046 H 
ATOM    110  H38 DVA d          40.846  55.019  87.386  0.00  0.00     0.046 H 
BRANCH 108 111
ATOM    111  CG  DVA d          41.511  54.231  85.535  0.00  0.00     0.053 A 
ATOM    112  ND1 DVA d          42.164  53.024  85.384  0.00  0.00    -0.247 NA
ATOM    113  CE1 DVA d          41.763  52.448  84.259  0.00  0.00     0.064 A 
ATOM    114  NE2 DVA d          40.875  53.244  83.676  0.00  0.00    -0.359 N 
ATOM    115  H40 DVA d          42.103  51.485  83.879  0.00  0.00     0.143 H 
ATOM    116  CD2 DVA d          40.704  54.366  84.456  0.00  0.00     0.002 A 
ATOM    117  H41 DVA d          40.393  53.054  82.786  0.00  0.00     0.166 HD
ATOM    118  H39 DVA d          40.043  55.205  84.244  0.00  0.00     0.114 H 
ENDBRANCH 108 111
ENDBRANCH  59 108
ENDBRANCH  57  59
ENDBRANCH   1  55
BRANCH   1 119
ATOM    119  CB  DVA d          46.935  56.856  87.444  0.00  0.00    -0.030 C 
ATOM    120  H29 DVA d          46.370  57.115  88.352  0.00  0.00     0.037 H 
ATOM    121  H30 DVA d          47.711  57.616  87.266  0.00  0.00     0.037 H 
BRANCH 119 122
ATOM    122  CG  DVA d          47.612  55.479  87.645  0.00  0.00     0.011 C 
ATOM    123  H31 DVA d          48.624  55.646  88.042  0.00  0.00     0.047 H 
ATOM    124  H32 DVA d          47.680  54.981  86.666  0.00  0.00     0.047 H 
BRANCH 122 125
ATOM    125  CD  DVA d          46.864  54.542  88.611  0.00  0.00     0.215 C 
ATOM    126  OE1 DVA d          46.380  54.975  89.673  0.00  0.00    -0.274 OA
ATOM    127  NE2 DVA d          46.761  53.281  88.247  0.00  0.00    -0.370 N 
ATOM    128  H33 DVA d          46.285  52.628  88.836  0.00  0.00     0.159 HD
ATOM    129  H34 DVA d          47.158  52.976  87.382  0.00  0.00     0.159 HD
ENDBRANCH 122 125
ENDBRANCH 119 122
ENDBRANCH   1 119
TORSDOF 34
ENDMDL
MODEL 5
REMARK VINA RESULT:      -4.6      2.584      6.464
REMARK WARNING: 32 MAX_TORS EXCEEDED!!!
REMARK  34 active torsions:
REMARK  status: ('A' for Active; 'I' for Inactive)
REMARK    1  A    between atoms: N_1  and  CA_2 
REMARK    2  A    between atoms: CA_2  and  CB_3 
REMARK    3  A    between atoms: CA_2  and  C_6 
REMARK    4  A    between atoms: CB_3  and  CG1_4 
REMARK    5  A    between atoms: CB_3  and  CG2_5 
REMARK       I    between atoms: C_6  and  N_8 
REMARK    6  A    between atoms: CA_9  and  C_13 
REMARK       I    between atoms: C_13  and  N_15 
REMARK    7  A    between atoms: N_15  and  CA_16 
REMARK    8  A    between atoms: CA_16  and  C_17 
REMARK       I    between atoms: C_17  and  N_19 
REMARK    9  A    between atoms: N_19  and  CA_20 
REMARK   10  A    between atoms: CA_20  and  C_21 
REMARK   11  A    between atoms: CA_20  and  CB_23 
REMARK       I    between atoms: C_21  and  N_25 
REMARK   12  A    between atoms: CB_23  and  OG_24 
REMARK   13  A    between atoms: N_25  and  CA_26 
REMARK   14  A    between atoms: CA_26  and  C_27 
REMARK   15  A    between atoms: CA_26  and  CB_29 
REMARK       I    between atoms: C_27  and  N_34 
REMARK   16  A    between atoms: CB_29  and  CG_30 
REMARK   17  A    between atoms: CG_30  and  CD_31 
REMARK       I    between atoms: CD_31  and  NE2_33 
REMARK   18  A    between atoms: N_34  and  CA_35 
REMARK   19  A    between atoms: CA_35  and  C_36 
REMARK   20  A    between atoms: CA_35  and  CB_38 
REMARK       I    between atoms: C_36  and  N_44 
REMARK   21  A    between atoms: CB_38  and  CG_39 
REMARK   22  A    between atoms: N_44  and  CA_45 
REMARK   23  A    between atoms: CA_45  and  C_46 
REMARK   24  A    between atoms: CA_45  and  CB_48 
REMARK       I    between atoms: C_46  and  N_56 
REMARK   25  A    between atoms: CB_48  and  CG_49 
REMARK   26  A    between atoms: CZ_54  and  OH_55 
REMARK   27  A    between atoms: N_56  and  CA_57 
REMARK   28  A    between atoms: CA_57  and  C_58 
REMARK   29  A    between atoms: CA_57  and  CB_60 
REMARK       I    between atoms: C_58  and  N_64 
REMARK   30  A    between atoms: CB_60  and  CG_61 
REMARK   31  A    between atoms: N_64  and  CA_65 
REMARK   32  A    between atoms: CA_65  and  C_66 
REMARK   33  A    between atoms: CA_65  and  CB_69 
REMARK   34  A    between atoms: CB_69  and  OG_70 
ROOT
ATOM      1  CA  DVA d          47.449  52.023  89.974  0.00  0.00     0.090 C 
ATOM      2  H28 DVA d          47.963  52.767  89.346  0.00  0.00     0.087 H 
ENDROOT
BRANCH   1   3
ATOM      3  N   DVA d          46.386  51.407  89.197  0.00  0.00    -0.346 N 
ATOM      4  C   DVA d          46.285  51.685  87.910  0.00  0.00     0.243 C 
ATOM      5  O   DVA d          47.065  52.431  87.339  0.00  0.00    -0.271 OA
ATOM      6  H27 DVA d          45.738  50.782  89.633  0.00  0.00     0.163 HD
BRANCH   4   7
ATOM      7  CA  DVA d          45.131  51.053  87.154  0.00  0.00     0.109 C 
ATOM      8  H23 DVA d          44.794  50.132  87.650  0.00  0.00     0.090 H 
BRANCH   7   9
ATOM      9  N   DVA d          45.590  50.764  85.815  0.00  0.00    -0.344 N 
ATOM     10  C   DVA d          45.310  49.620  85.211  0.00  0.00     0.236 C 
ATOM     11  O   DVA d          44.643  48.727  85.734  0.00  0.00    -0.272 OA
ATOM     12  H22 DVA d          46.135  51.449  85.330  0.00  0.00     0.163 HD
BRANCH  10  13
ATOM     13  CA  DVA d          45.856  49.454  83.817  0.00  0.00     0.069 C 
ATOM     14  H20 DVA d          46.317  48.461  83.708  0.00  0.00     0.078 H 
ATOM     15  H21 DVA d          45.047  49.565  83.080  0.00  0.00     0.078 H 
BRANCH  13  16
ATOM     16  N   DVA d          46.848  50.483  83.619  0.00  0.00    -0.351 N 
ATOM     17  C   DVA d          46.612  51.519  82.827  0.00  0.00     0.241 C 
ATOM     18  O   DVA d          45.546  51.684  82.226  0.00  0.00    -0.271 OA
ATOM     19  H19 DVA d          47.729  50.413  84.088  0.00  0.00     0.163 HD
BRANCH  17  20
ATOM     20  CA  DVA d          47.758  52.521  82.715  0.00  0.00     0.091 C 
ATOM     21  N   DVA d          47.283  53.781  82.123  0.00  0.00    -0.337 N 
ATOM     22  C   DVA d          46.569  54.838  82.592  0.00  0.00     0.251 C 
ATOM     23  CD  DVA d          47.714  53.865  80.714  0.00  0.00    -0.001 C 
ATOM     24  O   DVA d          46.262  55.783  81.855  0.00  0.00    -0.271 OA
ATOM     25  CG  DVA d          48.201  52.457  80.428  0.00  0.00    -0.048 C 
ATOM     26  H17 DVA d          48.525  54.597  80.590  0.00  0.00     0.064 H 
ATOM     27  H18 DVA d          46.872  54.134  80.058  0.00  0.00     0.064 H 
ATOM     28  CB  DVA d          48.816  52.059  81.723  0.00  0.00    -0.036 C 
ATOM     29  H15 DVA d          47.365  51.793  80.164  0.00  0.00     0.035 H 
ATOM     30  H16 DVA d          48.944  52.451  79.617  0.00  0.00     0.035 H 
ATOM     31  H13 DVA d          48.971  50.971  81.778  0.00  0.00     0.036 H 
ATOM     32  H14 DVA d          49.775  52.574  81.888  0.00  0.00     0.036 H 
ATOM     33  H12 DVA d          48.197  52.688  83.710  0.00  0.00     0.087 H 
BRANCH  22  34
ATOM     34  CA  DVA d          46.090  54.843  84.063  0.00  0.00     0.178 C 
ATOM     35  H4  DVA d          46.797  54.228  84.640  0.00  0.00     0.099 H 
BRANCH  34  36
ATOM     36  N   DVA d          44.746  54.206  84.140  0.00  0.00    -0.066 N 
ATOM     37  H1  DVA d          44.829  53.296  84.566  0.00  0.00     0.275 HD
ATOM     38  H2  DVA d          44.367  54.108  83.211  0.00  0.00     0.275 HD
ATOM     39  H3  DVA d          44.133  54.782  84.695  0.00  0.00     0.275 HD
ENDBRANCH  34  36
BRANCH  34  40
ATOM     40  CB  DVA d          46.053  56.235  84.724  0.00  0.00    -0.025 C 
ATOM     41  H5  DVA d          45.665  56.969  84.001  0.00  0.00     0.042 H 
BRANCH  40  42
ATOM     42  CG1 DVA d          45.147  56.216  85.945  0.00  0.00    -0.071 C 
ATOM     43  H6  DVA d          45.470  56.993  86.653  0.00  0.00     0.028 H 
ATOM     44  H7  DVA d          45.206  55.230  86.430  0.00  0.00     0.028 H 
ATOM     45  H8  DVA d          44.110  56.411  85.635  0.00  0.00     0.028 H 
ENDBRANCH  40  42
BRANCH  40  46
ATOM     46  CG2 DVA d          47.476  56.629  85.129  0.00  0.00    -0.071 C 
ATOM     47  H9  DVA d          48.200  56.022  84.564  0.00  0.00     0.028 H 
ATOM     48  H10 DVA d          47.612  56.454  86.206  0.00  0.00     0.028 H 
ATOM     49  H11 DVA d          47.639  57.693  84.907  0.00  0.00     0.028 H 
ENDBRANCH  40  46
ENDBRANCH  34  40
ENDBRANCH  22  34
ENDBRANCH  17  20
ENDBRANCH  13  16
ENDBRANCH  10  13
ENDBRANCH   7   9
BRANCH   7  50
ATOM     50  CB  DVA d          44.005  52.081  87.113  0.00  0.00     0.044 C 
ATOM     51  H24 DVA d          43.112  51.623  86.662  0.00  0.00     0.077 H 
ATOM     52  H25 DVA d          44.321  52.943  86.507  0.00  0.00     0.077 H 
BRANCH  50  53
ATOM     53  OG  DVA d          43.695  52.517  88.426  0.00  0.00    -0.398 OA
ATOM     54  H26 DVA d          43.015  51.964  88.790  0.00  0.00     0.209 HD
ENDBRANCH  50  53
ENDBRANCH   7  50
ENDBRANCH   4   7
ENDBRANCH   1   3
BRANCH   1  55
ATOM     55  C   DVA d          46.878  52.730  91.200  0.00  0.00     0.241 C 
ATOM     56  O   DVA d          47.381  53.781  91.609  0.00  0.00    -0.271 OA
ATOM     57  N   DVA d          45.827  52.151  91.783  0.00  0.00    -0.346 N 
ATOM     58  H35 DVA d          45.449  51.315  91.385  0.00  0.00     0.163 HD
BRANCH  57  59
ATOM     59  CA  DVA d          45.208  52.714  93.002  0.00  0.00     0.094 C 
ATOM     60  H36 DVA d          45.921  53.425  93.444  0.00  0.00     0.088 H 
BRANCH  59  61
ATOM     61  C   DVA d          43.901  53.410  92.756  0.00  0.00     0.241 C 
ATOM     62  O   DVA d          43.339  54.021  93.676  0.00  0.00    -0.271 OA
ATOM     63  N   DVA d          43.405  53.290  91.529  0.00  0.00    -0.346 N 
ATOM     64  H42 DVA d          43.947  52.847  90.816  0.00  0.00     0.163 HD
BRANCH  63  65
ATOM     65  CA  DVA d          42.070  53.800  91.217  0.00  0.00     0.093 C 
ATOM     66  H43 DVA d          41.917  53.679  90.134  0.00  0.00     0.088 H 
BRANCH  65  67
ATOM     67  C   DVA d          40.913  53.094  91.912  0.00  0.00     0.241 C 
ATOM     68  O   DVA d          40.337  52.157  91.352  0.00  0.00    -0.271 OA
ATOM     69  N   DVA d          40.577  53.555  93.116  0.00  0.00    -0.345 N 
ATOM     70  H51 DVA d          41.082  54.329  93.497  0.00  0.00     0.163 HD
BRANCH  69  71
ATOM     71  CA  DVA d          39.486  52.962  93.902  0.00  0.00     0.098 C 
ATOM     72  H52 DVA d          39.117  52.085  93.349  0.00  0.00     0.088 H 
BRANCH  71  73
ATOM     73  C   DVA d          39.900  52.506  95.300  0.00  0.00     0.241 C 
ATOM     74  O   DVA d          39.082  52.010  96.086  0.00  0.00    -0.271 OA
ATOM     75  N   DVA d          41.198  52.676  95.559  0.00  0.00    -0.343 N 
ATOM     76  H55 DVA d          41.749  53.102  94.842  0.00  0.00     0.163 HD
BRANCH  75  77
ATOM     77  CA  DVA d          41.894  52.301  96.791  0.00  0.00     0.116 C 
ATOM     78  H56 DVA d          41.142  52.310  97.594  0.00  0.00     0.093 H 
BRANCH  77  79
ATOM     79  C   DVA d          42.490  50.901  96.759  0.00  0.00     0.198 C 
ATOM     80  O   DVA d          42.199  50.152  95.804  0.00  0.00    -0.646 OA
ATOM     81  OXT DVA d          43.252  50.581  97.700  0.00  0.00    -0.646 OA
ENDBRANCH  77  79
BRANCH  77  82
ATOM     82  CB  DVA d          42.973  53.326  97.162  0.00  0.00     0.045 C 
ATOM     83  H57 DVA d          42.642  54.327  96.847  0.00  0.00     0.077 H 
ATOM     84  H58 DVA d          43.908  53.068  96.643  0.00  0.00     0.077 H 
BRANCH  82  85
ATOM     85  OG  DVA d          43.208  53.335  98.565  0.00  0.00    -0.398 OA
ATOM     86  H59 DVA d          42.611  53.946  98.981  0.00  0.00     0.209 HD
ENDBRANCH  82  85
ENDBRANCH  77  82
ENDBRANCH  75  77
ENDBRANCH  71  73
BRANCH  71  87
ATOM     87  CB  DVA d          38.341  53.962  94.069  0.00  0.00     0.043 C 
ATOM     88  H53 DVA d          37.571  53.512  94.713  0.00  0.00     0.052 H 
ATOM     89  H54 DVA d          37.912  54.175  93.078  0.00  0.00     0.052 H 
BRANCH  87  90
ATOM     90  CG  DVA d          38.790  55.259  94.688  0.00  0.00     0.175 C 
ATOM     91  OD1 DVA d          38.385  55.544  95.836  0.00  0.00    -0.648 OA
ATOM     92  OD2 DVA d          39.558  55.988  94.038  0.00  0.00    -0.648 OA
ENDBRANCH  87  90
ENDBRANCH  71  87
ENDBRANCH  69  71
ENDBRANCH  65  67
BRANCH  65  93
ATOM     93  CB  DVA d          42.045  55.295  91.549  0.00  0.00    -0.014 C 
ATOM     94  H44 DVA d          43.068  55.619  91.792  0.00  0.00     0.043 H 
ATOM     95  H45 DVA d          41.394  55.450  92.422  0.00  0.00     0.043 H 
BRANCH  93  96
ATOM     96  CG  DVA d          41.527  56.145  90.399  0.00  0.00    -0.056 A 
ATOM     97  CD1 DVA d          41.231  57.500  90.585  0.00  0.00    -0.074 A 
ATOM     98  CE1 DVA d          40.719  58.295  89.547  0.00  0.00    -0.051 A 
ATOM     99  H46 DVA d          41.402  57.948  91.558  0.00  0.00     0.084 H 
ATOM    100  CZ  DVA d          40.507  57.707  88.285  0.00  0.00     0.065 A 
ATOM    101  H48 DVA d          40.492  59.343  89.713  0.00  0.00     0.087 H 
ATOM    102  CE2 DVA d          40.792  56.365  88.081  0.00  0.00    -0.051 A 
ATOM    103  CD2 DVA d          41.301  55.584  89.135  0.00  0.00    -0.074 A 
ATOM    104  H49 DVA d          40.625  55.917  87.108  0.00  0.00     0.087 H 
ATOM    105  H47 DVA d          41.520  54.535  88.967  0.00  0.00     0.084 H 
BRANCH 100 106
ATOM    106  OH  DVA d          40.028  58.455  87.232  0.00  0.00    -0.361 OA
ATOM    107  H50 DVA d          40.682  58.486  86.544  0.00  0.00     0.217 HD
ENDBRANCH 100 106
ENDBRANCH  93  96
ENDBRANCH  65  93
ENDBRANCH  63  65
ENDBRANCH  59  61
BRANCH  59 108
ATOM    108  CB  DVA d          44.867  51.627  94.024  0.00  0.00     0.004 C 
ATOM    109  H37 DVA d          44.062  51.003  93.608  0.00  0.00     0.046 H 
ATOM    110  H38 DVA d          44.512  52.117  94.943  0.00  0.00     0.046 H 
BRANCH 108 111
ATOM    111  CG  DVA d          46.015  50.732  94.384  0.00  0.00     0.053 A 
ATOM    112  ND1 DVA d          46.628  49.897  93.472  0.00  0.00    -0.247 NA
ATOM    113  CE1 DVA d          47.622  49.253  94.068  0.00  0.00     0.064 A 
ATOM    114  NE2 DVA d          47.669  49.641  95.337  0.00  0.00    -0.359 N 
ATOM    115  H40 DVA d          48.287  48.530  93.597  0.00  0.00     0.143 H 
ATOM    116  CD2 DVA d          46.671  50.564  95.556  0.00  0.00     0.002 A 
ATOM    117  H41 DVA d          48.341  49.306  96.041  0.00  0.00     0.166 HD
ATOM    118  H39 DVA d          46.451  51.066  96.497  0.00  0.00     0.114 H 
ENDBRANCH 108 111
ENDBRANCH  59 108
ENDBRANCH  57  59
ENDBRANCH   1  55
BRANCH   1 119
ATOM    119  CB  DVA d          48.461  50.951  90.399  0.00  0.00    -0.030 C 
ATOM    120  H29 DVA d          48.434  50.846  91.494  0.00  0.00     0.037 H 
ATOM    121  H30 DVA d          49.469  51.263  90.085  0.00  0.00     0.037 H 
BRANCH 119 122
ATOM    122  CG  DVA d          48.130  49.585  89.751  0.00  0.00     0.011 C 
ATOM    123  H31 DVA d          47.124  49.646  89.312  0.00  0.00     0.047 H 
ATOM    124  H32 DVA d          48.140  48.817  90.540  0.00  0.00     0.047 H 
BRANCH 122 125
ATOM    125  CD  DVA d          49.113  49.154  88.647  0.00  0.00     0.215 C 
ATOM    126  OE1 DVA d          48.748  49.084  87.459  0.00  0.00    -0.274 OA
ATOM    127  NE2 DVA d          50.343  48.879  89.029  0.00  0.00    -0.370 N 
ATOM    128  H33 DVA d          51.023  48.594  88.354  0.00  0.00     0.159 HD
ATOM    129  H34 DVA d          50.596  48.955  89.993  0.00  0.00     0.159 HD
ENDBRANCH 122 125
ENDBRANCH 119 122
ENDBRANCH   1 119
TORSDOF 34
ENDMDL
MODEL 6
REMARK VINA RESULT:      -4.5      2.133      3.331
REMARK WARNING: 32 MAX_TORS EXCEEDED!!!
REMARK  34 active torsions:
REMARK  status: ('A' for Active; 'I' for Inactive)
REMARK    1  A    between atoms: N_1  and  CA_2 
REMARK    2  A    between atoms: CA_2  and  CB_3 
REMARK    3  A    between atoms: CA_2  and  C_6 
REMARK    4  A    between atoms: CB_3  and  CG1_4 
REMARK    5  A    between atoms: CB_3  and  CG2_5 
REMARK       I    between atoms: C_6  and  N_8 
REMARK    6  A    between atoms: CA_9  and  C_13 
REMARK       I    between atoms: C_13  and  N_15 
REMARK    7  A    between atoms: N_15  and  CA_16 
REMARK    8  A    between atoms: CA_16  and  C_17 
REMARK       I    between atoms: C_17  and  N_19 
REMARK    9  A    between atoms: N_19  and  CA_20 
REMARK   10  A    between atoms: CA_20  and  C_21 
REMARK   11  A    between atoms: CA_20  and  CB_23 
REMARK       I    between atoms: C_21  and  N_25 
REMARK   12  A    between atoms: CB_23  and  OG_24 
REMARK   13  A    between atoms: N_25  and  CA_26 
REMARK   14  A    between atoms: CA_26  and  C_27 
REMARK   15  A    between atoms: CA_26  and  CB_29 
REMARK       I    between atoms: C_27  and  N_34 
REMARK   16  A    between atoms: CB_29  and  CG_30 
REMARK   17  A    between atoms: CG_30  and  CD_31 
REMARK       I    between atoms: CD_31  and  NE2_33 
REMARK   18  A    between atoms: N_34  and  CA_35 
REMARK   19  A    between atoms: CA_35  and  C_36 
REMARK   20  A    between atoms: CA_35  and  CB_38 
REMARK       I    between atoms: C_36  and  N_44 
REMARK   21  A    between atoms: CB_38  and  CG_39 
REMARK   22  A    between atoms: N_44  and  CA_45 
REMARK   23  A    between atoms: CA_45  and  C_46 
REMARK   24  A    between atoms: CA_45  and  CB_48 
REMARK       I    between atoms: C_46  and  N_56 
REMARK   25  A    between atoms: CB_48  and  CG_49 
REMARK   26  A    between atoms: CZ_54  and  OH_55 
REMARK   27  A    between atoms: N_56  and  CA_57 
REMARK   28  A    between atoms: CA_57  and  C_58 
REMARK   29  A    between atoms: CA_57  and  CB_60 
REMARK       I    between atoms: C_58  and  N_64 
REMARK   30  A    between atoms: CB_60  and  CG_61 
REMARK   31  A    between atoms: N_64  and  CA_65 
REMARK   32  A    between atoms: CA_65  and  C_66 
REMARK   33  A    between atoms: CA_65  and  CB_69 
REMARK   34  A    between atoms: CB_69  and  OG_70 
ROOT
ATOM      1  CA  DVA d          45.580  56.219  89.219  0.00  0.00     0.090 C 
ATOM      2  H28 DVA d          45.415  57.222  88.797  0.00  0.00     0.087 H 
ENDROOT
BRANCH   1   3
ATOM      3  N   DVA d          46.655  55.573  88.485  0.00  0.00    -0.346 N 
ATOM      4  C   DVA d          46.854  55.892  87.219  0.00  0.00     0.243 C 
ATOM      5  O   DVA d          46.175  56.726  86.641  0.00  0.00    -0.271 OA
ATOM      6  H27 DVA d          47.237  54.894  88.934  0.00  0.00     0.163 HD
BRANCH   4   7
ATOM      7  CA  DVA d          47.958  55.156  86.485  0.00  0.00     0.109 C 
ATOM      8  H23 DVA d          48.848  55.793  86.371  0.00  0.00     0.090 H 
BRANCH   7   9
ATOM      9  N   DVA d          47.445  54.774  85.189  0.00  0.00    -0.344 N 
ATOM     10  C   DVA d          48.205  54.779  84.106  0.00  0.00     0.236 C 
ATOM     11  O   DVA d          49.394  55.099  84.118  0.00  0.00    -0.272 OA
ATOM     12  H22 DVA d          46.487  54.499  85.109  0.00  0.00     0.163 HD
BRANCH  10  13
ATOM     13  CA  DVA d          47.536  54.360  82.823  0.00  0.00     0.069 C 
ATOM     14  H20 DVA d          47.055  55.228  82.349  0.00  0.00     0.078 H 
ATOM     15  H21 DVA d          48.278  53.931  82.134  0.00  0.00     0.078 H 
BRANCH  13  16
ATOM     16  N   DVA d          46.545  53.368  83.160  0.00  0.00    -0.351 N 
ATOM     17  C   DVA d          46.210  52.415  82.302  0.00  0.00     0.241 C 
ATOM     18  O   DVA d          46.721  52.298  81.184  0.00  0.00    -0.271 OA
ATOM     19  H19 DVA d          46.102  53.401  84.056  0.00  0.00     0.163 HD
BRANCH  17  20
ATOM     20  CA  DVA d          45.144  51.442  82.801  0.00  0.00     0.091 C 
ATOM     21  N   DVA d          45.009  51.532  84.262  0.00  0.00    -0.337 N 
ATOM     22  C   DVA d          44.420  52.419  85.106  0.00  0.00     0.251 C 
ATOM     23  CD  DVA d          45.671  50.376  84.897  0.00  0.00    -0.001 C 
ATOM     24  O   DVA d          44.486  52.279  86.334  0.00  0.00    -0.271 OA
ATOM     25  CG  DVA d          46.458  49.769  83.751  0.00  0.00    -0.048 C 
ATOM     26  H17 DVA d          44.932  49.663  85.292  0.00  0.00     0.064 H 
ATOM     27  H18 DVA d          46.340  50.699  85.709  0.00  0.00     0.064 H 
ATOM     28  CB  DVA d          45.557  49.993  82.587  0.00  0.00    -0.036 C 
ATOM     29  H15 DVA d          47.421  50.282  83.613  0.00  0.00     0.035 H 
ATOM     30  H16 DVA d          46.635  48.696  83.915  0.00  0.00     0.035 H 
ATOM     31  H13 DVA d          46.092  49.864  81.635  0.00  0.00     0.036 H 
ATOM     32  H14 DVA d          44.689  49.318  82.615  0.00  0.00     0.036 H 
ATOM     33  H12 DVA d          44.188  51.657  82.298  0.00  0.00     0.087 H 
BRANCH  22  34
ATOM     34  CA  DVA d          43.688  53.653  84.528  0.00  0.00     0.178 C 
ATOM     35  H4  DVA d          44.185  53.916  83.582  0.00  0.00     0.099 H 
BRANCH  34  36
ATOM     36  N   DVA d          43.843  54.797  85.469  0.00  0.00    -0.066 N 
ATOM     37  H1  DVA d          43.155  54.724  86.203  0.00  0.00     0.275 HD
ATOM     38  H2  DVA d          43.711  55.663  84.970  0.00  0.00     0.275 HD
ATOM     39  H3  DVA d          44.767  54.778  85.871  0.00  0.00     0.275 HD
ENDBRANCH  34  36
BRANCH  34  40
ATOM     40  CB  DVA d          42.197  53.428  84.212  0.00  0.00    -0.025 C 
ATOM     41  H5  DVA d          41.923  52.394  84.469  0.00  0.00     0.042 H 
BRANCH  40  42
ATOM     42  CG1 DVA d          41.335  54.383  85.022  0.00  0.00    -0.071 C 
ATOM     43  H6  DVA d          41.253  54.016  86.055  0.00  0.00     0.028 H 
ATOM     44  H7  DVA d          40.332  54.444  84.574  0.00  0.00     0.028 H 
ATOM     45  H8  DVA d          41.797  55.382  85.024  0.00  0.00     0.028 H 
ENDBRANCH  40  42
BRANCH  40  46
ATOM     46  CG2 DVA d          41.968  53.654  82.715  0.00  0.00    -0.071 C 
ATOM     47  H9  DVA d          42.936  53.817  82.216  0.00  0.00     0.028 H 
ATOM     48  H10 DVA d          41.327  54.535  82.570  0.00  0.00     0.028 H 
ATOM     49  H11 DVA d          41.478  52.770  82.282  0.00  0.00     0.028 H 
ENDBRANCH  40  46
ENDBRANCH  34  40
ENDBRANCH  22  34
ENDBRANCH  17  20
ENDBRANCH  13  16
ENDBRANCH  10  13
ENDBRANCH   7   9
BRANCH   7  50
ATOM     50  CB  DVA d          48.293  53.914  87.304  0.00  0.00     0.044 C 
ATOM     51  H24 DVA d          47.807  53.037  86.849  0.00  0.00     0.077 H 
ATOM     52  H25 DVA d          47.924  54.045  88.332  0.00  0.00     0.077 H 
BRANCH  50  53
ATOM     53  OG  DVA d          49.696  53.711  87.330  0.00  0.00    -0.398 OA
ATOM     54  H26 DVA d          50.119  54.362  86.783  0.00  0.00     0.209 HD
ENDBRANCH  50  53
ENDBRANCH   7  50
ENDBRANCH   4   7
ENDBRANCH   1   3
BRANCH   1  55
ATOM     55  C   DVA d          44.287  55.418  89.093  0.00  0.00     0.241 C 
ATOM     56  O   DVA d          44.225  54.441  88.340  0.00  0.00    -0.271 OA
ATOM     57  N   DVA d          43.257  55.833  89.832  0.00  0.00    -0.346 N 
ATOM     58  H35 DVA d          43.381  56.614  90.445  0.00  0.00     0.163 HD
BRANCH  57  59
ATOM     59  CA  DVA d          41.938  55.168  89.769  0.00  0.00     0.094 C 
ATOM     60  H36 DVA d          41.795  54.802  88.742  0.00  0.00     0.088 H 
BRANCH  59  61
ATOM     61  C   DVA d          41.786  54.023  90.728  0.00  0.00     0.241 C 
ATOM     62  O   DVA d          40.885  53.188  90.562  0.00  0.00    -0.271 OA
ATOM     63  N   DVA d          42.641  54.004  91.745  0.00  0.00    -0.346 N 
ATOM     64  H42 DVA d          43.390  54.665  91.776  0.00  0.00     0.163 HD
BRANCH  63  65
ATOM     65  CA  DVA d          42.494  53.022  92.819  0.00  0.00     0.093 C 
ATOM     66  H43 DVA d          41.932  52.169  92.410  0.00  0.00     0.088 H 
BRANCH  65  67
ATOM     67  C   DVA d          43.793  52.468  93.390  0.00  0.00     0.241 C 
ATOM     68  O   DVA d          44.769  52.302  92.653  0.00  0.00    -0.271 OA
ATOM     69  N   DVA d          43.790  52.176  94.689  0.00  0.00    -0.345 N 
ATOM     70  H51 DVA d          42.954  52.323  95.218  0.00  0.00     0.163 HD
BRANCH  69  71
ATOM     71  CA  DVA d          44.978  51.643  95.372  0.00  0.00     0.098 C 
ATOM     72  H52 DVA d          45.461  50.928  94.689  0.00  0.00     0.088 H 
BRANCH  71  73
ATOM     73  C   DVA d          46.005  52.706  95.757  0.00  0.00     0.241 C 
ATOM     74  O   DVA d          45.915  53.337  96.819  0.00  0.00    -0.271 OA
ATOM     75  N   DVA d          46.985  52.856  94.864  0.00  0.00    -0.343 N 
ATOM     76  H55 DVA d          46.933  52.293  94.039  0.00  0.00     0.163 HD
BRANCH  75  77
ATOM     77  CA  DVA d          48.130  53.763  94.973  0.00  0.00     0.116 C 
ATOM     78  H56 DVA d          47.724  54.750  95.241  0.00  0.00     0.093 H 
BRANCH  77  79
ATOM     79  C   DVA d          49.117  53.378  96.065  0.00  0.00     0.198 C 
ATOM     80  O   DVA d          49.417  54.230  96.926  0.00  0.00    -0.646 OA
ATOM     81  OXT DVA d          49.573  52.211  96.039  0.00  0.00    -0.646 OA
ENDBRANCH  77  79
BRANCH  77  82
ATOM     82  CB  DVA d          48.857  53.915  93.632  0.00  0.00     0.045 C 
ATOM     83  H57 DVA d          49.620  54.702  93.723  0.00  0.00     0.077 H 
ATOM     84  H58 DVA d          48.129  54.198  92.857  0.00  0.00     0.077 H 
BRANCH  82  85
ATOM     85  OG  DVA d          49.489  52.698  93.253  0.00  0.00    -0.398 OA
ATOM     86  H59 DVA d          49.119  51.981  93.755  0.00  0.00     0.209 HD
ENDBRANCH  82  85
ENDBRANCH  77  82
ENDBRANCH  75  77
ENDBRANCH  71  73
BRANCH  71  87
ATOM     87  CB  DVA d          44.575  50.911  96.654  0.00  0.00     0.043 C 
ATOM     88  H53 DVA d          44.805  51.557  97.514  0.00  0.00     0.052 H 
ATOM     89  H54 DVA d          45.159  49.982  96.726  0.00  0.00     0.052 H 
BRANCH  87  90
ATOM     90  CG  DVA d          43.110  50.565  96.688  0.00  0.00     0.175 C 
ATOM     91  OD1 DVA d          42.716  49.573  96.037  0.00  0.00    -0.648 OA
ATOM     92  OD2 DVA d          42.354  51.270  97.377  0.00  0.00    -0.648 OA
ENDBRANCH  87  90
ENDBRANCH  71  87
ENDBRANCH  69  71
ENDBRANCH  65  67
BRANCH  65  93
ATOM     93  CB  DVA d          41.663  53.663  93.935  0.00  0.00    -0.014 C 
ATOM     94  H44 DVA d          41.537  54.732  93.710  0.00  0.00     0.043 H 
ATOM     95  H45 DVA d          42.206  53.550  94.886  0.00  0.00     0.043 H 
BRANCH  93  96
ATOM     96  CG  DVA d          40.288  53.031  94.083  0.00  0.00    -0.056 A 
ATOM     97  CD1 DVA d          39.127  53.783  93.871  0.00  0.00    -0.074 A 
ATOM     98  CE1 DVA d          37.846  53.229  94.035  0.00  0.00    -0.051 A 
ATOM     99  H46 DVA d          39.219  54.821  93.572  0.00  0.00     0.084 H 
ATOM    100  CZ  DVA d          37.737  51.878  94.417  0.00  0.00     0.065 A 
ATOM    101  H48 DVA d          36.959  53.831  93.870  0.00  0.00     0.087 H 
ATOM    102  CE2 DVA d          38.876  51.117  94.633  0.00  0.00    -0.051 A 
ATOM    103  CD2 DVA d          40.150  51.691  94.468  0.00  0.00    -0.074 A 
ATOM    104  H49 DVA d          38.785  50.078  94.929  0.00  0.00     0.087 H 
ATOM    105  H47 DVA d          41.035  51.088  94.640  0.00  0.00     0.084 H 
BRANCH 100 106
ATOM    106  OH  DVA d          36.501  51.288  94.566  0.00  0.00    -0.361 OA
ATOM    107  H50 DVA d          36.500  50.754  95.352  0.00  0.00     0.217 HD
ENDBRANCH 100 106
ENDBRANCH  93  96
ENDBRANCH  65  93
ENDBRANCH  63  65
ENDBRANCH  59  61
BRANCH  59 108
ATOM    108  CB  DVA d          40.799  56.121  90.139  0.00  0.00     0.004 C 
ATOM    109  H37 DVA d          41.074  56.642  91.068  0.00  0.00     0.046 H 
ATOM    110  H38 DVA d          39.891  55.523  90.309  0.00  0.00     0.046 H 
BRANCH 108 111
ATOM    111  CG  DVA d          40.491  57.153  89.097  0.00  0.00     0.053 A 
ATOM    112  ND1 DVA d          40.887  57.029  87.779  0.00  0.00    -0.247 NA
ATOM    113  CE1 DVA d          40.450  58.075  87.092  0.00  0.00     0.064 A 
ATOM    114  NE2 DVA d          39.789  58.874  87.921  0.00  0.00    -0.359 N 
ATOM    115  H40 DVA d          40.607  58.249  86.028  0.00  0.00     0.143 H 
ATOM    116  CD2 DVA d          39.804  58.317  89.180  0.00  0.00     0.002 A 
ATOM    117  H41 DVA d          39.339  59.764  87.664  0.00  0.00     0.166 HD
ATOM    118  H39 DVA d          39.349  58.735  90.077  0.00  0.00     0.114 H 
ENDBRANCH 108 111
ENDBRANCH  59 108
ENDBRANCH  57  59
ENDBRANCH   1  55
BRANCH   1 119
ATOM    119  CB  DVA d          45.978  56.363  90.694  0.00  0.00    -0.030 C 
ATOM    120  H29 DVA d          46.980  55.933  90.839  0.00  0.00     0.037 H 
ATOM    121  H30 DVA d          45.252  55.818  91.316  0.00  0.00     0.037 H 
BRANCH 119 122
ATOM    122  CG  DVA d          45.998  57.850  91.123  0.00  0.00     0.011 C 
ATOM    123  H31 DVA d          44.968  58.235  91.082  0.00  0.00     0.047 H 
ATOM    124  H32 DVA d          46.625  58.407  90.410  0.00  0.00     0.047 H 
BRANCH 122 125
ATOM    125  CD  DVA d          46.547  58.092  92.540  0.00  0.00     0.215 C 
ATOM    126  OE1 DVA d          46.431  59.202  93.090  0.00  0.00    -0.274 OA
ATOM    127  NE2 DVA d          47.128  57.067  93.128  0.00  0.00    -0.370 N 
ATOM    128  H33 DVA d          47.504  57.167  94.050  0.00  0.00     0.159 HD
ATOM    129  H34 DVA d          47.194  56.189  92.654  0.00  0.00     0.159 HD
ENDBRANCH 122 125
ENDBRANCH 119 122
ENDBRANCH   1 119
TORSDOF 34
ENDMDL
MODEL 7
REMARK VINA RESULT:      -4.1      2.525      9.123
REMARK WARNING: 32 MAX_TORS EXCEEDED!!!
REMARK  34 active torsions:
REMARK  status: ('A' for Active; 'I' for Inactive)
REMARK    1  A    between atoms: N_1  and  CA_2 
REMARK    2  A    between atoms: CA_2  and  CB_3 
REMARK    3  A    between atoms: CA_2  and  C_6 
REMARK    4  A    between atoms: CB_3  and  CG1_4 
REMARK    5  A    between atoms: CB_3  and  CG2_5 
REMARK       I    between atoms: C_6  and  N_8 
REMARK    6  A    between atoms: CA_9  and  C_13 
REMARK       I    between atoms: C_13  and  N_15 
REMARK    7  A    between atoms: N_15  and  CA_16 
REMARK    8  A    between atoms: CA_16  and  C_17 
REMARK       I    between atoms: C_17  and  N_19 
REMARK    9  A    between atoms: N_19  and  CA_20 
REMARK   10  A    between atoms: CA_20  and  C_21 
REMARK   11  A    between atoms: CA_20  and  CB_23 
REMARK       I    between atoms: C_21  and  N_25 
REMARK   12  A    between atoms: CB_23  and  OG_24 
REMARK   13  A    between atoms: N_25  and  CA_26 
REMARK   14  A    between atoms: CA_26  and  C_27 
REMARK   15  A    between atoms: CA_26  and  CB_29 
REMARK       I    between atoms: C_27  and  N_34 
REMARK   16  A    between atoms: CB_29  and  CG_30 
REMARK   17  A    between atoms: CG_30  and  CD_31 
REMARK       I    between atoms: CD_31  and  NE2_33 
REMARK   18  A    between atoms: N_34  and  CA_35 
REMARK   19  A    between atoms: CA_35  and  C_36 
REMARK   20  A    between atoms: CA_35  and  CB_38 
REMARK       I    between atoms: C_36  and  N_44 
REMARK   21  A    between atoms: CB_38  and  CG_39 
REMARK   22  A    between atoms: N_44  and  CA_45 
REMARK   23  A    between atoms: CA_45  and  C_46 
REMARK   24  A    between atoms: CA_45  and  CB_48 
REMARK       I    between atoms: C_46  and  N_56 
REMARK   25  A    between atoms: CB_48  and  CG_49 
REMARK   26  A    between atoms: CZ_54  and  OH_55 
REMARK   27  A    between atoms: N_56  and  CA_57 
REMARK   28  A    between atoms: CA_57  and  C_58 
REMARK   29  A    between atoms: CA_57  and  CB_60 
REMARK       I    between atoms: C_58  and  N_64 
REMARK   30  A    between atoms: CB_60  and  CG_61 
REMARK   31  A    between atoms: N_64  and  CA_65 
REMARK   32  A    between atoms: CA_65  and  C_66 
REMARK   33  A    between atoms: CA_65  and  CB_69 
REMARK   34  A    between atoms: CB_69  and  OG_70 
ROOT
ATOM      1  CA  DVA d          46.201  51.303  87.790  0.00  0.00     0.090 C 
ATOM      2  H28 DVA d          46.172  50.224  88.008  0.00  0.00     0.087 H 
ENDROOT
BRANCH   1   3
ATOM      3  N   DVA d          46.544  52.019  89.008  0.00  0.00    -0.346 N 
ATOM      4  C   DVA d          46.855  51.332  90.092  0.00  0.00     0.243 C 
ATOM      5  O   DVA d          46.880  50.112  90.108  0.00  0.00    -0.271 OA
ATOM      6  H27 DVA d          46.544  53.019  89.024  0.00  0.00     0.163 HD
BRANCH   4   7
ATOM      7  CA  DVA d          47.160  52.125  91.349  0.00  0.00     0.109 C 
ATOM      8  H23 DVA d          48.101  51.787  91.808  0.00  0.00     0.090 H 
BRANCH   7   9
ATOM      9  N   DVA d          46.058  51.938  92.264  0.00  0.00    -0.344 N 
ATOM     10  C   DVA d          46.245  51.540  93.513  0.00  0.00     0.236 C 
ATOM     11  O   DVA d          47.358  51.307  93.987  0.00  0.00    -0.272 OA
ATOM     12  H22 DVA d          45.127  52.113  91.945  0.00  0.00     0.163 HD
BRANCH  10  13
ATOM     13  CA  DVA d          45.005  51.384  94.353  0.00  0.00     0.069 C 
ATOM     14  H20 DVA d          44.113  51.634  93.759  0.00  0.00     0.078 H 
ATOM     15  H21 DVA d          44.925  50.349  94.717  0.00  0.00     0.078 H 
BRANCH  13  16
ATOM     16  N   DVA d          45.126  52.291  95.468  0.00  0.00    -0.351 N 
ATOM     17  C   DVA d          44.068  52.632  96.191  0.00  0.00     0.241 C 
ATOM     18  O   DVA d          42.932  52.198  95.979  0.00  0.00    -0.271 OA
ATOM     19  H19 DVA d          46.022  52.669  95.700  0.00  0.00     0.163 HD
BRANCH  17  20
ATOM     20  CA  DVA d          44.353  53.603  97.335  0.00  0.00     0.091 C 
ATOM     21  N   DVA d          45.345  54.607  96.921  0.00  0.00    -0.337 N 
ATOM     22  C   DVA d          45.297  55.724  96.148  0.00  0.00     0.251 C 
ATOM     23  CD  DVA d          46.659  54.284  97.510  0.00  0.00    -0.001 C 
ATOM     24  O   DVA d          46.313  56.391  95.920  0.00  0.00    -0.271 OA
ATOM     25  CG  DVA d          46.453  52.877  98.039  0.00  0.00    -0.048 C 
ATOM     26  H17 DVA d          46.911  54.979  98.324  0.00  0.00     0.064 H 
ATOM     27  H18 DVA d          47.452  54.308  96.747  0.00  0.00     0.064 H 
ATOM     28  CB  DVA d          45.039  52.912  98.504  0.00  0.00    -0.036 C 
ATOM     29  H15 DVA d          46.592  52.129  97.245  0.00  0.00     0.035 H 
ATOM     30  H16 DVA d          47.139  52.660  98.871  0.00  0.00     0.035 H 
ATOM     31  H13 DVA d          44.643  51.898  98.660  0.00  0.00     0.036 H 
ATOM     32  H14 DVA d          44.936  53.493  99.433  0.00  0.00     0.036 H 
ATOM     33  H12 DVA d          43.414  54.079  97.655  0.00  0.00     0.087 H 
BRANCH  22  34
ATOM     34  CA  DVA d          43.957  56.148  95.503  0.00  0.00     0.178 C 
ATOM     35  H4  DVA d          43.418  55.229  95.230  0.00  0.00     0.099 H 
BRANCH  34  36
ATOM     36  N   DVA d          44.237  56.913  94.256  0.00  0.00    -0.066 N 
ATOM     37  H1  DVA d          43.664  56.557  93.507  0.00  0.00     0.275 HD
ATOM     38  H2  DVA d          45.210  56.812  94.011  0.00  0.00     0.275 HD
ATOM     39  H3  DVA d          44.028  57.888  94.405  0.00  0.00     0.275 HD
ENDBRANCH  34  36
BRANCH  34  40
ATOM     40  CB  DVA d          43.028  56.963  96.424  0.00  0.00    -0.025 C 
ATOM     41  H5  DVA d          43.236  56.702  97.473  0.00  0.00     0.042 H 
BRANCH  40  42
ATOM     42  CG1 DVA d          43.265  58.452  96.230  0.00  0.00    -0.071 C 
ATOM     43  H6  DVA d          43.540  58.646  95.183  0.00  0.00     0.028 H 
ATOM     44  H7  DVA d          44.080  58.784  96.890  0.00  0.00     0.028 H 
ATOM     45  H8  DVA d          42.346  59.005  96.475  0.00  0.00     0.028 H 
ENDBRANCH  40  42
BRANCH  40  46
ATOM     46  CG2 DVA d          41.574  56.613  96.096  0.00  0.00    -0.071 C 
ATOM     47  H9  DVA d          41.115  57.441  95.535  0.00  0.00     0.028 H 
ATOM     48  H10 DVA d          41.017  56.449  97.030  0.00  0.00     0.028 H 
ATOM     49  H11 DVA d          41.546  55.698  95.488  0.00  0.00     0.028 H 
ENDBRANCH  40  46
ENDBRANCH  34  40
ENDBRANCH  22  34
ENDBRANCH  17  20
ENDBRANCH  13  16
ENDBRANCH  10  13
ENDBRANCH   7   9
BRANCH   7  50
ATOM     50  CB  DVA d          47.261  53.592  90.942  0.00  0.00     0.044 C 
ATOM     51  H24 DVA d          47.679  53.660  89.927  0.00  0.00     0.077 H 
ATOM     52  H25 DVA d          47.920  54.120  91.647  0.00  0.00     0.077 H 
BRANCH  50  53
ATOM     53  OG  DVA d          45.976  54.191  90.962  0.00  0.00    -0.398 OA
ATOM     54  H26 DVA d          45.693  54.300  91.862  0.00  0.00     0.209 HD
ENDBRANCH  50  53
ENDBRANCH   7  50
ENDBRANCH   4   7
ENDBRANCH   1   3
BRANCH   1  55
ATOM     55  C   DVA d          44.827  51.734  87.283  0.00  0.00     0.241 C 
ATOM     56  O   DVA d          44.035  50.902  86.831  0.00  0.00    -0.271 OA
ATOM     57  N   DVA d          44.549  53.037  87.360  0.00  0.00    -0.346 N 
ATOM     58  H35 DVA d          45.223  53.656  87.763  0.00  0.00     0.163 HD
BRANCH  57  59
ATOM     59  CA  DVA d          43.269  53.588  86.864  0.00  0.00     0.094 C 
ATOM     60  H36 DVA d          42.597  52.743  86.657  0.00  0.00     0.088 H 
BRANCH  59  61
ATOM     61  C   DVA d          42.599  54.530  87.821  0.00  0.00     0.241 C 
ATOM     62  O   DVA d          41.409  54.367  88.123  0.00  0.00    -0.271 OA
ATOM     63  N   DVA d          43.351  55.530  88.268  0.00  0.00    -0.346 N 
ATOM     64  H42 DVA d          44.325  55.558  88.044  0.00  0.00     0.163 HD
BRANCH  63  65
ATOM     65  CA  DVA d          42.764  56.590  89.087  0.00  0.00     0.093 C 
ATOM     66  H43 DVA d          41.718  56.710  88.770  0.00  0.00     0.088 H 
BRANCH  65  67
ATOM     67  C   DVA d          42.748  56.333  90.589  0.00  0.00     0.241 C 
ATOM     68  O   DVA d          43.217  57.172  91.363  0.00  0.00    -0.271 OA
ATOM     69  N   DVA d          42.224  55.174  90.985  0.00  0.00    -0.345 N 
ATOM     70  H51 DVA d          41.879  54.538  90.295  0.00  0.00     0.163 HD
BRANCH  69  71
ATOM     71  CA  DVA d          42.137  54.802  92.404  0.00  0.00     0.098 C 
ATOM     72  H52 DVA d          42.799  55.477  92.966  0.00  0.00     0.088 H 
BRANCH  71  73
ATOM     73  C   DVA d          40.732  54.911  92.993  0.00  0.00     0.241 C 
ATOM     74  O   DVA d          40.114  55.984  92.996  0.00  0.00    -0.271 OA
ATOM     75  N   DVA d          40.256  53.759  93.468  0.00  0.00    -0.343 N 
ATOM     76  H55 DVA d          40.863  52.966  93.418  0.00  0.00     0.163 HD
BRANCH  75  77
ATOM     77  CA  DVA d          38.932  53.540  94.054  0.00  0.00     0.116 C 
ATOM     78  H56 DVA d          38.254  54.265  93.579  0.00  0.00     0.093 H 
BRANCH  77  79
ATOM     79  C   DVA d          38.361  52.156  93.783  0.00  0.00     0.198 C 
ATOM     80  O   DVA d          37.196  51.909  94.155  0.00  0.00    -0.646 OA
ATOM     81  OXT DVA d          39.100  51.338  93.188  0.00  0.00    -0.646 OA
ENDBRANCH  77  79
BRANCH  77  82
ATOM     82  CB  DVA d          38.928  53.828  95.560  0.00  0.00     0.045 C 
ATOM     83  H57 DVA d          37.961  53.519  95.983  0.00  0.00     0.077 H 
ATOM     84  H58 DVA d          39.072  54.907  95.721  0.00  0.00     0.077 H 
BRANCH  82  85
ATOM     85  OG  DVA d          39.971  53.118  96.218  0.00  0.00    -0.398 OA
ATOM     86  H59 DVA d          39.716  52.208  96.321  0.00  0.00     0.209 HD
ENDBRANCH  82  85
ENDBRANCH  77  82
ENDBRANCH  75  77
ENDBRANCH  71  73
BRANCH  71  87
ATOM     87  CB  DVA d          42.606  53.360  92.609  0.00  0.00     0.043 C 
ATOM     88  H53 DVA d          41.946  52.876  93.343  0.00  0.00     0.052 H 
ATOM     89  H54 DVA d          43.636  53.377  92.996  0.00  0.00     0.052 H 
BRANCH  87  90
ATOM     90  CG  DVA d          42.583  52.556  91.335  0.00  0.00     0.175 C 
ATOM     91  OD1 DVA d          43.650  52.414  90.700  0.00  0.00    -0.648 OA
ATOM     92  OD2 DVA d          41.506  52.053  90.976  0.00  0.00    -0.648 OA
ENDBRANCH  87  90
ENDBRANCH  71  87
ENDBRANCH  69  71
ENDBRANCH  65  67
BRANCH  65  93
ATOM     93  CB  DVA d          43.516  57.891  88.788  0.00  0.00    -0.014 C 
ATOM     94  H44 DVA d          43.600  58.471  89.720  0.00  0.00     0.043 H 
ATOM     95  H45 DVA d          42.941  58.467  88.048  0.00  0.00     0.043 H 
BRANCH  93  96
ATOM     96  CG  DVA d          44.914  57.650  88.238  0.00  0.00    -0.056 A 
ATOM     97  CD1 DVA d          46.004  57.488  89.099  0.00  0.00    -0.074 A 
ATOM     98  CE1 DVA d          47.309  57.298  88.612  0.00  0.00    -0.051 A 
ATOM     99  H46 DVA d          45.839  57.508  90.170  0.00  0.00     0.084 H 
ATOM    100  CZ  DVA d          47.514  57.266  87.219  0.00  0.00     0.065 A 
ATOM    101  H48 DVA d          48.142  57.179  89.297  0.00  0.00     0.087 H 
ATOM    102  CE2 DVA d          46.445  57.427  86.350  0.00  0.00    -0.051 A 
ATOM    103  CD2 DVA d          45.147  57.620  86.857  0.00  0.00    -0.074 A 
ATOM    104  H49 DVA d          46.610  57.404  85.279  0.00  0.00     0.087 H 
ATOM    105  H47 DVA d          44.317  57.746  86.170  0.00  0.00     0.084 H 
BRANCH 100 106
ATOM    106  OH  DVA d          48.772  57.060  86.699  0.00  0.00    -0.361 OA
ATOM    107  H50 DVA d          48.796  57.366  85.800  0.00  0.00     0.217 HD
ENDBRANCH 100 106
ENDBRANCH  93  96
ENDBRANCH  65  93
ENDBRANCH  63  65
ENDBRANCH  59  61
BRANCH  59 108
ATOM    108  CB  DVA d          43.459  54.417  85.592  0.00  0.00     0.004 C 
ATOM    109  H37 DVA d          44.508  54.746  85.548  0.00  0.00     0.046 H 
ATOM    110  H38 DVA d          42.801  55.297  85.653  0.00  0.00     0.046 H 
BRANCH 108 111
ATOM    111  CG  DVA d          43.144  53.686  84.322  0.00  0.00     0.053 A 
ATOM    112  ND1 DVA d          43.661  52.439  84.027  0.00  0.00    -0.247 NA
ATOM    113  CE1 DVA d          43.186  52.036  82.857  0.00  0.00     0.064 A 
ATOM    114  NE2 DVA d          42.384  52.981  82.382  0.00  0.00    -0.359 N 
ATOM    115  H40 DVA d          43.416  51.089  82.368  0.00  0.00     0.143 H 
ATOM    116  CD2 DVA d          42.345  54.023  83.282  0.00  0.00     0.002 A 
ATOM    117  H41 DVA d          41.874  52.941  81.488  0.00  0.00     0.166 HD
ATOM    118  H39 DVA d          41.777  54.946  83.177  0.00  0.00     0.114 H 
ENDBRANCH 108 111
ENDBRANCH  59 108
ENDBRANCH  57  59
ENDBRANCH   1  55
BRANCH   1 119
ATOM    119  CB  DVA d          47.270  51.564  86.721  0.00  0.00    -0.030 C 
ATOM    120  H29 DVA d          47.384  50.663  86.100  0.00  0.00     0.037 H 
ATOM    121  H30 DVA d          48.226  51.791  87.217  0.00  0.00     0.037 H 
BRANCH 119 122
ATOM    122  CG  DVA d          46.874  52.756  85.817  0.00  0.00     0.011 C 
ATOM    123  H31 DVA d          47.240  53.681  86.285  0.00  0.00     0.047 H 
ATOM    124  H32 DVA d          45.776  52.789  85.750  0.00  0.00     0.047 H 
BRANCH 122 125
ATOM    125  CD  DVA d          47.441  52.681  84.388  0.00  0.00     0.215 C 
ATOM    126  OE1 DVA d          48.573  52.210  84.174  0.00  0.00    -0.274 OA
ATOM    127  NE2 DVA d          46.666  53.128  83.422  0.00  0.00    -0.370 N 
ATOM    128  H33 DVA d          46.984  53.104  82.474  0.00  0.00     0.159 HD
ATOM    129  H34 DVA d          45.760  53.492  83.637  0.00  0.00     0.159 HD
ENDBRANCH 122 125
ENDBRANCH 119 122
ENDBRANCH   1 119
TORSDOF 34
ENDMDL
MODEL 8
REMARK VINA RESULT:      -4.1      2.650      6.754
REMARK WARNING: 32 MAX_TORS EXCEEDED!!!
REMARK  34 active torsions:
REMARK  status: ('A' for Active; 'I' for Inactive)
REMARK    1  A    between atoms: N_1  and  CA_2 
REMARK    2  A    between atoms: CA_2  and  CB_3 
REMARK    3  A    between atoms: CA_2  and  C_6 
REMARK    4  A    between atoms: CB_3  and  CG1_4 
REMARK    5  A    between atoms: CB_3  and  CG2_5 
REMARK       I    between atoms: C_6  and  N_8 
REMARK    6  A    between atoms: CA_9  and  C_13 
REMARK       I    between atoms: C_13  and  N_15 
REMARK    7  A    between atoms: N_15  and  CA_16 
REMARK    8  A    between atoms: CA_16  and  C_17 
REMARK       I    between atoms: C_17  and  N_19 
REMARK    9  A    between atoms: N_19  and  CA_20 
REMARK   10  A    between atoms: CA_20  and  C_21 
REMARK   11  A    between atoms: CA_20  and  CB_23 
REMARK       I    between atoms: C_21  and  N_25 
REMARK   12  A    between atoms: CB_23  and  OG_24 
REMARK   13  A    between atoms: N_25  and  CA_26 
REMARK   14  A    between atoms: CA_26  and  C_27 
REMARK   15  A    between atoms: CA_26  and  CB_29 
REMARK       I    between atoms: C_27  and  N_34 
REMARK   16  A    between atoms: CB_29  and  CG_30 
REMARK   17  A    between atoms: CG_30  and  CD_31 
REMARK       I    between atoms: CD_31  and  NE2_33 
REMARK   18  A    between atoms: N_34  and  CA_35 
REMARK   19  A    between atoms: CA_35  and  C_36 
REMARK   20  A    between atoms: CA_35  and  CB_38 
REMARK       I    between atoms: C_36  and  N_44 
REMARK   21  A    between atoms: CB_38  and  CG_39 
REMARK   22  A    between atoms: N_44  and  CA_45 
REMARK   23  A    between atoms: CA_45  and  C_46 
REMARK   24  A    between atoms: CA_45  and  CB_48 
REMARK       I    between atoms: C_46  and  N_56 
REMARK   25  A    between atoms: CB_48  and  CG_49 
REMARK   26  A    between atoms: CZ_54  and  OH_55 
REMARK   27  A    between atoms: N_56  and  CA_57 
REMARK   28  A    between atoms: CA_57  and  C_58 
REMARK   29  A    between atoms: CA_57  and  CB_60 
REMARK       I    between atoms: C_58  and  N_64 
REMARK   30  A    between atoms: CB_60  and  CG_61 
REMARK   31  A    between atoms: N_64  and  CA_65 
REMARK   32  A    between atoms: CA_65  and  C_66 
REMARK   33  A    between atoms: CA_65  and  CB_69 
REMARK   34  A    between atoms: CB_69  and  OG_70 
ROOT
ATOM      1  CA  DVA d          47.234  50.918  89.076  0.00  0.00     0.090 C 
ATOM      2  H28 DVA d          48.108  51.261  88.502  0.00  0.00     0.087 H 
ENDROOT
BRANCH   1   3
ATOM      3  N   DVA d          46.082  50.865  88.191  0.00  0.00    -0.346 N 
ATOM      4  C   DVA d          46.219  50.340  86.987  0.00  0.00     0.243 C 
ATOM      5  O   DVA d          47.279  49.881  86.590  0.00  0.00    -0.271 OA
ATOM      6  H27 DVA d          45.197  51.222  88.490  0.00  0.00     0.163 HD
BRANCH   4   7
ATOM      7  CA  DVA d          45.000  50.350  86.085  0.00  0.00     0.109 C 
ATOM      8  H23 DVA d          44.473  49.386  86.124  0.00  0.00     0.090 H 
BRANCH   7   9
ATOM      9  N   DVA d          45.452  50.622  84.739  0.00  0.00    -0.344 N 
ATOM     10  C   DVA d          44.801  50.172  83.678  0.00  0.00     0.236 C 
ATOM     11  O   DVA d          43.771  49.501  83.753  0.00  0.00    -0.272 OA
ATOM     12  H22 DVA d          46.281  51.165  84.606  0.00  0.00     0.163 HD
BRANCH  10  13
ATOM     13  CA  DVA d          45.388  50.529  82.337  0.00  0.00     0.069 C 
ATOM     14  H20 DVA d          45.689  49.616  81.803  0.00  0.00     0.078 H 
ATOM     15  H21 DVA d          44.649  51.078  81.737  0.00  0.00     0.078 H 
BRANCH  13  16
ATOM     16  N   DVA d          46.541  51.361  82.582  0.00  0.00    -0.351 N 
ATOM     17  C   DVA d          46.551  52.638  82.227  0.00  0.00     0.241 C 
ATOM     18  O   DVA d          45.594  53.200  81.687  0.00  0.00    -0.271 OA
ATOM     19  H19 DVA d          47.345  50.968  83.028  0.00  0.00     0.163 HD
BRANCH  17  20
ATOM     20  CA  DVA d          47.843  53.387  82.548  0.00  0.00     0.091 C 
ATOM     21  N   DVA d          47.618  54.840  82.507  0.00  0.00    -0.337 N 
ATOM     22  C   DVA d          47.036  55.732  83.350  0.00  0.00     0.251 C 
ATOM     23  CD  DVA d          48.175  55.396  81.258  0.00  0.00    -0.001 C 
ATOM     24  O   DVA d          46.941  56.929  83.051  0.00  0.00    -0.271 OA
ATOM     25  CG  DVA d          48.464  54.154  80.437  0.00  0.00    -0.048 C 
ATOM     26  H17 DVA d          49.096  55.965  81.453  0.00  0.00     0.064 H 
ATOM     27  H18 DVA d          47.443  56.044  80.752  0.00  0.00     0.064 H 
ATOM     28  CB  DVA d          48.899  53.177  81.472  0.00  0.00    -0.036 C 
ATOM     29  H15 DVA d          47.562  53.804  79.913  0.00  0.00     0.035 H 
ATOM     30  H16 DVA d          49.264  54.339  79.705  0.00  0.00     0.035 H 
ATOM     31  H13 DVA d          48.880  52.147  81.085  0.00  0.00     0.036 H 
ATOM     32  H14 DVA d          49.907  53.410  81.846  0.00  0.00     0.036 H 
ATOM     33  H12 DVA d          48.216  53.069  83.533  0.00  0.00     0.087 H 
BRANCH  22  34
ATOM     34  CA  DVA d          46.440  55.240  84.690  0.00  0.00     0.178 C 
ATOM     35  H4  DVA d          46.836  54.230  84.874  0.00  0.00     0.099 H 
BRANCH  34  36
ATOM     36  N   DVA d          44.960  55.144  84.558  0.00  0.00    -0.066 N 
ATOM     37  H1  DVA d          44.544  55.081  85.475  0.00  0.00     0.275 HD
ATOM     38  H2  DVA d          44.722  54.322  84.024  0.00  0.00     0.275 HD
ATOM     39  H3  DVA d          44.610  55.963  84.087  0.00  0.00     0.275 HD
ENDBRANCH  34  36
BRANCH  34  40
ATOM     40  CB  DVA d          46.807  56.103  85.913  0.00  0.00    -0.025 C 
ATOM     41  H5  DVA d          47.034  57.127  85.580  0.00  0.00     0.042 H 
BRANCH  40  42
ATOM     42  CG1 DVA d          45.646  56.148  86.894  0.00  0.00    -0.071 C 
ATOM     43  H6  DVA d          44.840  56.771  86.479  0.00  0.00     0.028 H 
ATOM     44  H7  DVA d          45.987  56.578  87.847  0.00  0.00     0.028 H 
ATOM     45  H8  DVA d          45.270  55.128  87.065  0.00  0.00     0.028 H 
ENDBRANCH  40  42
BRANCH  40  46
ATOM     46  CG2 DVA d          48.044  55.505  86.588  0.00  0.00    -0.071 C 
ATOM     47  H9  DVA d          48.906  55.584  85.909  0.00  0.00     0.028 H 
ATOM     48  H10 DVA d          47.858  54.447  86.824  0.00  0.00     0.028 H 
ATOM     49  H11 DVA d          48.257  56.055  87.516  0.00  0.00     0.028 H 
ENDBRANCH  40  46
ENDBRANCH  34  40
ENDBRANCH  22  34
ENDBRANCH  17  20
ENDBRANCH  13  16
ENDBRANCH  10  13
ENDBRANCH   7   9
BRANCH   7  50
ATOM     50  CB  DVA d          44.091  51.475  86.569  0.00  0.00     0.044 C 
ATOM     51  H24 DVA d          43.993  51.418  87.664  0.00  0.00     0.077 H 
ATOM     52  H25 DVA d          43.099  51.366  86.106  0.00  0.00     0.077 H 
BRANCH  50  53
ATOM     53  OG  DVA d          44.640  52.733  86.213  0.00  0.00    -0.398 OA
ATOM     54  H26 DVA d          44.725  52.783  85.269  0.00  0.00     0.209 HD
ENDBRANCH  50  53
ENDBRANCH   7  50
ENDBRANCH   4   7
ENDBRANCH   1   3
BRANCH   1  55
ATOM     55  C   DVA d          46.987  51.898  90.220  0.00  0.00     0.241 C 
ATOM     56  O   DVA d          47.896  52.624  90.633  0.00  0.00    -0.271 OA
ATOM     57  N   DVA d          45.754  51.916  90.730  0.00  0.00    -0.346 N 
ATOM     58  H35 DVA d          45.053  51.323  90.332  0.00  0.00     0.163 HD
BRANCH  57  59
ATOM     59  CA  DVA d          45.397  52.790  91.868  0.00  0.00     0.094 C 
ATOM     60  H36 DVA d          46.191  53.544  91.974  0.00  0.00     0.088 H 
BRANCH  59  61
ATOM     61  C   DVA d          44.074  53.483  91.713  0.00  0.00     0.241 C 
ATOM     62  O   DVA d          43.065  52.834  91.401  0.00  0.00    -0.271 OA
ATOM     63  N   DVA d          44.087  54.799  91.894  0.00  0.00    -0.346 N 
ATOM     64  H42 DVA d          44.919  55.247  92.218  0.00  0.00     0.163 HD
BRANCH  63  65
ATOM     65  CA  DVA d          42.891  55.595  91.624  0.00  0.00     0.093 C 
ATOM     66  H43 DVA d          42.248  55.007  90.952  0.00  0.00     0.088 H 
BRANCH  65  67
ATOM     67  C   DVA d          42.049  55.958  92.842  0.00  0.00     0.241 C 
ATOM     68  O   DVA d          42.601  56.267  93.901  0.00  0.00    -0.271 OA
ATOM     69  N   DVA d          40.728  55.904  92.685  0.00  0.00    -0.345 N 
ATOM     70  H51 DVA d          40.356  55.628  91.798  0.00  0.00     0.163 HD
BRANCH  69  71
ATOM     71  CA  DVA d          39.799  56.237  93.773  0.00  0.00     0.098 C 
ATOM     72  H52 DVA d          38.875  56.623  93.316  0.00  0.00     0.088 H 
BRANCH  71  73
ATOM     73  C   DVA d          39.432  55.053  94.666  0.00  0.00     0.241 C 
ATOM     74  O   DVA d          38.502  55.121  95.480  0.00  0.00    -0.271 OA
ATOM     75  N   DVA d          40.185  53.970  94.461  0.00  0.00    -0.343 N 
ATOM     76  H55 DVA d          40.915  54.052  93.782  0.00  0.00     0.163 HD
BRANCH  75  77
ATOM     77  CA  DVA d          40.048  52.676  95.131  0.00  0.00     0.116 C 
ATOM     78  H56 DVA d          39.252  52.793  95.881  0.00  0.00     0.093 H 
BRANCH  77  79
ATOM     79  C   DVA d          39.622  51.546  94.205  0.00  0.00     0.198 C 
ATOM     80  O   DVA d          39.691  51.728  92.972  0.00  0.00    -0.646 OA
ATOM     81  OXT DVA d          39.227  50.484  94.741  0.00  0.00    -0.646 OA
ENDBRANCH  77  79
BRANCH  77  82
ATOM     82  CB  DVA d          41.331  52.291  95.879  0.00  0.00     0.045 C 
ATOM     83  H57 DVA d          41.061  51.813  96.833  0.00  0.00     0.077 H 
ATOM     84  H58 DVA d          41.918  53.200  96.077  0.00  0.00     0.077 H 
BRANCH  82  85
ATOM     85  OG  DVA d          42.117  51.387  95.113  0.00  0.00    -0.398 OA
ATOM     86  H59 DVA d          43.036  51.608  95.209  0.00  0.00     0.209 HD
ENDBRANCH  82  85
ENDBRANCH  77  82
ENDBRANCH  75  77
ENDBRANCH  71  73
BRANCH  71  87
ATOM     87  CB  DVA d          40.396  57.319  94.675  0.00  0.00     0.043 C 
ATOM     88  H53 DVA d          41.477  57.382  94.481  0.00  0.00     0.052 H 
ATOM     89  H54 DVA d          40.228  57.035  95.724  0.00  0.00     0.052 H 
BRANCH  87  90
ATOM     90  CG  DVA d          39.784  58.674  94.439  0.00  0.00     0.175 C 
ATOM     91  OD1 DVA d          39.924  59.204  93.315  0.00  0.00    -0.648 OA
ATOM     92  OD2 DVA d          39.150  59.204  95.365  0.00  0.00    -0.648 OA
ENDBRANCH  87  90
ENDBRANCH  71  87
ENDBRANCH  69  71
ENDBRANCH  65  67
BRANCH  65  93
ATOM     93  CB  DVA d          43.325  56.869  90.892  0.00  0.00    -0.014 C 
ATOM     94  H44 DVA d          44.242  56.653  90.324  0.00  0.00     0.043 H 
ATOM     95  H45 DVA d          43.532  57.650  91.639  0.00  0.00     0.043 H 
BRANCH  93  96
ATOM     96  CG  DVA d          42.267  57.385  89.929  0.00  0.00    -0.056 A 
ATOM     97  CD1 DVA d          42.145  56.849  88.643  0.00  0.00    -0.074 A 
ATOM     98  CE1 DVA d          41.198  57.333  87.726  0.00  0.00    -0.051 A 
ATOM     99  H46 DVA d          42.800  56.037  88.346  0.00  0.00     0.084 H 
ATOM    100  CZ  DVA d          40.347  58.383  88.122  0.00  0.00     0.065 A 
ATOM    101  H48 DVA d          41.123  56.907  86.732  0.00  0.00     0.087 H 
ATOM    102  CE2 DVA d          40.453  58.929  89.393  0.00  0.00    -0.051 A 
ATOM    103  CD2 DVA d          41.411  58.433  90.296  0.00  0.00    -0.074 A 
ATOM    104  H49 DVA d          39.796  59.738  89.691  0.00  0.00     0.087 H 
ATOM    105  H47 DVA d          41.488  58.866  91.287  0.00  0.00     0.084 H 
BRANCH 100 106
ATOM    106  OH  DVA d          39.388  58.873  87.264  0.00  0.00    -0.361 OA
ATOM    107  H50 DVA d          38.604  59.086  87.755  0.00  0.00     0.217 HD
ENDBRANCH 100 106
ENDBRANCH  93  96
ENDBRANCH  65  93
ENDBRANCH  63  65
ENDBRANCH  59  61
BRANCH  59 108
ATOM    108  CB  DVA d          45.258  52.002  93.172  0.00  0.00     0.004 C 
ATOM    109  H37 DVA d          45.796  51.050  93.058  0.00  0.00     0.046 H 
ATOM    110  H38 DVA d          44.189  51.801  93.341  0.00  0.00     0.046 H 
BRANCH 108 111
ATOM    111  CG  DVA d          45.798  52.704  94.381  0.00  0.00     0.053 A 
ATOM    112  ND1 DVA d          46.910  53.523  94.338  0.00  0.00    -0.247 NA
ATOM    113  CE1 DVA d          47.131  54.023  95.546  0.00  0.00     0.064 A 
ATOM    114  NE2 DVA d          46.204  53.551  96.370  0.00  0.00    -0.359 N 
ATOM    115  H40 DVA d          47.937  54.704  95.816  0.00  0.00     0.143 H 
ATOM    116  CD2 DVA d          45.361  52.723  95.663  0.00  0.00     0.002 A 
ATOM    117  H41 DVA d          46.127  53.769  97.374  0.00  0.00     0.166 HD
ATOM    118  H39 DVA d          44.502  52.183  96.060  0.00  0.00     0.114 H 
ENDBRANCH 108 111
ENDBRANCH  59 108
ENDBRANCH  57  59
ENDBRANCH   1  55
BRANCH   1 119
ATOM    119  CB  DVA d          47.523  49.516  89.628  0.00  0.00    -0.030 C 
ATOM    120  H29 DVA d          47.415  48.781  88.816  0.00  0.00     0.037 H 
ATOM    121  H30 DVA d          46.802  49.288  90.427  0.00  0.00     0.037 H 
BRANCH 119 122
ATOM    122  CG  DVA d          48.958  49.428  90.201  0.00  0.00     0.011 C 
ATOM    123  H31 DVA d          49.456  50.395  90.034  0.00  0.00     0.047 H 
ATOM    124  H32 DVA d          49.500  48.639  89.659  0.00  0.00     0.047 H 
BRANCH 122 125
ATOM    125  CD  DVA d          49.019  49.108  91.705  0.00  0.00     0.215 C 
ATOM    126  OE1 DVA d          48.030  48.641  92.300  0.00  0.00    -0.274 OA
ATOM    127  NE2 DVA d          50.164  49.346  92.312  0.00  0.00    -0.370 N 
ATOM    128  H33 DVA d          50.260  49.156  93.290  0.00  0.00     0.159 HD
ATOM    129  H34 DVA d          50.936  49.715  91.797  0.00  0.00     0.159 HD
ENDBRANCH 122 125
ENDBRANCH 119 122
ENDBRANCH   1 119
TORSDOF 34
ENDMDL
MODEL 9
REMARK VINA RESULT:      -3.7      2.506      4.816
REMARK WARNING: 32 MAX_TORS EXCEEDED!!!
REMARK  34 active torsions:
REMARK  status: ('A' for Active; 'I' for Inactive)
REMARK    1  A    between atoms: N_1  and  CA_2 
REMARK    2  A    between atoms: CA_2  and  CB_3 
REMARK    3  A    between atoms: CA_2  and  C_6 
REMARK    4  A    between atoms: CB_3  and  CG1_4 
REMARK    5  A    between atoms: CB_3  and  CG2_5 
REMARK       I    between atoms: C_6  and  N_8 
REMARK    6  A    between atoms: CA_9  and  C_13 
REMARK       I    between atoms: C_13  and  N_15 
REMARK    7  A    between atoms: N_15  and  CA_16 
REMARK    8  A    between atoms: CA_16  and  C_17 
REMARK       I    between atoms: C_17  and  N_19 
REMARK    9  A    between atoms: N_19  and  CA_20 
REMARK   10  A    between atoms: CA_20  and  C_21 
REMARK   11  A    between atoms: CA_20  and  CB_23 
REMARK       I    between atoms: C_21  and  N_25 
REMARK   12  A    between atoms: CB_23  and  OG_24 
REMARK   13  A    between atoms: N_25  and  CA_26 
REMARK   14  A    between atoms: CA_26  and  C_27 
REMARK   15  A    between atoms: CA_26  and  CB_29 
REMARK       I    between atoms: C_27  and  N_34 
REMARK   16  A    between atoms: CB_29  and  CG_30 
REMARK   17  A    between atoms: CG_30  and  CD_31 
REMARK       I    between atoms: CD_31  and  NE2_33 
REMARK   18  A    between atoms: N_34  and  CA_35 
REMARK   19  A    between atoms: CA_35  and  C_36 
REMARK   20  A    between atoms: CA_35  and  CB_38 
REMARK       I    between atoms: C_36  and  N_44 
REMARK   21  A    between atoms: CB_38  and  CG_39 
REMARK   22  A    between atoms: N_44  and  CA_45 
REMARK   23  A    between atoms: CA_45  and  C_46 
REMARK   24  A    between atoms: CA_45  and  CB_48 
REMARK       I    between atoms: C_46  and  N_56 
REMARK   25  A    between atoms: CB_48  and  CG_49 
REMARK   26  A    between atoms: CZ_54  and  OH_55 
REMARK   27  A    between atoms: N_56  and  CA_57 
REMARK   28  A    between atoms: CA_57  and  C_58 
REMARK   29  A    between atoms: CA_57  and  CB_60 
REMARK       I    between atoms: C_58  and  N_64 
REMARK   30  A    between atoms: CB_60  and  CG_61 
REMARK   31  A    between atoms: N_64  and  CA_65 
REMARK   32  A    between atoms: CA_65  and  C_66 
REMARK   33  A    between atoms: CA_65  and  CB_69 
REMARK   34  A    between atoms: CB_69  and  OG_70 
ROOT
ATOM      1  CA  DVA d          45.529  57.256  87.303  0.00  0.00     0.090 C 
ATOM      2  H28 DVA d          44.929  58.134  87.024  0.00  0.00     0.087 H 
ENDROOT
BRANCH   1   3
ATOM      3  N   DVA d          46.595  57.087  86.329  0.00  0.00    -0.346 N 
ATOM      4  C   DVA d          46.549  57.770  85.199  0.00  0.00     0.243 C 
ATOM      5  O   DVA d          45.648  58.554  84.946  0.00  0.00    -0.271 OA
ATOM      6  H27 DVA d          47.353  56.461  86.511  0.00  0.00     0.163 HD
BRANCH   4   7
ATOM      7  CA  DVA d          47.660  57.524  84.196  0.00  0.00     0.109 C 
ATOM      8  H23 DVA d          47.660  58.295  83.412  0.00  0.00     0.090 H 
BRANCH   7   9
ATOM      9  N   DVA d          47.445  56.217  83.616  0.00  0.00    -0.344 N 
ATOM     10  C   DVA d          47.189  56.057  82.328  0.00  0.00     0.236 C 
ATOM     11  O   DVA d          47.119  56.995  81.533  0.00  0.00    -0.272 OA
ATOM     12  H22 DVA d          47.491  55.411  84.206  0.00  0.00     0.163 HD
BRANCH  10  13
ATOM     13  CA  DVA d          46.984  54.639  81.862  0.00  0.00     0.069 C 
ATOM     14  H20 DVA d          45.924  54.361  81.958  0.00  0.00     0.078 H 
ATOM     15  H21 DVA d          47.297  54.539  80.813  0.00  0.00     0.078 H 
BRANCH  13  16
ATOM     16  N   DVA d          47.795  53.791  82.702  0.00  0.00    -0.351 N 
ATOM     17  C   DVA d          47.265  53.128  83.720  0.00  0.00     0.241 C 
ATOM     18  O   DVA d          46.065  53.173  84.009  0.00  0.00    -0.271 OA
ATOM     19  H19 DVA d          48.773  53.702  82.513  0.00  0.00     0.163 HD
BRANCH  17  20
ATOM     20  CA  DVA d          48.249  52.276  84.518  0.00  0.00     0.091 C 
ATOM     21  N   DVA d          47.587  51.689  85.693  0.00  0.00    -0.337 N 
ATOM     22  C   DVA d          46.729  50.651  85.877  0.00  0.00     0.251 C 
ATOM     23  CD  DVA d          47.983  52.425  86.909  0.00  0.00    -0.001 C 
ATOM     24  O   DVA d          46.277  50.383  86.996  0.00  0.00    -0.271 OA
ATOM     25  CG  DVA d          48.670  53.656  86.348  0.00  0.00    -0.048 C 
ATOM     26  H17 DVA d          48.676  51.831  87.524  0.00  0.00     0.064 H 
ATOM     27  H18 DVA d          47.104  52.701  87.510  0.00  0.00     0.064 H 
ATOM     28  CB  DVA d          49.353  53.121  85.138  0.00  0.00    -0.036 C 
ATOM     29  H15 DVA d          47.939  54.432  86.081  0.00  0.00     0.035 H 
ATOM     30  H16 DVA d          49.397  54.066  87.064  0.00  0.00     0.035 H 
ATOM     31  H13 DVA d          49.666  53.930  84.463  0.00  0.00     0.036 H 
ATOM     32  H14 DVA d          50.226  52.508  85.407  0.00  0.00     0.036 H 
ATOM     33  H12 DVA d          48.670  51.495  83.866  0.00  0.00     0.087 H 
BRANCH  22  34
ATOM     34  CA  DVA d          46.272  49.814  84.659  0.00  0.00     0.178 C 
ATOM     35  H4  DVA d          46.441  48.755  84.906  0.00  0.00     0.099 H 
BRANCH  34  36
ATOM     36  N   DVA d          47.120  50.159  83.484  0.00  0.00    -0.066 N 
ATOM     37  H1  DVA d          46.663  50.872  82.937  0.00  0.00     0.275 HD
ATOM     38  H2  DVA d          47.259  49.337  82.916  0.00  0.00     0.275 HD
ATOM     39  H3  DVA d          48.013  50.502  83.803  0.00  0.00     0.275 HD
ENDBRANCH  34  36
BRANCH  34  40
ATOM     40  CB  DVA d          44.782  49.965  84.296  0.00  0.00    -0.025 C 
ATOM     41  H5  DVA d          44.353  50.803  84.866  0.00  0.00     0.042 H 
BRANCH  40  42
ATOM     42  CG1 DVA d          44.626  50.245  82.810  0.00  0.00    -0.071 C 
ATOM     43  H6  DVA d          43.921  51.077  82.666  0.00  0.00     0.028 H 
ATOM     44  H7  DVA d          44.240  49.347  82.305  0.00  0.00     0.028 H 
ATOM     45  H8  DVA d          45.603  50.515  82.383  0.00  0.00     0.028 H 
ENDBRANCH  40  42
BRANCH  40  46
ATOM     46  CG2 DVA d          44.048  48.674  84.669  0.00  0.00    -0.071 C 
ATOM     47  H9  DVA d          44.295  48.398  85.705  0.00  0.00     0.028 H 
ATOM     48  H10 DVA d          44.359  47.866  83.990  0.00  0.00     0.028 H 
ATOM     49  H11 DVA d          42.964  48.830  84.580  0.00  0.00     0.028 H 
ENDBRANCH  40  46
ENDBRANCH  34  40
ENDBRANCH  22  34
ENDBRANCH  17  20
ENDBRANCH  13  16
ENDBRANCH  10  13
ENDBRANCH   7   9
BRANCH   7  50
ATOM     50  CB  DVA d          48.975  57.546  84.967  0.00  0.00     0.044 C 
ATOM     51  H24 DVA d          48.941  56.793  85.768  0.00  0.00     0.077 H 
ATOM     52  H25 DVA d          49.122  58.543  85.407  0.00  0.00     0.077 H 
BRANCH  50  53
ATOM     53  OG  DVA d          50.055  57.253  84.096  0.00  0.00    -0.398 OA
ATOM     54  H26 DVA d          50.745  57.894  84.222  0.00  0.00     0.209 HD
ENDBRANCH  50  53
ENDBRANCH   7  50
ENDBRANCH   4   7
ENDBRANCH   1   3
BRANCH   1  55
ATOM     55  C   DVA d          44.620  56.029  87.322  0.00  0.00     0.241 C 
ATOM     56  O   DVA d          45.087  54.900  87.145  0.00  0.00    -0.271 OA
ATOM     57  N   DVA d          43.323  56.256  87.537  0.00  0.00    -0.346 N 
ATOM     58  H35 DVA d          43.013  57.192  87.702  0.00  0.00     0.163 HD
BRANCH  57  59
ATOM     59  CA  DVA d          42.333  55.157  87.537  0.00  0.00     0.094 C 
ATOM     60  H36 DVA d          42.875  54.216  87.363  0.00  0.00     0.088 H 
BRANCH  59  61
ATOM     61  C   DVA d          41.546  55.047  88.810  0.00  0.00     0.241 C 
ATOM     62  O   DVA d          40.330  55.288  88.812  0.00  0.00    -0.271 OA
ATOM     63  N   DVA d          42.242  54.719  89.893  0.00  0.00    -0.346 N 
ATOM     64  H42 DVA d          43.205  54.465  89.806  0.00  0.00     0.163 HD
BRANCH  63  65
ATOM     65  CA  DVA d          41.609  54.728  91.211  0.00  0.00     0.093 C 
ATOM     66  H43 DVA d          40.629  54.238  91.110  0.00  0.00     0.088 H 
BRANCH  65  67
ATOM     67  C   DVA d          42.364  53.990  92.311  0.00  0.00     0.241 C 
ATOM     68  O   DVA d          41.863  52.993  92.839  0.00  0.00    -0.271 OA
ATOM     69  N   DVA d          43.549  54.492  92.653  0.00  0.00    -0.345 N 
ATOM     70  H51 DVA d          43.880  55.313  92.190  0.00  0.00     0.163 HD
BRANCH  69  71
ATOM     71  CA  DVA d          44.386  53.875  93.692  0.00  0.00     0.098 C 
ATOM     72  H52 DVA d          45.356  54.395  93.690  0.00  0.00     0.088 H 
BRANCH  71  73
ATOM     73  C   DVA d          43.800  53.963  95.100  0.00  0.00     0.241 C 
ATOM     74  O   DVA d          44.058  54.914  95.849  0.00  0.00    -0.271 OA
ATOM     75  N   DVA d          42.993  52.947  95.411  0.00  0.00    -0.343 N 
ATOM     76  H55 DVA d          42.880  52.233  94.720  0.00  0.00     0.163 HD
BRANCH  75  77
ATOM     77  CA  DVA d          42.257  52.774  96.665  0.00  0.00     0.116 C 
ATOM     78  H56 DVA d          42.139  53.777  97.102  0.00  0.00     0.093 H 
BRANCH  77  79
ATOM     79  C   DVA d          40.859  52.203  96.483  0.00  0.00     0.198 C 
ATOM     80  O   DVA d          40.726  51.150  95.826  0.00  0.00    -0.646 OA
ATOM     81  OXT DVA d          39.911  52.827  97.015  0.00  0.00    -0.646 OA
ENDBRANCH  77  79
BRANCH  77  82
ATOM     82  CB  DVA d          43.048  51.927  97.670  0.00  0.00     0.045 C 
ATOM     83  H57 DVA d          42.441  51.784  98.577  0.00  0.00     0.077 H 
ATOM     84  H58 DVA d          43.979  52.452  97.930  0.00  0.00     0.077 H 
BRANCH  82  85
ATOM     85  OG  DVA d          43.370  50.654  97.122  0.00  0.00    -0.398 OA
ATOM     86  H59 DVA d          43.221  49.982  97.777  0.00  0.00     0.209 HD
ENDBRANCH  82  85
ENDBRANCH  77  82
ENDBRANCH  75  77
ENDBRANCH  71  73
BRANCH  71  87
ATOM     87  CB  DVA d          44.616  52.394  93.385  0.00  0.00     0.043 C 
ATOM     88  H53 DVA d          43.645  51.926  93.165  0.00  0.00     0.052 H 
ATOM     89  H54 DVA d          45.062  51.916  94.270  0.00  0.00     0.052 H 
BRANCH  87  90
ATOM     90  CG  DVA d          45.533  52.181  92.209  0.00  0.00     0.175 C 
ATOM     91  OD1 DVA d          45.024  52.001  91.081  0.00  0.00    -0.648 OA
ATOM     92  OD2 DVA d          46.759  52.209  92.405  0.00  0.00    -0.648 OA
ENDBRANCH  87  90
ENDBRANCH  71  87
ENDBRANCH  69  71
ENDBRANCH  65  67
BRANCH  65  93
ATOM     93  CB  DVA d          41.385  56.187  91.620  0.00  0.00    -0.014 C 
ATOM     94  H44 DVA d          40.633  56.628  90.950  0.00  0.00     0.043 H 
ATOM     95  H45 DVA d          42.336  56.731  91.514  0.00  0.00     0.043 H 
BRANCH  93  96
ATOM     96  CG  DVA d          40.901  56.329  93.055  0.00  0.00    -0.056 A 
ATOM     97  CD1 DVA d          41.629  57.077  93.986  0.00  0.00    -0.074 A 
ATOM     98  CE1 DVA d          41.218  57.194  95.325  0.00  0.00    -0.051 A 
ATOM     99  H46 DVA d          42.534  57.581  93.667  0.00  0.00     0.084 H 
ATOM    100  CZ  DVA d          40.037  56.542  95.730  0.00  0.00     0.065 A 
ATOM    101  H48 DVA d          41.799  57.775  96.033  0.00  0.00     0.087 H 
ATOM    102  CE2 DVA d          39.303  55.795  94.821  0.00  0.00    -0.051 A 
ATOM    103  CD2 DVA d          39.733  55.687  93.486  0.00  0.00    -0.074 A 
ATOM    104  H49 DVA d          38.396  55.294  95.140  0.00  0.00     0.087 H 
ATOM    105  H47 DVA d          39.152  55.100  92.783  0.00  0.00     0.084 H 
BRANCH 100 106
ATOM    106  OH  DVA d          39.585  56.649  97.026  0.00  0.00    -0.361 OA
ATOM    107  H50 DVA d          38.932  57.337  97.077  0.00  0.00     0.217 HD
ENDBRANCH 100 106
ENDBRANCH  93  96
ENDBRANCH  65  93
ENDBRANCH  63  65
ENDBRANCH  59  61
BRANCH  59 108
ATOM    108  CB  DVA d          41.270  55.346  86.453  0.00  0.00     0.004 C 
ATOM    109  H37 DVA d          41.270  56.404  86.151  0.00  0.00     0.046 H 
ATOM    110  H38 DVA d          40.291  55.087  86.882  0.00  0.00     0.046 H 
BRANCH 108 111
ATOM    111  CG  DVA d          41.479  54.510  85.227  0.00  0.00     0.053 A 
ATOM    112  ND1 DVA d          40.498  54.317  84.274  0.00  0.00    -0.247 NA
ATOM    113  CE1 DVA d          40.979  53.560  83.298  0.00  0.00     0.064 A 
ATOM    114  NE2 DVA d          42.237  53.252  83.589  0.00  0.00    -0.359 N 
ATOM    115  H40 DVA d          40.435  53.245  82.408  0.00  0.00     0.143 H 
ATOM    116  CD2 DVA d          42.570  53.834  84.792  0.00  0.00     0.002 A 
ATOM    117  H41 DVA d          42.862  52.673  83.010  0.00  0.00     0.166 HD
ATOM    118  H39 DVA d          43.531  53.765  85.300  0.00  0.00     0.114 H 
ENDBRANCH 108 111
ENDBRANCH  59 108
ENDBRANCH  57  59
ENDBRANCH   1  55
BRANCH   1 119
ATOM    119  CB  DVA d          46.136  57.492  88.692  0.00  0.00    -0.030 C 
ATOM    120  H29 DVA d          45.329  57.504  89.439  0.00  0.00     0.037 H 
ATOM    121  H30 DVA d          46.656  58.462  88.697  0.00  0.00     0.037 H 
BRANCH 119 122
ATOM    122  CG  DVA d          47.145  56.375  89.056  0.00  0.00     0.011 C 
ATOM    123  H31 DVA d          48.040  56.846  89.489  0.00  0.00     0.047 H 
ATOM    124  H32 DVA d          47.421  55.845  88.132  0.00  0.00     0.047 H 
BRANCH 122 125
ATOM    125  CD  DVA d          46.608  55.343  90.063  0.00  0.00     0.215 C 
ATOM    126  OE1 DVA d          45.944  55.701  91.053  0.00  0.00    -0.274 OA
ATOM    127  NE2 DVA d          46.882  54.079  89.813  0.00  0.00    -0.370 N 
ATOM    128  H33 DVA d          46.558  53.365  90.434  0.00  0.00     0.159 HD
ATOM    129  H34 DVA d          47.413  53.833  89.002  0.00  0.00     0.159 HD
ENDBRANCH 122 125
ENDBRANCH 119 122
ENDBRANCH   1 119
TORSDOF 34
ENDMDL
MODEL 10
REMARK VINA RESULT:      -3.5      2.253      3.775
REMARK WARNING: 32 MAX_TORS EXCEEDED!!!
REMARK  34 active torsions:
REMARK  status: ('A' for Active; 'I' for Inactive)
REMARK    1  A    between atoms: N_1  and  CA_2 
REMARK    2  A    between atoms: CA_2  and  CB_3 
REMARK    3  A    between atoms: CA_2  and  C_6 
REMARK    4  A    between atoms: CB_3  and  CG1_4 
REMARK    5  A    between atoms: CB_3  and  CG2_5 
REMARK       I    between atoms: C_6  and  N_8 
REMARK    6  A    between atoms: CA_9  and  C_13 
REMARK       I    between atoms: C_13  and  N_15 
REMARK    7  A    between atoms: N_15  and  CA_16 
REMARK    8  A    between atoms: CA_16  and  C_17 
REMARK       I    between atoms: C_17  and  N_19 
REMARK    9  A    between atoms: N_19  and  CA_20 
REMARK   10  A    between atoms: CA_20  and  C_21 
REMARK   11  A    between atoms: CA_20  and  CB_23 
REMARK       I    between atoms: C_21  and  N_25 
REMARK   12  A    between atoms: CB_23  and  OG_24 
REMARK   13  A    between atoms: N_25  and  CA_26 
REMARK   14  A    between atoms: CA_26  and  C_27 
REMARK   15  A    between atoms: CA_26  and  CB_29 
REMARK       I    between atoms: C_27  and  N_34 
REMARK   16  A    between atoms: CB_29  and  CG_30 
REMARK   17  A    between atoms: CG_30  and  CD_31 
REMARK       I    between atoms: CD_31  and  NE2_33 
REMARK   18  A    between atoms: N_34  and  CA_35 
REMARK   19  A    between atoms: CA_35  and  C_36 
REMARK   20  A    between atoms: CA_35  and  CB_38 
REMARK       I    between atoms: C_36  and  N_44 
REMARK   21  A    between atoms: CB_38  and  CG_39 
REMARK   22  A    between atoms: N_44  and  CA_45 
REMARK   23  A    between atoms: CA_45  and  C_46 
REMARK   24  A    between atoms: CA_45  and  CB_48 
REMARK       I    between atoms: C_46  and  N_56 
REMARK   25  A    between atoms: CB_48  and  CG_49 
REMARK   26  A    between atoms: CZ_54  and  OH_55 
REMARK   27  A    between atoms: N_56  and  CA_57 
REMARK   28  A    between atoms: CA_57  and  C_58 
REMARK   29  A    between atoms: CA_57  and  CB_60 
REMARK       I    between atoms: C_58  and  N_64 
REMARK   30  A    between atoms: CB_60  and  CG_61 
REMARK   31  A    between atoms: N_64  and  CA_65 
REMARK   32  A    between atoms: CA_65  and  C_66 
REMARK   33  A    between atoms: CA_65  and  CB_69 
REMARK   34  A    between atoms: CB_69  and  OG_70 
ROOT
ATOM      1  CA  DVA d          45.838  54.486  89.934  0.00  0.00     0.090 C 
ATOM      2  H28 DVA d          46.439  55.182  90.539  0.00  0.00     0.087 H 
ENDROOT
BRANCH   1   3
ATOM      3  N   DVA d          46.018  54.811  88.529  0.00  0.00    -0.346 N 
ATOM      4  C   DVA d          46.708  55.888  88.200  0.00  0.00     0.243 C 
ATOM      5  O   DVA d          47.218  56.618  89.035  0.00  0.00    -0.271 OA
ATOM      6  H27 DVA d          45.622  54.227  87.819  0.00  0.00     0.163 HD
BRANCH   4   7
ATOM      7  CA  DVA d          46.827  56.209  86.722  0.00  0.00     0.109 C 
ATOM      8  H23 DVA d          45.899  56.659  86.341  0.00  0.00     0.090 H 
BRANCH   7   9
ATOM      9  N   DVA d          47.110  54.974  86.027  0.00  0.00    -0.344 N 
ATOM     10  C   DVA d          48.287  54.375  86.116  0.00  0.00     0.236 C 
ATOM     11  O   DVA d          49.218  54.814  86.792  0.00  0.00    -0.272 OA
ATOM     12  H22 DVA d          46.396  54.561  85.461  0.00  0.00     0.163 HD
BRANCH  10  13
ATOM     13  CA  DVA d          48.442  53.096  85.335  0.00  0.00     0.069 C 
ATOM     14  H20 DVA d          48.647  53.323  84.278  0.00  0.00     0.078 H 
ATOM     15  H21 DVA d          49.269  52.501  85.748  0.00  0.00     0.078 H 
BRANCH  13  16
ATOM     16  N   DVA d          47.202  52.369  85.453  0.00  0.00    -0.351 N 
ATOM     17  C   DVA d          46.809  51.527  84.507  0.00  0.00     0.241 C 
ATOM     18  O   DVA d          47.467  51.297  83.487  0.00  0.00    -0.271 OA
ATOM     19  H19 DVA d          46.629  52.502  86.262  0.00  0.00     0.163 HD
BRANCH  17  20
ATOM     20  CA  DVA d          45.474  50.835  84.772  0.00  0.00     0.091 C 
ATOM     21  N   DVA d          44.638  51.656  85.662  0.00  0.00    -0.337 N 
ATOM     22  C   DVA d          43.885  52.773  85.488  0.00  0.00     0.251 C 
ATOM     23  CD  DVA d          44.652  51.089  87.024  0.00  0.00    -0.001 C 
ATOM     24  O   DVA d          43.292  53.301  86.437  0.00  0.00    -0.271 OA
ATOM     25  CG  DVA d          45.778  50.074  86.954  0.00  0.00    -0.048 C 
ATOM     26  H17 DVA d          43.695  50.602  87.261  0.00  0.00     0.064 H 
ATOM     27  H18 DVA d          44.865  51.866  87.774  0.00  0.00     0.064 H 
ATOM     28  CB  DVA d          45.653  49.549  85.567  0.00  0.00    -0.036 C 
ATOM     29  H15 DVA d          46.755  50.554  87.111  0.00  0.00     0.035 H 
ATOM     30  H16 DVA d          45.638  49.274  87.696  0.00  0.00     0.035 H 
ATOM     31  H13 DVA d          46.560  49.009  85.259  0.00  0.00     0.036 H 
ATOM     32  H14 DVA d          44.779  48.888  85.465  0.00  0.00     0.036 H 
ATOM     33  H12 DVA d          44.966  50.639  83.816  0.00  0.00     0.087 H 
BRANCH  22  34
ATOM     34  CA  DVA d          43.799  53.426  84.089  0.00  0.00     0.178 C 
ATOM     35  H4  DVA d          44.216  52.710  83.366  0.00  0.00     0.099 H 
BRANCH  34  36
ATOM     36  N   DVA d          44.643  54.653  84.071  0.00  0.00    -0.066 N 
ATOM     37  H1  DVA d          44.817  54.928  83.117  0.00  0.00     0.275 HD
ATOM     38  H2  DVA d          45.520  54.465  84.531  0.00  0.00     0.275 HD
ATOM     39  H3  DVA d          44.164  55.398  84.553  0.00  0.00     0.275 HD
ENDBRANCH  34  36
BRANCH  34  40
ATOM     40  CB  DVA d          42.369  53.763  83.622  0.00  0.00    -0.025 C 
ATOM     41  H5  DVA d          42.136  54.805  83.888  0.00  0.00     0.042 H 
BRANCH  40  42
ATOM     42  CG1 DVA d          42.254  53.601  82.114  0.00  0.00    -0.071 C 
ATOM     43  H6  DVA d          43.173  53.967  81.635  0.00  0.00     0.028 H 
ATOM     44  H7  DVA d          41.393  54.180  81.748  0.00  0.00     0.028 H 
ATOM     45  H8  DVA d          42.111  52.538  81.870  0.00  0.00     0.028 H 
ENDBRANCH  40  42
BRANCH  40  46
ATOM     46  CG2 DVA d          41.384  52.829  84.330  0.00  0.00    -0.071 C 
ATOM     47  H9  DVA d          40.433  53.356  84.497  0.00  0.00     0.028 H 
ATOM     48  H10 DVA d          41.805  52.516  85.296  0.00  0.00     0.028 H 
ATOM     49  H11 DVA d          41.206  51.942  83.704  0.00  0.00     0.028 H 
ENDBRANCH  40  46
ENDBRANCH  34  40
ENDBRANCH  22  34
ENDBRANCH  17  20
ENDBRANCH  13  16
ENDBRANCH  10  13
ENDBRANCH   7   9
BRANCH   7  50
ATOM     50  CB  DVA d          47.994  57.179  86.565  0.00  0.00     0.044 C 
ATOM     51  H24 DVA d          48.393  57.105  85.542  0.00  0.00     0.077 H 
ATOM     52  H25 DVA d          48.782  56.920  87.286  0.00  0.00     0.077 H 
BRANCH  50  53
ATOM     53  OG  DVA d          47.558  58.507  86.803  0.00  0.00    -0.398 OA
ATOM     54  H26 DVA d          46.841  58.714  86.215  0.00  0.00     0.209 HD
ENDBRANCH  50  53
ENDBRANCH   7  50
ENDBRANCH   4   7
ENDBRANCH   1   3
BRANCH   1  55
ATOM     55  C   DVA d          44.373  54.630  90.335  0.00  0.00     0.241 C 
ATOM     56  O   DVA d          44.042  55.405  91.238  0.00  0.00    -0.271 OA
ATOM     57  N   DVA d          43.497  53.882  89.662  0.00  0.00    -0.346 N 
ATOM     58  H35 DVA d          43.825  53.295  88.922  0.00  0.00     0.163 HD
BRANCH  57  59
ATOM     59  CA  DVA d          42.053  53.898  89.983  0.00  0.00     0.094 C 
ATOM     60  H36 DVA d          41.510  53.522  89.104  0.00  0.00     0.088 H 
BRANCH  59  61
ATOM     61  C   DVA d          41.686  53.073  91.182  0.00  0.00     0.241 C 
ATOM     62  O   DVA d          40.688  52.340  91.150  0.00  0.00    -0.271 OA
ATOM     63  N   DVA d          42.469  53.220  92.246  0.00  0.00    -0.346 N 
ATOM     64  H42 DVA d          43.301  53.770  92.178  0.00  0.00     0.163 HD
BRANCH  63  65
ATOM     65  CA  DVA d          42.122  52.581  93.514  0.00  0.00     0.093 C 
ATOM     66  H43 DVA d          41.785  51.559  93.288  0.00  0.00     0.088 H 
BRANCH  65  67
ATOM     67  C   DVA d          43.256  52.462  94.526  0.00  0.00     0.241 C 
ATOM     68  O   DVA d          44.274  51.826  94.238  0.00  0.00    -0.271 OA
ATOM     69  N   DVA d          43.066  53.060  95.700  0.00  0.00    -0.345 N 
ATOM     70  H51 DVA d          42.206  53.543  95.864  0.00  0.00     0.163 HD
BRANCH  69  71
ATOM     71  CA  DVA d          44.080  53.033  96.763  0.00  0.00     0.098 C 
ATOM     72  H52 DVA d          44.845  52.296  96.474  0.00  0.00     0.088 H 
BRANCH  71  73
ATOM     73  C   DVA d          44.773  54.373  97.000  0.00  0.00     0.241 C 
ATOM     74  O   DVA d          45.833  54.449  97.636  0.00  0.00    -0.271 OA
ATOM     75  N   DVA d          44.142  55.411  96.447  0.00  0.00    -0.343 N 
ATOM     76  H55 DVA d          43.285  55.215  95.971  0.00  0.00     0.163 HD
BRANCH  75  77
ATOM     77  CA  DVA d          44.581  56.807  96.469  0.00  0.00     0.116 C 
ATOM     78  H56 DVA d          45.108  56.957  97.423  0.00  0.00     0.093 H 
BRANCH  77  79
ATOM     79  C   DVA d          45.562  57.161  95.360  0.00  0.00     0.198 C 
ATOM     80  O   DVA d          46.783  57.128  95.612  0.00  0.00    -0.646 OA
ATOM     81  OXT DVA d          45.079  57.462  94.243  0.00  0.00    -0.646 OA
ENDBRANCH  77  79
BRANCH  77  82
ATOM     82  CB  DVA d          43.389  57.772  96.448  0.00  0.00     0.045 C 
ATOM     83  H57 DVA d          42.789  57.623  97.358  0.00  0.00     0.077 H 
ATOM     84  H58 DVA d          42.771  57.562  95.562  0.00  0.00     0.077 H 
BRANCH  82  85
ATOM     85  OG  DVA d          43.828  59.125  96.397  0.00  0.00    -0.398 OA
ATOM     86  H59 DVA d          43.670  59.475  95.528  0.00  0.00     0.209 HD
ENDBRANCH  82  85
ENDBRANCH  77  82
ENDBRANCH  75  77
ENDBRANCH  71  73
BRANCH  71  87
ATOM     87  CB  DVA d          43.453  52.603  98.091  0.00  0.00     0.043 C 
ATOM     88  H53 DVA d          43.950  53.147  98.907  0.00  0.00     0.052 H 
ATOM     89  H54 DVA d          43.611  51.522  98.221  0.00  0.00     0.052 H 
BRANCH  87  90
ATOM     90  CG  DVA d          41.975  52.884  98.152  0.00  0.00     0.175 C 
ATOM     91  OD1 DVA d          41.186  51.917  98.231  0.00  0.00    -0.648 OA
ATOM     92  OD2 DVA d          41.600  54.068  98.138  0.00  0.00    -0.648 OA
ENDBRANCH  87  90
ENDBRANCH  71  87
ENDBRANCH  69  71
ENDBRANCH  65  67
BRANCH  65  93
ATOM     93  CB  DVA d          40.953  53.355  94.130  0.00  0.00    -0.014 C 
ATOM     94  H44 DVA d          40.711  54.206  93.477  0.00  0.00     0.043 H 
ATOM     95  H45 DVA d          41.259  53.727  95.119  0.00  0.00     0.043 H 
BRANCH  93  96
ATOM     96  CG  DVA d          39.705  52.502  94.298  0.00  0.00    -0.056 A 
ATOM     97  CD1 DVA d          38.431  53.052  94.120  0.00  0.00    -0.074 A 
ATOM     98  CE1 DVA d          37.264  52.291  94.302  0.00  0.00    -0.051 A 
ATOM     99  H46 DVA d          38.342  54.093  93.833  0.00  0.00     0.084 H 
ATOM    100  CZ  DVA d          37.389  50.937  94.668  0.00  0.00     0.065 A 
ATOM    101  H48 DVA d          36.286  52.738  94.164  0.00  0.00     0.087 H 
ATOM    102  CE2 DVA d          38.644  50.374  94.850  0.00  0.00    -0.051 A 
ATOM    103  CD2 DVA d          39.800  51.153  94.667  0.00  0.00    -0.074 A 
ATOM    104  H49 DVA d          38.733  49.331  95.134  0.00  0.00     0.087 H 
ATOM    105  H47 DVA d          40.777  50.705  94.813  0.00  0.00     0.084 H 
BRANCH 100 106
ATOM    106  OH  DVA d          36.273  50.148  94.835  0.00  0.00    -0.361 OA
ATOM    107  H50 DVA d          35.905  49.938  93.985  0.00  0.00     0.217 HD
ENDBRANCH 100 106
ENDBRANCH  93  96
ENDBRANCH  65  93
ENDBRANCH  63  65
ENDBRANCH  59  61
BRANCH  59 108
ATOM    108  CB  DVA d          41.560  55.305  90.330  0.00  0.00     0.004 C 
ATOM    109  H37 DVA d          42.326  55.795  90.948  0.00  0.00     0.046 H 
ATOM    110  H38 DVA d          40.628  55.210  90.906  0.00  0.00     0.046 H 
BRANCH 108 111
ATOM    111  CG  DVA d          41.289  56.177  89.141  0.00  0.00     0.053 A 
ATOM    112  ND1 DVA d          41.522  55.768  87.842  0.00  0.00    -0.247 NA
ATOM    113  CE1 DVA d          41.163  56.734  87.009  0.00  0.00     0.064 A 
ATOM    114  NE2 DVA d          40.710  57.757  87.725  0.00  0.00    -0.359 N 
ATOM    115  H40 DVA d          41.229  56.696  85.922  0.00  0.00     0.143 H 
ATOM    116  CD2 DVA d          40.782  57.429  89.061  0.00  0.00     0.002 A 
ATOM    117  H41 DVA d          40.362  58.648  87.343  0.00  0.00     0.166 HD
ATOM    118  H39 DVA d          40.486  58.061  89.897  0.00  0.00     0.114 H 
ENDBRANCH 108 111
ENDBRANCH  59 108
ENDBRANCH  57  59
ENDBRANCH   1  55
BRANCH   1 119
ATOM    119  CB  DVA d          46.326  53.055  90.197  0.00  0.00    -0.030 C 
ATOM    120  H29 DVA d          45.461  52.375  90.192  0.00  0.00     0.037 H 
ATOM    121  H30 DVA d          46.818  53.018  91.180  0.00  0.00     0.037 H 
BRANCH 119 122
ATOM    122  CG  DVA d          47.332  52.602  89.110  0.00  0.00     0.011 C 
ATOM    123  H31 DVA d          47.511  53.448  88.432  0.00  0.00     0.047 H 
ATOM    124  H32 DVA d          46.881  51.770  88.548  0.00  0.00     0.047 H 
BRANCH 122 125
ATOM    125  CD  DVA d          48.689  52.131  89.663  0.00  0.00     0.215 C 
ATOM    126  OE1 DVA d          48.749  51.375  90.650  0.00  0.00    -0.274 OA
ATOM    127  NE2 DVA d          49.762  52.562  89.034  0.00  0.00    -0.370 N 
ATOM    128  H33 DVA d          50.671  52.288  89.351  0.00  0.00     0.159 HD
ATOM    129  H34 DVA d          49.670  53.163  88.241  0.00  0.00     0.159 HD
ENDBRANCH 122 125
ENDBRANCH 119 122
ENDBRANCH   1 119
TORSDOF 34
ENDMDL
