MODEL 1
REMARK VINA RESULT:     -10.6      0.000      0.000
REMARK  12 active torsions:
REMARK  status: ('A' for Active; 'I' for Inactive)
REMARK    1  A    between atoms: C6_6  and  O19_13 
REMARK    2  A    between atoms: C10_7  and  C13_10 
REMARK    3  A    between atoms: C11_8  and  C14_11 
REMARK    4  A    between atoms: N12_9  and  C18_12 
REMARK    5  A    between atoms: C18_12  and  C24_18 
REMARK    6  A    between atoms: O19_13  and  C20_14 
REMARK    7  A    between atoms: C28_20  and  O36_25 
REMARK    8  A    between atoms: O36_25  and  C37_26 
REMARK    9  A    between atoms: C37_26  and  C38_27 
REMARK   10  A    between atoms: C37_26  and  C42_28 
REMARK   11  A    between atoms: C51_36  and  O57_39 
REMARK   12  A    between atoms: O57_39  and  C58_40 
ROOT
ATOM      1  C1  C03 d          15.910   4.702  15.698  0.00  0.00    -0.050 A 
ATOM      2  C2  C03 d          14.749   4.706  14.927  0.00  0.00    -0.067 A 
ATOM      3  C3  C03 d          14.897   4.766  13.383  0.00  0.00     0.005 A 
ATOM      4  C4  C03 d          16.094   4.825  12.770  0.00  0.00     0.049 A 
ATOM      5  C5  C03 d          17.282   4.821  13.572  0.00  0.00    -0.024 A 
ATOM      6  C6  C03 d          17.194   4.757  15.040  0.00  0.00     0.080 A 
ATOM      7  C10 C03 d          13.768   4.767  12.501  0.00  0.00     0.031 A 
ATOM      8  C11 C03 d          14.429   4.840  11.251  0.00  0.00     0.022 A 
ATOM      9  N12 C03 d          15.862   4.880  11.379  0.00  0.00    -0.345 N 
ATOM     10  H1  C03 d          15.849   4.659  16.779  0.00  0.00     0.087 H 
ATOM     11  H2  C03 d          13.770   4.668  15.392  0.00  0.00     0.085 H 
ATOM     12  H3  C03 d          18.254   4.866  13.093  0.00  0.00     0.091 H 
ENDROOT
BRANCH   9  13
ATOM     13  C18 C03 d          16.924   4.960  10.333  0.00  0.00     0.025 C 
ATOM     14  H7  C03 d          16.568   4.424   9.441  0.00  0.00     0.072 H 
ATOM     15  H8  C03 d          17.827   4.465  10.723  0.00  0.00     0.072 H 
BRANCH  13  16
ATOM     16  C24 C03 d          17.310   6.410   9.909  0.00  0.00    -0.016 A 
ATOM     17  C27 C03 d          16.520   7.554  10.378  0.00  0.00    -0.041 A 
ATOM     18  C28 C03 d          16.829   8.912  10.018  0.00  0.00     0.070 A 
ATOM     19  H9  C03 d          15.669   7.368  11.022  0.00  0.00     0.088 H 
ATOM     20  C29 C03 d          17.963   9.154   9.156  0.00  0.00    -0.049 A 
ATOM     21  C30 C03 d          18.763   8.067   8.674  0.00  0.00    -0.059 A 
ATOM     22  H10 C03 d          18.211  10.169   8.869  0.00  0.00     0.087 H 
ATOM     23  C31 C03 d          18.446   6.716   9.045  0.00  0.00     0.042 A 
ATOM     24  H11 C03 d          19.611   8.265   8.027  0.00  0.00     0.086 H 
ATOM     25 CL1  C03 d          19.482   5.517   8.408  0.00  0.00    -0.084 Cl
BRANCH  18  26
ATOM     26  O36 C03 d          15.985   9.929  10.567  0.00  0.00    -0.336 OA
BRANCH  26  27
ATOM     27  C37 C03 d          15.237  10.872   9.764  0.00  0.00     0.125 C 
ATOM     28  H12 C03 d          15.929  11.589   9.299  0.00  0.00     0.100 H 
BRANCH  27  29
ATOM     29  C38 C03 d          14.254  11.569  10.716  0.00  0.00    -0.042 C 
ATOM     30  H13 C03 d          13.959  12.540  10.291  0.00  0.00     0.031 H 
ATOM     31  H14 C03 d          14.739  11.728  11.691  0.00  0.00     0.031 H 
ATOM     32  H15 C03 d          13.362  10.940  10.848  0.00  0.00     0.031 H 
ENDBRANCH  27  29
BRANCH  27  33
ATOM     33  C42 C03 d          14.347  10.241   8.695  0.00  0.00     0.203 C 
ATOM     34  O44 C03 d          14.492  10.422   7.541  0.00  0.00    -0.646 OA
ATOM     35  O45 C03 d          13.378   9.469   9.228  0.00  0.00    -0.646 OA
ENDBRANCH  27  33
ENDBRANCH  26  27
ENDBRANCH  18  26
ENDBRANCH  13  16
ENDBRANCH   9  13
BRANCH   8  36
ATOM     36  C14 C03 d          13.732   4.879   9.892  0.00  0.00    -0.036 C 
ATOM     37  H4  C03 d          12.746   5.357  10.000  0.00  0.00     0.035 H 
ATOM     38  H5  C03 d          13.604   3.854   9.517  0.00  0.00     0.035 H 
ATOM     39  H6  C03 d          14.344   5.456   9.183  0.00  0.00     0.035 H 
ENDBRANCH   8  36
BRANCH   7  40
ATOM     40  C13 C03 d          12.293   4.708  12.865  0.00  0.00     0.110 A 
ATOM     41  N46 C03 d          11.224   5.489  12.503  0.00  0.00    -0.126 NA
ATOM     42  O47 C03 d          10.061   5.093  13.088  0.00  0.00    -0.212 OA
ATOM     43  C48 C03 d          10.306   4.015  13.878  0.00  0.00     0.116 A 
ATOM     44  C49 C03 d          11.702   3.742  13.751  0.00  0.00     0.032 A 
ATOM     45  C50 C03 d           9.448   3.260  14.688  0.00  0.00    -0.015 A 
ATOM     46  C53 C03 d          12.224   2.577  14.535  0.00  0.00    -0.065 A 
ATOM     47  C52 C03 d          11.370   1.806  15.356  0.00  0.00    -0.050 A 
ATOM     48  H18 C03 d          13.276   2.321  14.471  0.00  0.00     0.085 H 
ATOM     49  C51 C03 d           9.980   2.127  15.455  0.00  0.00     0.070 A 
ATOM     50  H17 C03 d          11.771   0.967  15.912  0.00  0.00     0.087 H 
ATOM     51  H16 C03 d           8.395   3.511  14.748  0.00  0.00     0.092 H 
BRANCH  49  52
ATOM     52  O57 C03 d           9.071   1.428  16.240  0.00  0.00    -0.356 OA
BRANCH  52  53
ATOM     53  C58 C03 d           8.511   2.048  17.377  0.00  0.00     0.010 C 
ATOM     54  H19 C03 d           8.317   3.108  17.159  0.00  0.00     0.066 H 
ATOM     55  H20 C03 d           9.215   1.970  18.220  0.00  0.00     0.066 H 
ATOM     56  H21 C03 d           7.567   1.548  17.641  0.00  0.00     0.066 H 
ENDBRANCH  52  53
ENDBRANCH  49  52
ENDBRANCH   7  40
BRANCH   6  57
ATOM     57  O19 C03 d          18.392   4.749  15.726  0.00  0.00    -0.255 OA
BRANCH  57  58
ATOM     58  C20 C03 d          18.795   3.684  16.548  0.00  0.00     0.530 C 
ATOM     59  F21 C03 d          20.100   3.788  16.681  0.00  0.00    -0.144 F 
ATOM     60  F22 C03 d          18.490   2.510  15.967  0.00  0.00    -0.144 F 
ATOM     61  F23 C03 d          18.217   3.788  17.739  0.00  0.00    -0.144 F 
ENDBRANCH  57  58
ENDBRANCH   6  57
TORSDOF 12
ENDMDL
