MODEL 1
REMARK VINA RESULT:      -5.7      0.000      0.000
REMARK  3 active torsions:
REMARK  status: ('A' for Active; 'I' for Inactive)
REMARK    1  A    between atoms: C1_3  and  C_1 
REMARK    2  A    between atoms: C7_10  and  N1_4 
REMARK    3  A    between atoms: C4_7  and  C7_10 
ROOT
ATOM      1  C1  MOL d         -28.249  87.232 -10.834  0.00  0.00     0.040 A 
ATOM      2  C2  MOL d         -28.618  87.813 -12.098  0.00  0.00    -0.066 A 
ATOM      3  C3  MOL d         -29.830  88.513 -12.230  0.00  0.00    -0.074 A 
ATOM      4  C4  MOL d         -30.690  88.648 -11.120  0.00  0.00    -0.033 A 
ATOM      5  C5  MOL d         -30.332  88.082  -9.879  0.00  0.00    -0.074 A 
ATOM      6  C6  MOL d         -29.125  87.381  -9.734  0.00  0.00    -0.066 A 
ATOM      7  H4  MOL d         -27.958  87.711 -12.952  0.00  0.00     0.085 H 
ATOM      8  H5  MOL d         -30.104  88.948 -13.185  0.00  0.00     0.084 H 
ATOM      9  H6  MOL d         -30.997  88.188  -9.029  0.00  0.00     0.084 H 
ATOM     10  H7  MOL d         -28.863  86.952  -8.773  0.00  0.00     0.085 H 
ENDROOT
BRANCH   4  11
ATOM     11  C7  MOL d         -31.991  89.404 -11.261  0.00  0.00     0.103 C 
ATOM     12  H8  MOL d         -32.778  88.710 -11.592  0.00  0.00     0.082 H 
ATOM     13  H9  MOL d         -32.267  89.833 -10.286  0.00  0.00     0.082 H 
BRANCH  11  14
ATOM     14  N1  MOL d         -31.856  90.491 -12.250  0.00  0.00    -0.075 N 
ATOM     15  H1  MOL d         -30.892  90.571 -12.532  0.00  0.00     0.274 HD
ATOM     16  H2  MOL d         -32.159  91.360 -11.837  0.00  0.00     0.274 HD
ATOM     17  H3  MOL d         -32.426  90.285 -13.055  0.00  0.00     0.274 HD
ENDBRANCH  11  14
ENDBRANCH   4  11
BRANCH   1  18
ATOM     18  C   MOL d         -27.097  86.577 -10.744  0.00  0.00     0.209 C 
ATOM     19  O   MOL d         -26.296  86.705  -9.871  0.00  0.00    -0.644 OA
ATOM     20  OXT MOL d         -26.533  85.723 -11.495  0.00  0.00    -0.644 OA
ENDBRANCH   1  18
TORSDOF 3
ENDMDL
MODEL 2
REMARK VINA RESULT:      -4.9      1.004      1.238
REMARK  3 active torsions:
REMARK  status: ('A' for Active; 'I' for Inactive)
REMARK    1  A    between atoms: C1_3  and  C_1 
REMARK    2  A    between atoms: C7_10  and  N1_4 
REMARK    3  A    between atoms: C4_7  and  C7_10 
ROOT
ATOM      1  C1  MOL d         -28.014  86.918 -11.147  0.00  0.00     0.040 A 
ATOM      2  C2  MOL d         -28.438  87.597 -12.344  0.00  0.00    -0.066 A 
ATOM      3  C3  MOL d         -29.606  88.379 -12.340  0.00  0.00    -0.074 A 
ATOM      4  C4  MOL d         -30.369  88.500 -11.158  0.00  0.00    -0.033 A 
ATOM      5  C5  MOL d         -29.957  87.837  -9.983  0.00  0.00    -0.074 A 
ATOM      6  C6  MOL d         -28.792  87.055  -9.975  0.00  0.00    -0.066 A 
ATOM      7  H4  MOL d         -27.853  87.506 -13.252  0.00  0.00     0.085 H 
ATOM      8  H5  MOL d         -29.922  88.887 -13.243  0.00  0.00     0.084 H 
ATOM      9  H6  MOL d         -30.546  87.934  -9.078  0.00  0.00     0.084 H 
ATOM     10  H7  MOL d         -28.487  86.553  -9.063  0.00  0.00     0.085 H 
ENDROOT
BRANCH   4  11
ATOM     11  C7  MOL d         -31.623  89.343 -11.153  0.00  0.00     0.103 C 
ATOM     12  H8  MOL d         -31.344  90.406 -11.189  0.00  0.00     0.082 H 
ATOM     13  H9  MOL d         -32.230  89.092 -12.035  0.00  0.00     0.082 H 
BRANCH  11  14
ATOM     14  N1  MOL d         -32.413  89.090  -9.932  0.00  0.00    -0.075 N 
ATOM     15  H1  MOL d         -31.819  89.179  -9.123  0.00  0.00     0.274 HD
ATOM     16  H2  MOL d         -32.797  88.159  -9.967  0.00  0.00     0.274 HD
ATOM     17  H3  MOL d         -33.164  89.761  -9.874  0.00  0.00     0.274 HD
ENDBRANCH  11  14
ENDBRANCH   4  11
BRANCH   1  18
ATOM     18  C   MOL d         -26.905  86.189 -11.187  0.00  0.00     0.209 C 
ATOM     19  O   MOL d         -26.325  85.865 -12.175  0.00  0.00    -0.644 OA
ATOM     20  OXT MOL d         -26.204  85.641 -10.281  0.00  0.00    -0.644 OA
ENDBRANCH   1  18
TORSDOF 3
ENDMDL
MODEL 3
REMARK VINA RESULT:      -4.7      3.761      4.686
REMARK  3 active torsions:
REMARK  status: ('A' for Active; 'I' for Inactive)
REMARK    1  A    between atoms: C1_3  and  C_1 
REMARK    2  A    between atoms: C7_10  and  N1_4 
REMARK    3  A    between atoms: C4_7  and  C7_10 
ROOT
ATOM      1  C1  MOL d         -30.910  88.614 -11.307  0.00  0.00     0.040 A 
ATOM      2  C2  MOL d         -30.285  88.078 -12.488  0.00  0.00    -0.066 A 
ATOM      3  C3  MOL d         -29.270  87.112 -12.375  0.00  0.00    -0.074 A 
ATOM      4  C4  MOL d         -28.861  86.664 -11.101  0.00  0.00    -0.033 A 
ATOM      5  C5  MOL d         -29.472  87.185  -9.942  0.00  0.00    -0.074 A 
ATOM      6  C6  MOL d         -30.486  88.150 -10.040  0.00  0.00    -0.066 A 
ATOM      7  H4  MOL d         -30.598  88.420 -13.467  0.00  0.00     0.085 H 
ATOM      8  H5  MOL d         -28.801  86.711 -13.267  0.00  0.00     0.084 H 
ATOM      9  H6  MOL d         -29.154  86.838  -8.965  0.00  0.00     0.084 H 
ATOM     10  H7  MOL d         -30.947  88.541  -9.140  0.00  0.00     0.085 H 
ENDROOT
BRANCH   4  11
ATOM     11  C7  MOL d         -27.773  85.622 -10.980  0.00  0.00     0.103 C 
ATOM     12  H8  MOL d         -27.480  85.525  -9.924  0.00  0.00     0.082 H 
ATOM     13  H9  MOL d         -28.154  84.657 -11.346  0.00  0.00     0.082 H 
BRANCH  11  14
ATOM     14  N1  MOL d         -26.592  86.010 -11.777  0.00  0.00    -0.075 N 
ATOM     15  H1  MOL d         -26.633  86.996 -11.981  0.00  0.00     0.274 HD
ATOM     16  H2  MOL d         -26.582  85.488 -12.639  0.00  0.00     0.274 HD
ATOM     17  H3  MOL d         -25.754  85.810 -11.254  0.00  0.00     0.274 HD
ENDBRANCH  11  14
ENDBRANCH   4  11
BRANCH   1  18
ATOM     18  C   MOL d         -31.866  89.526 -11.449  0.00  0.00     0.209 C 
ATOM     19  O   MOL d         -32.299  90.215 -10.580  0.00  0.00    -0.644 OA
ATOM     20  OXT MOL d         -32.565  89.890 -12.445  0.00  0.00    -0.644 OA
ENDBRANCH   1  18
TORSDOF 3
ENDMDL
MODEL 4
REMARK VINA RESULT:      -4.3      1.963      2.454
REMARK  3 active torsions:
REMARK  status: ('A' for Active; 'I' for Inactive)
REMARK    1  A    between atoms: C1_3  and  C_1 
REMARK    2  A    between atoms: C7_10  and  N1_4 
REMARK    3  A    between atoms: C4_7  and  C7_10 
ROOT
ATOM      1  C1  MOL d         -28.589  87.311 -11.983  0.00  0.00     0.040 A 
ATOM      2  C2  MOL d         -29.652  88.280 -12.045  0.00  0.00    -0.066 A 
ATOM      3  C3  MOL d         -30.498  88.475 -10.939  0.00  0.00    -0.074 A 
ATOM      4  C4  MOL d         -30.306  87.720  -9.763  0.00  0.00    -0.033 A 
ATOM      5  C5  MOL d         -29.265  86.771  -9.697  0.00  0.00    -0.074 A 
ATOM      6  C6  MOL d         -28.413  86.567 -10.794  0.00  0.00    -0.066 A 
ATOM      7  H4  MOL d         -29.800  88.861 -12.947  0.00  0.00     0.085 H 
ATOM      8  H5  MOL d         -31.298  89.205 -10.991  0.00  0.00     0.084 H 
ATOM      9  H6  MOL d         -29.121  86.193  -8.791  0.00  0.00     0.084 H 
ATOM     10  H7  MOL d         -27.616  85.834 -10.728  0.00  0.00     0.085 H 
ENDROOT
BRANCH   4  11
ATOM     11  C7  MOL d         -31.213  87.933  -8.573  0.00  0.00     0.103 C 
ATOM     12  H8  MOL d         -31.531  86.955  -8.181  0.00  0.00     0.082 H 
ATOM     13  H9  MOL d         -30.663  88.480  -7.792  0.00  0.00     0.082 H 
BRANCH  11  14
ATOM     14  N1  MOL d         -32.405  88.711  -8.961  0.00  0.00    -0.075 N 
ATOM     15  H1  MOL d         -32.704  88.431  -9.882  0.00  0.00     0.274 HD
ATOM     16  H2  MOL d         -32.179  89.693  -8.965  0.00  0.00     0.274 HD
ATOM     17  H3  MOL d         -33.147  88.540  -8.301  0.00  0.00     0.274 HD
ENDBRANCH  11  14
ENDBRANCH   4  11
BRANCH   1  18
ATOM     18  C   MOL d         -27.808  87.152 -13.046  0.00  0.00     0.209 C 
ATOM     19  O   MOL d         -27.313  88.032 -13.677  0.00  0.00    -0.644 OA
ATOM     20  OXT MOL d         -27.408  86.123 -13.673  0.00  0.00    -0.644 OA
ENDBRANCH   1  18
TORSDOF 3
ENDMDL
MODEL 5
REMARK VINA RESULT:      -3.2      1.843      2.668
REMARK  3 active torsions:
REMARK  status: ('A' for Active; 'I' for Inactive)
REMARK    1  A    between atoms: C1_3  and  C_1 
REMARK    2  A    between atoms: C7_10  and  N1_4 
REMARK    3  A    between atoms: C4_7  and  C7_10 
ROOT
ATOM      1  C1  MOL d         -28.794  87.623 -11.619  0.00  0.00     0.040 A 
ATOM      2  C2  MOL d         -28.605  86.906 -10.384  0.00  0.00    -0.066 A 
ATOM      3  C3  MOL d         -29.560  87.002  -9.357  0.00  0.00    -0.074 A 
ATOM      4  C4  MOL d         -30.708  87.802  -9.534  0.00  0.00    -0.033 A 
ATOM      5  C5  MOL d         -30.898  88.504 -10.742  0.00  0.00    -0.074 A 
ATOM      6  C6  MOL d         -29.953  88.417 -11.775  0.00  0.00    -0.066 A 
ATOM      7  H4  MOL d         -27.724  86.291 -10.247  0.00  0.00     0.085 H 
ATOM      8  H5  MOL d         -29.413  86.462  -8.428  0.00  0.00     0.084 H 
ATOM      9  H6  MOL d         -31.783  89.118 -10.873  0.00  0.00     0.084 H 
ATOM     10  H7  MOL d         -30.113  88.962 -12.699  0.00  0.00     0.085 H 
ENDROOT
BRANCH   4  11
ATOM     11  C7  MOL d         -31.736  87.901  -8.430  0.00  0.00     0.103 C 
ATOM     12  H8  MOL d         -32.423  87.045  -8.497  0.00  0.00     0.082 H 
ATOM     13  H9  MOL d         -31.223  87.884  -7.456  0.00  0.00     0.082 H 
BRANCH  11  14
ATOM     14  N1  MOL d         -32.508  89.153  -8.550  0.00  0.00    -0.075 N 
ATOM     15  H1  MOL d         -32.128  89.712  -9.298  0.00  0.00     0.274 HD
ATOM     16  H2  MOL d         -32.452  89.667  -7.684  0.00  0.00     0.274 HD
ATOM     17  H3  MOL d         -33.472  88.936  -8.750  0.00  0.00     0.274 HD
ENDBRANCH  11  14
ENDBRANCH   4  11
BRANCH   1  18
ATOM     18  C   MOL d         -27.873  87.510 -12.569  0.00  0.00     0.209 C 
ATOM     19  O   MOL d         -27.948  87.976 -13.663  0.00  0.00    -0.644 OA
ATOM     20  OXT MOL d         -26.755  86.910 -12.616  0.00  0.00    -0.644 OA
ENDBRANCH   1  18
TORSDOF 3
ENDMDL
