MODEL 1
REMARK VINA RESULT:      -5.9      0.000      0.000
REMARK  21 active torsions:
REMARK  status: ('A' for Active; 'I' for Inactive)
REMARK    1  A    between atoms: C12_6  and  C3_3 
REMARK    2  A    between atoms: O13_7  and  C12_6 
REMARK    3  A    between atoms: C16_8  and  O13_7 
REMARK    4  A    between atoms: C5_11  and  N11_10 
REMARK    5  A    between atoms: CA_13  and  N_12 
REMARK    6  A    between atoms: CA_13  and  CB_16 
REMARK    7  A    between atoms: C_14  and  CA_13 
REMARK       I    between atoms: N_28  and  C_14 
REMARK    8  A    between atoms: CB_16  and  CG_17 
REMARK    9  A    between atoms: CZ_22  and  OH_23 
REMARK   10  A    between atoms: OH_23  and  P_24 
REMARK   11  A    between atoms: CA_29  and  N_28 
REMARK   12  A    between atoms: CA_29  and  CB_33 
REMARK   13  A    between atoms: C_31  and  CA_29 
REMARK   14  A    between atoms: CA_29  and  CH3_30 
REMARK       I    between atoms: C_31  and  N_45 
REMARK   15  A    between atoms: CB_33  and  CG_34 
REMARK   16  A    between atoms: CZ_39  and  OH_40 
REMARK   17  A    between atoms: OH_40  and  P_41 
REMARK   18  A    between atoms: N_45  and  CA_46 
REMARK   19  A    between atoms: CA_46  and  C_47 
REMARK   20  A    between atoms: CA_46  and  CB_49 
REMARK   21  A    between atoms: CB_49  and  CG_50 
REMARK       I    between atoms: CG_50  and  ND2_52 
ROOT
ATOM      1  C   MOL d         -28.145  43.774  34.427  0.00  0.00     0.241 C 
ATOM      2  O   MOL d         -27.169  43.041  34.737  0.00  0.00    -0.271 OA
ATOM      3  N   MOL d         -28.559  44.017  33.219  0.00  0.00    -0.341 N 
ATOM      4  H17 MOL d         -29.392  44.555  33.090  0.00  0.00     0.163 HD
ENDROOT
BRANCH   1   5
ATOM      5  CA  MOL d         -29.102  44.356  35.413  0.00  0.00     0.094 C 
ATOM      6  H10 MOL d         -29.815  45.057  34.955  0.00  0.00     0.088 H 
BRANCH   5   7
ATOM      7  N   MOL d         -29.748  43.195  35.894  0.00  0.00    -0.335 N 
ATOM      8  C16 MOL d         -30.585  43.111  36.902  0.00  0.00     0.292 C 
ATOM      9  O18 MOL d         -31.426  44.164  37.178  0.00  0.00    -0.143 OA
ATOM     10  H9  MOL d         -29.546  42.342  35.412  0.00  0.00     0.164 HD
BRANCH   8  11
ATOM     11  O13 MOL d         -30.855  41.866  37.179  0.00  0.00    -0.310 OA
BRANCH  11  12
ATOM     12  C12 MOL d         -31.499  40.872  36.366  0.00  0.00     0.053 C 
ATOM     13  H5  MOL d         -32.427  40.601  36.889  0.00  0.00     0.082 H 
ATOM     14  H6  MOL d         -31.745  41.365  35.413  0.00  0.00     0.082 H 
BRANCH  12  15
ATOM     15  C3  MOL d         -30.833  39.593  36.010  0.00  0.00    -0.032 A 
ATOM     16  C2  MOL d         -30.925  38.447  36.821  0.00  0.00    -0.075 A 
ATOM     17  C1  MOL d         -30.280  37.252  36.391  0.00  0.00    -0.080 A 
ATOM     18  H2  MOL d         -31.475  38.474  37.754  0.00  0.00     0.084 H 
ATOM     19  C6  MOL d         -29.540  37.238  35.176  0.00  0.00    -0.058 A 
ATOM     20  H1  MOL d         -30.353  36.351  36.991  0.00  0.00     0.083 H 
ATOM     21  C5  MOL d         -29.455  38.405  34.394  0.00  0.00     0.026 A 
ATOM     22  H4  MOL d         -29.044  36.330  34.853  0.00  0.00     0.086 H 
ATOM     23  C4  MOL d         -30.106  39.575  34.808  0.00  0.00    -0.050 A 
ATOM     24  H3  MOL d         -30.049  40.469  34.198  0.00  0.00     0.087 H 
BRANCH  21  25
ATOM     25  N11 MOL d         -28.746  38.422  33.243  0.00  0.00    -0.399 N 
ATOM     26  H7  MOL d         -29.180  38.098  32.366  0.00  0.00     0.156 HD
ATOM     27  H8  MOL d         -27.773  38.758  33.241  0.00  0.00     0.156 HD
ENDBRANCH  21  25
ENDBRANCH  12  15
ENDBRANCH  11  12
ENDBRANCH   8  11
ENDBRANCH   5   7
BRANCH   5  28
ATOM     28  CB  MOL d         -28.256  45.076  36.504  0.00  0.00    -0.014 C 
ATOM     29  H11 MOL d         -27.248  44.635  36.519  0.00  0.00     0.043 H 
ATOM     30  H12 MOL d         -28.737  44.926  37.482  0.00  0.00     0.043 H 
BRANCH  28  31
ATOM     31  CG  MOL d         -28.132  46.575  36.243  0.00  0.00    -0.056 A 
ATOM     32  CD2 MOL d         -29.255  47.350  35.854  0.00  0.00    -0.074 A 
ATOM     33  CE2 MOL d         -29.126  48.743  35.630  0.00  0.00    -0.050 A 
ATOM     34  H14 MOL d         -30.219  46.873  35.727  0.00  0.00     0.084 H 
ATOM     35  CZ  MOL d         -27.827  49.299  35.835  0.00  0.00     0.082 A 
ATOM     36  H16 MOL d         -29.967  49.353  35.321  0.00  0.00     0.087 H 
ATOM     37  CE1 MOL d         -26.714  48.553  36.224  0.00  0.00    -0.050 A 
ATOM     38  CD1 MOL d         -26.867  47.192  36.424  0.00  0.00    -0.074 A 
ATOM     39  H15 MOL d         -25.750  49.029  36.366  0.00  0.00     0.087 H 
ATOM     40  H13 MOL d         -26.014  46.592  36.721  0.00  0.00     0.084 H 
BRANCH  35  41
ATOM     41  OH  MOL d         -27.649  50.676  35.631  0.00  0.00    -0.240 OA
BRANCH  41  42
ATOM     42  P   MOL d         -27.906  51.798  36.628  0.00  0.00     0.427 P 
ATOM     43  O3P MOL d         -26.570  52.546  36.883  0.00  0.00    -0.617 OA
ATOM     44  O2P MOL d         -28.938  52.728  36.200  0.00  0.00    -0.617 OA
ATOM     45  O1P MOL d         -28.313  51.163  37.857  0.00  0.00    -0.617 OA
ENDBRANCH  41  42
ENDBRANCH  35  41
ENDBRANCH  28  31
ENDBRANCH   5  28
ENDBRANCH   1   5
BRANCH   3  46
ATOM     46  CA  MOL d         -27.858  43.534  32.071  0.00  0.00     0.114 C 
BRANCH  46  47
ATOM     47  CB  MOL d         -26.694  44.580  31.937  0.00  0.00    -0.009 C 
ATOM     48  H21 MOL d         -26.054  44.270  31.098  0.00  0.00     0.044 H 
ATOM     49  H22 MOL d         -26.110  44.558  32.870  0.00  0.00     0.044 H 
BRANCH  47  50
ATOM     50  CG  MOL d         -27.129  46.029  31.688  0.00  0.00    -0.055 A 
ATOM     51  CD2 MOL d         -27.753  46.371  30.483  0.00  0.00    -0.074 A 
ATOM     52  CE2 MOL d         -28.187  47.696  30.211  0.00  0.00    -0.050 A 
ATOM     53  H24 MOL d         -27.910  45.602  29.735  0.00  0.00     0.084 H 
ATOM     54  CZ  MOL d         -27.954  48.640  31.219  0.00  0.00     0.082 A 
ATOM     55  H26 MOL d         -28.670  47.962  29.277  0.00  0.00     0.087 H 
ATOM     56  CE1 MOL d         -27.334  48.324  32.444  0.00  0.00    -0.050 A 
ATOM     57  CD1 MOL d         -26.915  47.015  32.685  0.00  0.00    -0.074 A 
ATOM     58  H25 MOL d         -27.183  49.093  33.194  0.00  0.00     0.087 H 
ATOM     59  H23 MOL d         -26.433  46.755  33.620  0.00  0.00     0.084 H 
BRANCH  54  60
ATOM     60  OH  MOL d         -28.378  49.955  30.948  0.00  0.00    -0.240 OA
BRANCH  60  61
ATOM     61  P   MOL d         -29.752  50.569  31.643  0.00  0.00     0.427 P 
ATOM     62  O3P MOL d         -30.782  49.499  31.773  0.00  0.00    -0.617 OA
ATOM     63  O2P MOL d         -29.427  51.064  33.003  0.00  0.00    -0.617 OA
ATOM     64  O1P MOL d         -30.219  51.609  30.708  0.00  0.00    -0.617 OA
ENDBRANCH  60  61
ENDBRANCH  54  60
ENDBRANCH  47  50
ENDBRANCH  46  47
BRANCH  46  65
ATOM     65  C   MOL d         -27.193  42.155  32.311  0.00  0.00     0.246 C 
ATOM     66  O   MOL d         -27.889  41.142  32.518  0.00  0.00    -0.271 OA
ATOM     67  N   MOL d         -25.875  42.097  32.347  0.00  0.00    -0.344 N 
ATOM     68  H27 MOL d         -25.327  42.923  32.209  0.00  0.00     0.163 HD
BRANCH  67  69
ATOM     69  CA  MOL d         -25.233  40.824  32.592  0.00  0.00     0.104 C 
ATOM     70  H28 MOL d         -25.891  40.206  33.221  0.00  0.00     0.090 H 
BRANCH  69  71
ATOM     71  C   MOL d         -23.912  41.066  33.324  0.00  0.00     0.197 C 
ATOM     72  OXT MOL d         -23.698  40.375  34.318  0.00  0.00    -0.646 OA
ATOM     73  O   MOL d         -23.088  41.950  32.929  0.00  0.00    -0.646 OA
ENDBRANCH  69  71
BRANCH  69  74
ATOM     74  CB  MOL d         -24.946  40.066  31.266  0.00  0.00     0.037 C 
ATOM     75  H29 MOL d         -24.840  40.803  30.457  0.00  0.00     0.051 H 
ATOM     76  H30 MOL d         -25.798  39.404  31.050  0.00  0.00     0.051 H 
BRANCH  74  77
ATOM     77  CG  MOL d         -23.634  39.192  31.325  0.00  0.00     0.217 C 
ATOM     78  OD1 MOL d         -22.718  39.406  30.589  0.00  0.00    -0.274 OA
ATOM     79  ND2 MOL d         -23.616  38.214  32.187  0.00  0.00    -0.370 N 
ATOM     80  H31 MOL d         -22.807  37.631  32.263  0.00  0.00     0.159 HD
ATOM     81  H32 MOL d         -24.410  38.047  32.771  0.00  0.00     0.159 HD
ENDBRANCH  74  77
ENDBRANCH  69  74
ENDBRANCH  67  69
ENDBRANCH  46  65
BRANCH  46  82
ATOM     82  CH3 MOL d         -28.681  43.785  30.778  0.00  0.00    -0.044 C 
ATOM     83  H18 MOL d         -29.224  44.737  30.869  0.00  0.00     0.031 H 
ATOM     84  H19 MOL d         -29.400  42.965  30.636  0.00  0.00     0.031 H 
ATOM     85  H20 MOL d         -28.002  43.831  29.914  0.00  0.00     0.031 H 
ENDBRANCH  46  82
ENDBRANCH   3  46
TORSDOF 21
ENDMDL
MODEL 2
REMARK VINA RESULT:      -5.0      3.841      9.005
REMARK  21 active torsions:
REMARK  status: ('A' for Active; 'I' for Inactive)
REMARK    1  A    between atoms: C12_6  and  C3_3 
REMARK    2  A    between atoms: O13_7  and  C12_6 
REMARK    3  A    between atoms: C16_8  and  O13_7 
REMARK    4  A    between atoms: C5_11  and  N11_10 
REMARK    5  A    between atoms: CA_13  and  N_12 
REMARK    6  A    between atoms: CA_13  and  CB_16 
REMARK    7  A    between atoms: C_14  and  CA_13 
REMARK       I    between atoms: N_28  and  C_14 
REMARK    8  A    between atoms: CB_16  and  CG_17 
REMARK    9  A    between atoms: CZ_22  and  OH_23 
REMARK   10  A    between atoms: OH_23  and  P_24 
REMARK   11  A    between atoms: CA_29  and  N_28 
REMARK   12  A    between atoms: CA_29  and  CB_33 
REMARK   13  A    between atoms: C_31  and  CA_29 
REMARK   14  A    between atoms: CA_29  and  CH3_30 
REMARK       I    between atoms: C_31  and  N_45 
REMARK   15  A    between atoms: CB_33  and  CG_34 
REMARK   16  A    between atoms: CZ_39  and  OH_40 
REMARK   17  A    between atoms: OH_40  and  P_41 
REMARK   18  A    between atoms: N_45  and  CA_46 
REMARK   19  A    between atoms: CA_46  and  C_47 
REMARK   20  A    between atoms: CA_46  and  CB_49 
REMARK   21  A    between atoms: CB_49  and  CG_50 
REMARK       I    between atoms: CG_50  and  ND2_52 
ROOT
ATOM      1  C   MOL d         -30.551  46.009  35.654  0.00  0.00     0.241 C 
ATOM      2  O   MOL d         -31.491  45.670  36.421  0.00  0.00    -0.271 OA
ATOM      3  N   MOL d         -29.564  45.251  35.280  0.00  0.00    -0.341 N 
ATOM      4  H17 MOL d         -28.912  45.599  34.608  0.00  0.00     0.163 HD
ENDROOT
BRANCH   1   5
ATOM      5  CA  MOL d         -30.506  47.299  34.904  0.00  0.00     0.094 C 
ATOM      6  H10 MOL d         -31.345  47.966  35.151  0.00  0.00     0.088 H 
BRANCH   5   7
ATOM      7  N   MOL d         -29.271  47.833  35.338  0.00  0.00    -0.335 N 
ATOM      8  C16 MOL d         -29.085  48.835  36.165  0.00  0.00     0.292 C 
ATOM      9  O18 MOL d         -29.979  49.047  37.189  0.00  0.00    -0.143 OA
ATOM     10  H9  MOL d         -28.447  47.398  34.975  0.00  0.00     0.164 HD
BRANCH   8  11
ATOM     11  O13 MOL d         -27.827  49.173  36.210  0.00  0.00    -0.310 OA
BRANCH  11  12
ATOM     12  C12 MOL d         -27.176  50.152  37.034  0.00  0.00     0.053 C 
ATOM     13  H5  MOL d         -27.452  49.913  38.072  0.00  0.00     0.082 H 
ATOM     14  H6  MOL d         -26.095  50.001  36.898  0.00  0.00     0.082 H 
BRANCH  12  15
ATOM     15  C3  MOL d         -27.416  51.608  36.866  0.00  0.00    -0.032 A 
ATOM     16  C2  MOL d         -26.796  52.359  35.852  0.00  0.00    -0.075 A 
ATOM     17  C1  MOL d         -27.104  53.746  35.742  0.00  0.00    -0.080 A 
ATOM     18  H2  MOL d         -26.098  51.893  35.167  0.00  0.00     0.084 H 
ATOM     19  C6  MOL d         -28.003  54.351  36.663  0.00  0.00    -0.058 A 
ATOM     20  H1  MOL d         -26.652  54.341  34.956  0.00  0.00     0.083 H 
ATOM     21  C5  MOL d         -28.596  53.576  37.677  0.00  0.00     0.026 A 
ATOM     22  H4  MOL d         -28.232  55.409  36.584  0.00  0.00     0.086 H 
ATOM     23  C4  MOL d         -28.307  52.208  37.771  0.00  0.00    -0.050 A 
ATOM     24  H3  MOL d         -28.775  51.610  38.546  0.00  0.00     0.087 H 
BRANCH  21  25
ATOM     25  N11 MOL d         -29.443  54.130  38.573  0.00  0.00    -0.399 N 
ATOM     26  H7  MOL d         -30.063  54.901  38.287  0.00  0.00     0.156 HD
ATOM     27  H8  MOL d         -29.469  53.782  39.542  0.00  0.00     0.156 HD
ENDBRANCH  21  25
ENDBRANCH  12  15
ENDBRANCH  11  12
ENDBRANCH   8  11
ENDBRANCH   5   7
BRANCH   5  28
ATOM     28  CB  MOL d         -30.517  46.949  33.388  0.00  0.00    -0.014 C 
ATOM     29  H11 MOL d         -31.420  47.381  32.931  0.00  0.00     0.043 H 
ATOM     30  H12 MOL d         -30.539  45.854  33.277  0.00  0.00     0.043 H 
BRANCH  28  31
ATOM     31  CG  MOL d         -29.290  47.492  32.661  0.00  0.00    -0.056 A 
ATOM     32  CD2 MOL d         -29.404  48.523  31.692  0.00  0.00    -0.074 A 
ATOM     33  CE2 MOL d         -28.254  49.027  31.037  0.00  0.00    -0.050 A 
ATOM     34  H14 MOL d         -30.380  48.928  31.452  0.00  0.00     0.084 H 
ATOM     35  CZ  MOL d         -27.005  48.453  31.423  0.00  0.00     0.082 A 
ATOM     36  H16 MOL d         -28.318  49.805  30.286  0.00  0.00     0.087 H 
ATOM     37  CE1 MOL d         -26.873  47.444  32.378  0.00  0.00    -0.050 A 
ATOM     38  CD1 MOL d         -28.016  46.963  32.993  0.00  0.00    -0.074 A 
ATOM     39  H15 MOL d         -25.898  47.045  32.632  0.00  0.00     0.087 H 
ATOM     40  H13 MOL d         -27.938  46.175  33.734  0.00  0.00     0.084 H 
BRANCH  35  41
ATOM     41  OH  MOL d         -25.834  48.922  30.806  0.00  0.00    -0.240 OA
BRANCH  41  42
ATOM     42  P   MOL d         -24.803  48.105  30.041  0.00  0.00     0.427 P 
ATOM     43  O3P MOL d         -24.947  46.616  30.456  0.00  0.00    -0.617 OA
ATOM     44  O2P MOL d         -24.908  48.244  28.598  0.00  0.00    -0.617 OA
ATOM     45  O1P MOL d         -23.509  48.574  30.474  0.00  0.00    -0.617 OA
ENDBRANCH  41  42
ENDBRANCH  35  41
ENDBRANCH  28  31
ENDBRANCH   5  28
ENDBRANCH   1   5
BRANCH   3  46
ATOM     46  CA  MOL d         -29.387  43.933  35.803  0.00  0.00     0.114 C 
BRANCH  46  47
ATOM     47  CB  MOL d         -30.715  43.223  35.356  0.00  0.00    -0.009 C 
ATOM     48  H21 MOL d         -30.779  43.284  34.259  0.00  0.00     0.044 H 
ATOM     49  H22 MOL d         -31.558  43.771  35.803  0.00  0.00     0.044 H 
BRANCH  47  50
ATOM     50  CG  MOL d         -30.846  41.749  35.755  0.00  0.00    -0.055 A 
ATOM     51  CD2 MOL d         -30.387  40.750  34.889  0.00  0.00    -0.074 A 
ATOM     52  CE2 MOL d         -30.473  39.370  35.218  0.00  0.00    -0.050 A 
ATOM     53  H24 MOL d         -29.953  41.037  33.938  0.00  0.00     0.084 H 
ATOM     54  CZ  MOL d         -31.044  39.069  36.461  0.00  0.00     0.082 A 
ATOM     55  H26 MOL d         -30.118  38.596  34.547  0.00  0.00     0.087 H 
ATOM     56  CE1 MOL d         -31.510  40.053  37.356  0.00  0.00    -0.050 A 
ATOM     57  CD1 MOL d         -31.415  41.400  37.006  0.00  0.00    -0.074 A 
ATOM     58  H25 MOL d         -31.938  39.765  38.310  0.00  0.00     0.087 H 
ATOM     59  H23 MOL d         -31.771  42.170  37.680  0.00  0.00     0.084 H 
BRANCH  54  60
ATOM     60  OH  MOL d         -31.136  37.702  36.787  0.00  0.00    -0.240 OA
BRANCH  60  61
ATOM     61  P   MOL d         -29.890  36.922  37.553  0.00  0.00     0.427 P 
ATOM     62  O3P MOL d         -28.767  36.692  36.599  0.00  0.00    -0.617 OA
ATOM     63  O2P MOL d         -29.390  37.775  38.657  0.00  0.00    -0.617 OA
ATOM     64  O1P MOL d         -30.458  35.632  37.984  0.00  0.00    -0.617 OA
ENDBRANCH  60  61
ENDBRANCH  54  60
ENDBRANCH  47  50
ENDBRANCH  46  47
BRANCH  46  65
ATOM     65  C   MOL d         -28.223  43.169  35.122  0.00  0.00     0.246 C 
ATOM     66  O   MOL d         -27.234  42.798  35.785  0.00  0.00    -0.271 OA
ATOM     67  N   MOL d         -28.282  42.978  33.818  0.00  0.00    -0.344 N 
ATOM     68  H27 MOL d         -29.067  43.307  33.293  0.00  0.00     0.163 HD
BRANCH  67  69
ATOM     69  CA  MOL d         -27.195  42.287  33.158  0.00  0.00     0.104 C 
ATOM     70  H28 MOL d         -26.564  41.804  33.918  0.00  0.00     0.090 H 
BRANCH  69  71
ATOM     71  C   MOL d         -26.362  43.304  32.377  0.00  0.00     0.197 C 
ATOM     72  OXT MOL d         -25.153  43.312  32.599  0.00  0.00    -0.646 OA
ATOM     73  O   MOL d         -26.901  44.109  31.553  0.00  0.00    -0.646 OA
ENDBRANCH  69  71
BRANCH  69  74
ATOM     74  CB  MOL d         -27.722  41.203  32.176  0.00  0.00     0.037 C 
ATOM     75  H29 MOL d         -27.530  41.539  31.147  0.00  0.00     0.051 H 
ATOM     76  H30 MOL d         -28.805  41.089  32.329  0.00  0.00     0.051 H 
BRANCH  74  77
ATOM     77  CG  MOL d         -27.035  39.798  32.382  0.00  0.00     0.217 C 
ATOM     78  OD1 MOL d         -27.448  39.023  33.191  0.00  0.00    -0.274 OA
ATOM     79  ND2 MOL d         -25.984  39.544  31.653  0.00  0.00    -0.370 N 
ATOM     80  H31 MOL d         -25.513  38.667  31.746  0.00  0.00     0.159 HD
ATOM     81  H32 MOL d         -25.650  40.225  31.002  0.00  0.00     0.159 HD
ENDBRANCH  74  77
ENDBRANCH  69  74
ENDBRANCH  67  69
ENDBRANCH  46  65
BRANCH  46  82
ATOM     82  CH3 MOL d         -29.515  43.934  37.351  0.00  0.00    -0.044 C 
ATOM     83  H18 MOL d         -30.576  43.867  37.631  0.00  0.00     0.031 H 
ATOM     84  H19 MOL d         -29.087  44.863  37.754  0.00  0.00     0.031 H 
ATOM     85  H20 MOL d         -28.972  43.071  37.764  0.00  0.00     0.031 H 
ENDBRANCH  46  82
ENDBRANCH   3  46
TORSDOF 21
ENDMDL
MODEL 3
REMARK VINA RESULT:      -4.9      3.041      7.889
REMARK  21 active torsions:
REMARK  status: ('A' for Active; 'I' for Inactive)
REMARK    1  A    between atoms: C12_6  and  C3_3 
REMARK    2  A    between atoms: O13_7  and  C12_6 
REMARK    3  A    between atoms: C16_8  and  O13_7 
REMARK    4  A    between atoms: C5_11  and  N11_10 
REMARK    5  A    between atoms: CA_13  and  N_12 
REMARK    6  A    between atoms: CA_13  and  CB_16 
REMARK    7  A    between atoms: C_14  and  CA_13 
REMARK       I    between atoms: N_28  and  C_14 
REMARK    8  A    between atoms: CB_16  and  CG_17 
REMARK    9  A    between atoms: CZ_22  and  OH_23 
REMARK   10  A    between atoms: OH_23  and  P_24 
REMARK   11  A    between atoms: CA_29  and  N_28 
REMARK   12  A    between atoms: CA_29  and  CB_33 
REMARK   13  A    between atoms: C_31  and  CA_29 
REMARK   14  A    between atoms: CA_29  and  CH3_30 
REMARK       I    between atoms: C_31  and  N_45 
REMARK   15  A    between atoms: CB_33  and  CG_34 
REMARK   16  A    between atoms: CZ_39  and  OH_40 
REMARK   17  A    between atoms: OH_40  and  P_41 
REMARK   18  A    between atoms: N_45  and  CA_46 
REMARK   19  A    between atoms: CA_46  and  C_47 
REMARK   20  A    between atoms: CA_46  and  CB_49 
REMARK   21  A    between atoms: CB_49  and  CG_50 
REMARK       I    between atoms: CG_50  and  ND2_52 
ROOT
ATOM      1  C   MOL d         -30.193  46.159  33.111  0.00  0.00     0.241 C 
ATOM      2  O   MOL d         -31.027  46.871  33.730  0.00  0.00    -0.271 OA
ATOM      3  N   MOL d         -28.903  46.189  33.266  0.00  0.00    -0.341 N 
ATOM      4  H17 MOL d         -28.339  45.525  32.776  0.00  0.00     0.163 HD
ENDROOT
BRANCH   1   5
ATOM      5  CA  MOL d         -30.564  45.028  32.209  0.00  0.00     0.094 C 
ATOM      6  H10 MOL d         -31.083  45.361  31.299  0.00  0.00     0.088 H 
BRANCH   5   7
ATOM      7  N   MOL d         -29.296  44.478  31.914  0.00  0.00    -0.335 N 
ATOM      8  C16 MOL d         -28.902  43.953  30.777  0.00  0.00     0.292 C 
ATOM      9  O18 MOL d         -29.393  44.450  29.592  0.00  0.00    -0.143 OA
ATOM     10  H9  MOL d         -28.623  44.490  32.654  0.00  0.00     0.164 HD
BRANCH   8  11
ATOM     11  O13 MOL d         -27.735  43.386  30.907  0.00  0.00    -0.310 OA
BRANCH  11  12
ATOM     12  C12 MOL d         -26.922  43.235  32.082  0.00  0.00     0.053 C 
ATOM     13  H5  MOL d         -26.318  44.152  32.157  0.00  0.00     0.082 H 
ATOM     14  H6  MOL d         -27.618  43.183  32.933  0.00  0.00     0.082 H 
BRANCH  12  15
ATOM     15  C3  MOL d         -25.978  42.101  32.246  0.00  0.00    -0.032 A 
ATOM     16  C2  MOL d         -26.240  40.823  31.719  0.00  0.00    -0.075 A 
ATOM     17  C1  MOL d         -25.267  39.798  31.897  0.00  0.00    -0.080 A 
ATOM     18  H2  MOL d         -27.163  40.623  31.189  0.00  0.00     0.084 H 
ATOM     19  C6  MOL d         -24.070  40.068  32.616  0.00  0.00    -0.058 A 
ATOM     20  H1  MOL d         -25.439  38.810  31.483  0.00  0.00     0.083 H 
ATOM     21  C5  MOL d         -23.844  41.353  33.144  0.00  0.00     0.026 A 
ATOM     22  H4  MOL d         -23.332  39.285  32.758  0.00  0.00     0.086 H 
ATOM     23  C4  MOL d         -24.793  42.366  32.952  0.00  0.00    -0.050 A 
ATOM     24  H3  MOL d         -24.611  43.358  33.349  0.00  0.00     0.087 H 
BRANCH  21  25
ATOM     25  N11 MOL d         -22.721  41.631  33.844  0.00  0.00    -0.399 N 
ATOM     26  H7  MOL d         -21.916  42.070  33.373  0.00  0.00     0.156 HD
ATOM     27  H8  MOL d         -22.669  41.405  34.847  0.00  0.00     0.156 HD
ENDBRANCH  21  25
ENDBRANCH  12  15
ENDBRANCH  11  12
ENDBRANCH   8  11
ENDBRANCH   5   7
BRANCH   5  28
ATOM     28  CB  MOL d         -31.468  44.064  33.031  0.00  0.00    -0.014 C 
ATOM     29  H11 MOL d         -32.413  43.915  32.487  0.00  0.00     0.043 H 
ATOM     30  H12 MOL d         -31.677  44.521  34.009  0.00  0.00     0.043 H 
BRANCH  28  31
ATOM     31  CG  MOL d         -30.811  42.705  33.253  0.00  0.00    -0.056 A 
ATOM     32  CD2 MOL d         -31.029  41.625  32.358  0.00  0.00    -0.074 A 
ATOM     33  CE2 MOL d         -30.399  40.374  32.570  0.00  0.00    -0.050 A 
ATOM     34  H14 MOL d         -31.684  41.759  31.505  0.00  0.00     0.084 H 
ATOM     35  CZ  MOL d         -29.539  40.285  33.706  0.00  0.00     0.082 A 
ATOM     36  H16 MOL d         -30.561  39.533  31.907  0.00  0.00     0.087 H 
ATOM     37  CE1 MOL d         -29.308  41.337  34.593  0.00  0.00    -0.050 A 
ATOM     38  CD1 MOL d         -29.946  42.544  34.367  0.00  0.00    -0.074 A 
ATOM     39  H15 MOL d         -28.643  41.212  35.440  0.00  0.00     0.087 H 
ATOM     40  H13 MOL d         -29.785  43.374  35.046  0.00  0.00     0.084 H 
BRANCH  35  41
ATOM     41  OH  MOL d         -28.888  39.067  33.957  0.00  0.00    -0.240 OA
BRANCH  41  42
ATOM     42  P   MOL d         -29.414  37.887  34.762  0.00  0.00     0.427 P 
ATOM     43  O3P MOL d         -30.618  37.268  34.002  0.00  0.00    -0.617 OA
ATOM     44  O2P MOL d         -28.407  36.875  35.034  0.00  0.00    -0.617 OA
ATOM     45  O1P MOL d         -29.896  38.429  36.010  0.00  0.00    -0.617 OA
ENDBRANCH  41  42
ENDBRANCH  35  41
ENDBRANCH  28  31
ENDBRANCH   5  28
ENDBRANCH   1   5
BRANCH   3  46
ATOM     46  CA  MOL d         -28.270  47.145  34.120  0.00  0.00     0.114 C 
BRANCH  46  47
ATOM     47  CB  MOL d         -29.276  48.349  34.063  0.00  0.00    -0.009 C 
ATOM     48  H21 MOL d         -30.276  47.968  34.319  0.00  0.00     0.044 H 
ATOM     49  H22 MOL d         -29.284  48.735  33.033  0.00  0.00     0.044 H 
BRANCH  47  50
ATOM     50  CG  MOL d         -28.963  49.520  35.003  0.00  0.00    -0.055 A 
ATOM     51  CD2 MOL d         -27.959  50.434  34.666  0.00  0.00    -0.074 A 
ATOM     52  CE2 MOL d         -27.641  51.542  35.496  0.00  0.00    -0.050 A 
ATOM     53  H24 MOL d         -27.406  50.292  33.744  0.00  0.00     0.084 H 
ATOM     54  CZ  MOL d         -28.393  51.666  36.671  0.00  0.00     0.082 A 
ATOM     55  H26 MOL d         -26.862  52.250  35.235  0.00  0.00     0.087 H 
ATOM     56  CE1 MOL d         -29.413  50.766  37.034  0.00  0.00    -0.050 A 
ATOM     57  CD1 MOL d         -29.703  49.684  36.201  0.00  0.00    -0.074 A 
ATOM     58  H25 MOL d         -29.969  50.912  37.953  0.00  0.00     0.087 H 
ATOM     59  H23 MOL d         -30.483  48.980  36.466  0.00  0.00     0.084 H 
BRANCH  54  60
ATOM     60  OH  MOL d         -28.074  52.761  37.498  0.00  0.00    -0.240 OA
BRANCH  60  61
ATOM     61  P   MOL d         -29.142  54.012  37.706  0.00  0.00     0.427 P 
ATOM     62  O3P MOL d         -30.427  53.501  38.262  0.00  0.00    -0.617 OA
ATOM     63  O2P MOL d         -28.572  54.979  38.676  0.00  0.00    -0.617 OA
ATOM     64  O1P MOL d         -29.358  54.556  36.353  0.00  0.00    -0.617 OA
ENDBRANCH  60  61
ENDBRANCH  54  60
ENDBRANCH  47  50
ENDBRANCH  46  47
BRANCH  46  65
ATOM     65  C   MOL d         -28.211  46.683  35.598  0.00  0.00     0.246 C 
ATOM     66  O   MOL d         -27.369  47.165  36.381  0.00  0.00    -0.271 OA
ATOM     67  N   MOL d         -29.034  45.726  35.985  0.00  0.00    -0.344 N 
ATOM     68  H27 MOL d         -29.685  45.326  35.339  0.00  0.00     0.163 HD
BRANCH  67  69
ATOM     69  CA  MOL d         -28.981  45.263  37.355  0.00  0.00     0.104 C 
ATOM     70  H28 MOL d         -28.382  45.970  37.948  0.00  0.00     0.090 H 
BRANCH  69  71
ATOM     71  C   MOL d         -28.321  43.884  37.388  0.00  0.00     0.197 C 
ATOM     72  OXT MOL d         -27.499  43.646  36.506  0.00  0.00    -0.646 OA
ATOM     73  O   MOL d         -28.625  43.026  38.276  0.00  0.00    -0.646 OA
ENDBRANCH  69  71
BRANCH  69  74
ATOM     74  CB  MOL d         -30.402  45.161  37.977  0.00  0.00     0.037 C 
ATOM     75  H29 MOL d         -30.780  46.178  38.155  0.00  0.00     0.051 H 
ATOM     76  H30 MOL d         -30.327  44.624  38.934  0.00  0.00     0.051 H 
BRANCH  74  77
ATOM     77  CG  MOL d         -31.427  44.399  37.053  0.00  0.00     0.217 C 
ATOM     78  OD1 MOL d         -31.860  44.907  36.062  0.00  0.00    -0.274 OA
ATOM     79  ND2 MOL d         -31.800  43.211  37.441  0.00  0.00    -0.370 N 
ATOM     80  H31 MOL d         -32.449  42.686  36.890  0.00  0.00     0.159 HD
ATOM     81  H32 MOL d         -31.437  42.825  38.289  0.00  0.00     0.159 HD
ENDBRANCH  74  77
ENDBRANCH  69  74
ENDBRANCH  67  69
ENDBRANCH  46  65
BRANCH  46  82
ATOM     82  CH3 MOL d         -27.005  47.736  33.440  0.00  0.00    -0.044 C 
ATOM     83  H18 MOL d         -26.987  48.826  33.584  0.00  0.00     0.031 H 
ATOM     84  H19 MOL d         -27.026  47.508  32.364  0.00  0.00     0.031 H 
ATOM     85  H20 MOL d         -26.105  47.292  33.891  0.00  0.00     0.031 H 
ENDBRANCH  46  82
ENDBRANCH   3  46
TORSDOF 21
ENDMDL
MODEL 4
REMARK VINA RESULT:      -4.9      3.243      8.078
REMARK  21 active torsions:
REMARK  status: ('A' for Active; 'I' for Inactive)
REMARK    1  A    between atoms: C12_6  and  C3_3 
REMARK    2  A    between atoms: O13_7  and  C12_6 
REMARK    3  A    between atoms: C16_8  and  O13_7 
REMARK    4  A    between atoms: C5_11  and  N11_10 
REMARK    5  A    between atoms: CA_13  and  N_12 
REMARK    6  A    between atoms: CA_13  and  CB_16 
REMARK    7  A    between atoms: C_14  and  CA_13 
REMARK       I    between atoms: N_28  and  C_14 
REMARK    8  A    between atoms: CB_16  and  CG_17 
REMARK    9  A    between atoms: CZ_22  and  OH_23 
REMARK   10  A    between atoms: OH_23  and  P_24 
REMARK   11  A    between atoms: CA_29  and  N_28 
REMARK   12  A    between atoms: CA_29  and  CB_33 
REMARK   13  A    between atoms: C_31  and  CA_29 
REMARK   14  A    between atoms: CA_29  and  CH3_30 
REMARK       I    between atoms: C_31  and  N_45 
REMARK   15  A    between atoms: CB_33  and  CG_34 
REMARK   16  A    between atoms: CZ_39  and  OH_40 
REMARK   17  A    between atoms: OH_40  and  P_41 
REMARK   18  A    between atoms: N_45  and  CA_46 
REMARK   19  A    between atoms: CA_46  and  C_47 
REMARK   20  A    between atoms: CA_46  and  CB_49 
REMARK   21  A    between atoms: CB_49  and  CG_50 
REMARK       I    between atoms: CG_50  and  ND2_52 
ROOT
ATOM      1  C   MOL d         -28.659  44.738  31.298  0.00  0.00     0.241 C 
ATOM      2  O   MOL d         -28.607  45.035  30.075  0.00  0.00    -0.271 OA
ATOM      3  N   MOL d         -29.107  43.622  31.790  0.00  0.00    -0.341 N 
ATOM      4  H17 MOL d         -29.033  43.460  32.773  0.00  0.00     0.163 HD
ENDROOT
BRANCH   1   5
ATOM      5  CA  MOL d         -28.050  45.559  32.386  0.00  0.00     0.094 C 
ATOM      6  H10 MOL d         -27.052  45.204  32.680  0.00  0.00     0.088 H 
BRANCH   5   7
ATOM      7  N   MOL d         -27.993  46.833  31.777  0.00  0.00    -0.335 N 
ATOM      8  C16 MOL d         -26.957  47.636  31.711  0.00  0.00     0.292 C 
ATOM      9  O18 MOL d         -25.690  47.107  31.621  0.00  0.00    -0.143 OA
ATOM     10  H9  MOL d         -28.836  47.158  31.347  0.00  0.00     0.164 HD
BRANCH   8  11
ATOM     11  O13 MOL d         -27.301  48.799  31.231  0.00  0.00    -0.310 OA
BRANCH  11  12
ATOM     12  C12 MOL d         -28.325  49.701  31.680  0.00  0.00     0.053 C 
ATOM     13  H5  MOL d         -28.626  49.352  32.679  0.00  0.00     0.082 H 
ATOM     14  H6  MOL d         -27.848  50.690  31.765  0.00  0.00     0.082 H 
BRANCH  12  15
ATOM     15  C3  MOL d         -29.581  49.910  30.917  0.00  0.00    -0.032 A 
ATOM     16  C2  MOL d         -30.671  49.027  31.008  0.00  0.00    -0.075 A 
ATOM     17  C1  MOL d         -31.851  49.318  30.264  0.00  0.00    -0.080 A 
ATOM     18  H2  MOL d         -30.616  48.143  31.632  0.00  0.00     0.084 H 
ATOM     19  C6  MOL d         -31.902  50.469  29.429  0.00  0.00    -0.058 A 
ATOM     20  H1  MOL d         -32.711  48.661  30.333  0.00  0.00     0.083 H 
ATOM     21  C5  MOL d         -30.788  51.326  29.348  0.00  0.00     0.026 A 
ATOM     22  H4  MOL d         -32.797  50.686  28.857  0.00  0.00     0.086 H 
ATOM     23  C4  MOL d         -29.636  51.049  30.096  0.00  0.00    -0.050 A 
ATOM     24  H3  MOL d         -28.784  51.717  30.041  0.00  0.00     0.087 H 
BRANCH  21  25
ATOM     25  N11 MOL d         -30.806  52.418  28.552  0.00  0.00    -0.399 N 
ATOM     26  H7  MOL d         -30.684  53.356  28.960  0.00  0.00     0.156 HD
ATOM     27  H8  MOL d         -30.943  52.314  27.536  0.00  0.00     0.156 HD
ENDBRANCH  21  25
ENDBRANCH  12  15
ENDBRANCH  11  12
ENDBRANCH   8  11
ENDBRANCH   5   7
BRANCH   5  28
ATOM     28  CB  MOL d         -29.025  45.509  33.599  0.00  0.00    -0.014 C 
ATOM     29  H11 MOL d         -28.745  44.662  34.244  0.00  0.00     0.043 H 
ATOM     30  H12 MOL d         -30.049  45.361  33.225  0.00  0.00     0.043 H 
BRANCH  28  31
ATOM     31  CG  MOL d         -28.984  46.791  34.426  0.00  0.00    -0.056 A 
ATOM     32  CD2 MOL d         -30.028  47.748  34.354  0.00  0.00    -0.074 A 
ATOM     33  CE2 MOL d         -29.983  48.926  35.139  0.00  0.00    -0.050 A 
ATOM     34  H14 MOL d         -30.869  47.577  33.691  0.00  0.00     0.084 H 
ATOM     35  CZ  MOL d         -28.851  49.069  35.998  0.00  0.00     0.082 A 
ATOM     36  H16 MOL d         -30.763  49.676  35.091  0.00  0.00     0.087 H 
ATOM     37  CE1 MOL d         -27.818  48.135  36.087  0.00  0.00    -0.050 A 
ATOM     38  CD1 MOL d         -27.884  46.999  35.299  0.00  0.00    -0.074 A 
ATOM     39  H15 MOL d         -26.983  48.295  36.759  0.00  0.00     0.087 H 
ATOM     40  H13 MOL d         -27.090  46.262  35.348  0.00  0.00     0.084 H 
BRANCH  35  41
ATOM     41  OH  MOL d         -28.762  50.217  36.801  0.00  0.00    -0.240 OA
BRANCH  41  42
ATOM     42  P   MOL d         -28.281  51.599  36.384  0.00  0.00     0.427 P 
ATOM     43  O3P MOL d         -29.512  52.441  35.954  0.00  0.00    -0.617 OA
ATOM     44  O2P MOL d         -27.528  52.288  37.420  0.00  0.00    -0.617 OA
ATOM     45  O1P MOL d         -27.437  51.405  35.229  0.00  0.00    -0.617 OA
ENDBRANCH  41  42
ENDBRANCH  35  41
ENDBRANCH  28  31
ENDBRANCH   5  28
ENDBRANCH   1   5
BRANCH   3  46
ATOM     46  CA  MOL d         -29.702  42.619  30.963  0.00  0.00     0.114 C 
BRANCH  46  47
ATOM     47  CB  MOL d         -28.479  42.136  30.104  0.00  0.00    -0.009 C 
ATOM     48  H21 MOL d         -27.869  43.018  29.859  0.00  0.00     0.044 H 
ATOM     49  H22 MOL d         -28.871  41.692  29.177  0.00  0.00     0.044 H 
BRANCH  47  50
ATOM     50  CG  MOL d         -27.566  41.102  30.773  0.00  0.00    -0.055 A 
ATOM     51  CD2 MOL d         -26.678  41.504  31.777  0.00  0.00    -0.074 A 
ATOM     52  CE2 MOL d         -25.821  40.582  32.437  0.00  0.00    -0.050 A 
ATOM     53  H24 MOL d         -26.642  42.550  32.061  0.00  0.00     0.084 H 
ATOM     54  CZ  MOL d         -25.918  39.247  32.023  0.00  0.00     0.082 A 
ATOM     55  H26 MOL d         -25.133  40.893  33.215  0.00  0.00     0.087 H 
ATOM     56  CE1 MOL d         -26.806  38.813  31.020  0.00  0.00    -0.050 A 
ATOM     57  CD1 MOL d         -27.634  39.740  30.386  0.00  0.00    -0.074 A 
ATOM     58  H25 MOL d         -26.845  37.765  30.741  0.00  0.00     0.087 H 
ATOM     59  H23 MOL d         -28.321  39.424  29.610  0.00  0.00     0.084 H 
BRANCH  54  60
ATOM     60  OH  MOL d         -25.065  38.333  32.672  0.00  0.00    -0.240 OA
BRANCH  60  61
ATOM     61  P   MOL d         -23.433  38.605  32.761  0.00  0.00     0.427 P 
ATOM     62  O3P MOL d         -23.147  39.693  33.739  0.00  0.00    -0.617 OA
ATOM     63  O2P MOL d         -22.761  37.371  33.235  0.00  0.00    -0.617 OA
ATOM     64  O1P MOL d         -23.044  39.031  31.404  0.00  0.00    -0.617 OA
ENDBRANCH  60  61
ENDBRANCH  54  60
ENDBRANCH  47  50
ENDBRANCH  46  47
BRANCH  46  65
ATOM     65  C   MOL d         -30.192  41.390  31.770  0.00  0.00     0.246 C 
ATOM     66  O   MOL d         -30.885  40.508  31.225  0.00  0.00    -0.271 OA
ATOM     67  N   MOL d         -29.906  41.336  33.057  0.00  0.00    -0.344 N 
ATOM     68  H27 MOL d         -29.374  42.064  33.489  0.00  0.00     0.163 HD
BRANCH  67  69
ATOM     69  CA  MOL d         -30.373  40.209  33.836  0.00  0.00     0.104 C 
ATOM     70  H28 MOL d         -31.247  39.766  33.335  0.00  0.00     0.090 H 
BRANCH  69  71
ATOM     71  C   MOL d         -30.778  40.699  35.226  0.00  0.00     0.197 C 
ATOM     72  OXT MOL d         -30.799  39.857  36.122  0.00  0.00    -0.646 OA
ATOM     73  O   MOL d         -31.092  41.913  35.435  0.00  0.00    -0.646 OA
ENDBRANCH  69  71
BRANCH  69  74
ATOM     74  CB  MOL d         -29.271  39.122  33.982  0.00  0.00     0.037 C 
ATOM     75  H29 MOL d         -28.921  39.117  35.025  0.00  0.00     0.051 H 
ATOM     76  H30 MOL d         -28.435  39.379  33.316  0.00  0.00     0.051 H 
BRANCH  74  77
ATOM     77  CG  MOL d         -29.779  37.675  33.616  0.00  0.00     0.217 C 
ATOM     78  OD1 MOL d         -29.799  37.297  32.482  0.00  0.00    -0.274 OA
ATOM     79  ND2 MOL d         -30.203  36.932  34.600  0.00  0.00    -0.370 N 
ATOM     80  H31 MOL d         -30.535  36.006  34.420  0.00  0.00     0.159 HD
ATOM     81  H32 MOL d         -30.196  37.288  35.534  0.00  0.00     0.159 HD
ENDBRANCH  74  77
ENDBRANCH  69  74
ENDBRANCH  67  69
ENDBRANCH  46  65
BRANCH  46  82
ATOM     82  CH3 MOL d         -30.626  43.264  29.894  0.00  0.00    -0.044 C 
ATOM     83  H18 MOL d         -30.852  44.301  30.184  0.00  0.00     0.031 H 
ATOM     84  H19 MOL d         -31.562  42.691  29.823  0.00  0.00     0.031 H 
ATOM     85  H20 MOL d         -30.117  43.259  28.919  0.00  0.00     0.031 H 
ENDBRANCH  46  82
ENDBRANCH   3  46
TORSDOF 21
ENDMDL
MODEL 5
REMARK VINA RESULT:      -4.7      3.060      8.078
REMARK  21 active torsions:
REMARK  status: ('A' for Active; 'I' for Inactive)
REMARK    1  A    between atoms: C12_6  and  C3_3 
REMARK    2  A    between atoms: O13_7  and  C12_6 
REMARK    3  A    between atoms: C16_8  and  O13_7 
REMARK    4  A    between atoms: C5_11  and  N11_10 
REMARK    5  A    between atoms: CA_13  and  N_12 
REMARK    6  A    between atoms: CA_13  and  CB_16 
REMARK    7  A    between atoms: C_14  and  CA_13 
REMARK       I    between atoms: N_28  and  C_14 
REMARK    8  A    between atoms: CB_16  and  CG_17 
REMARK    9  A    between atoms: CZ_22  and  OH_23 
REMARK   10  A    between atoms: OH_23  and  P_24 
REMARK   11  A    between atoms: CA_29  and  N_28 
REMARK   12  A    between atoms: CA_29  and  CB_33 
REMARK   13  A    between atoms: C_31  and  CA_29 
REMARK   14  A    between atoms: CA_29  and  CH3_30 
REMARK       I    between atoms: C_31  and  N_45 
REMARK   15  A    between atoms: CB_33  and  CG_34 
REMARK   16  A    between atoms: CZ_39  and  OH_40 
REMARK   17  A    between atoms: OH_40  and  P_41 
REMARK   18  A    between atoms: N_45  and  CA_46 
REMARK   19  A    between atoms: CA_46  and  C_47 
REMARK   20  A    between atoms: CA_46  and  CB_49 
REMARK   21  A    between atoms: CB_49  and  CG_50 
REMARK       I    between atoms: CG_50  and  ND2_52 
ROOT
ATOM      1  C   MOL d         -30.495  45.287  32.871  0.00  0.00     0.241 C 
ATOM      2  O   MOL d         -31.404  45.873  33.517  0.00  0.00    -0.271 OA
ATOM      3  N   MOL d         -29.229  45.579  32.906  0.00  0.00    -0.341 N 
ATOM      4  H17 MOL d         -28.583  45.000  32.410  0.00  0.00     0.163 HD
ENDROOT
BRANCH   1   5
ATOM      5  CA  MOL d         -30.701  44.038  32.081  0.00  0.00     0.094 C 
ATOM      6  H10 MOL d         -31.248  44.211  31.143  0.00  0.00     0.088 H 
BRANCH   5   7
ATOM      7  N   MOL d         -29.368  43.636  31.840  0.00  0.00    -0.335 N 
ATOM      8  C16 MOL d         -28.875  43.142  30.728  0.00  0.00     0.292 C 
ATOM      9  O18 MOL d         -29.378  43.558  29.517  0.00  0.00    -0.143 OA
ATOM     10  H9  MOL d         -28.727  43.740  32.601  0.00  0.00     0.164 HD
BRANCH   8  11
ATOM     11  O13 MOL d         -27.655  42.720  30.908  0.00  0.00    -0.310 OA
BRANCH  11  12
ATOM     12  C12 MOL d         -26.791  42.891  32.042  0.00  0.00     0.053 C 
ATOM     13  H5  MOL d         -26.256  43.839  31.881  0.00  0.00     0.082 H 
ATOM     14  H6  MOL d         -27.448  42.985  32.919  0.00  0.00     0.082 H 
BRANCH  12  15
ATOM     15  C3  MOL d         -25.758  41.887  32.404  0.00  0.00    -0.032 A 
ATOM     16  C2  MOL d         -24.580  42.234  33.089  0.00  0.00    -0.075 A 
ATOM     17  C1  MOL d         -23.654  41.205  33.424  0.00  0.00    -0.080 A 
ATOM     18  H2  MOL d         -24.380  43.265  33.357  0.00  0.00     0.084 H 
ATOM     19  C6  MOL d         -23.917  39.859  33.044  0.00  0.00    -0.058 A 
ATOM     20  H1  MOL d         -22.748  41.447  33.969  0.00  0.00     0.083 H 
ATOM     21  C5  MOL d         -25.098  39.546  32.345  0.00  0.00     0.026 A 
ATOM     22  H4  MOL d         -23.209  39.076  33.293  0.00  0.00     0.086 H 
ATOM     23  C4  MOL d         -26.017  40.557  32.035  0.00  0.00    -0.050 A 
ATOM     24  H3  MOL d         -26.932  40.311  31.507  0.00  0.00     0.087 H 
BRANCH  21  25
ATOM     25  N11 MOL d         -25.364  38.277  31.961  0.00  0.00    -0.399 N 
ATOM     26  H7  MOL d         -25.494  38.057  30.963  0.00  0.00     0.156 HD
ATOM     27  H8  MOL d         -25.437  37.529  32.667  0.00  0.00     0.156 HD
ENDBRANCH  21  25
ENDBRANCH  12  15
ENDBRANCH  11  12
ENDBRANCH   8  11
ENDBRANCH   5   7
BRANCH   5  28
ATOM     28  CB  MOL d         -31.480  43.043  32.991  0.00  0.00    -0.014 C 
ATOM     29  H11 MOL d         -32.521  42.984  32.640  0.00  0.00     0.043 H 
ATOM     30  H12 MOL d         -31.462  43.420  34.024  0.00  0.00     0.043 H 
BRANCH  28  31
ATOM     31  CG  MOL d         -30.873  41.643  32.968  0.00  0.00    -0.056 A 
ATOM     32  CD2 MOL d         -29.859  41.264  33.885  0.00  0.00    -0.074 A 
ATOM     33  CE2 MOL d         -29.317  39.955  33.861  0.00  0.00    -0.050 A 
ATOM     34  H14 MOL d         -29.496  41.982  34.611  0.00  0.00     0.084 H 
ATOM     35  CZ  MOL d         -29.861  39.065  32.886  0.00  0.00     0.082 A 
ATOM     36  H16 MOL d         -28.534  39.648  34.543  0.00  0.00     0.087 H 
ATOM     37  CE1 MOL d         -30.863  39.418  31.981  0.00  0.00    -0.050 A 
ATOM     38  CD1 MOL d         -31.365  40.707  32.021  0.00  0.00    -0.074 A 
ATOM     39  H15 MOL d         -31.239  38.698  31.263  0.00  0.00     0.087 H 
ATOM     40  H13 MOL d         -32.140  41.004  31.324  0.00  0.00     0.084 H 
BRANCH  35  41
ATOM     41  OH  MOL d         -29.361  37.754  32.825  0.00  0.00    -0.240 OA
BRANCH  41  42
ATOM     42  P   MOL d         -29.139  36.909  31.579  0.00  0.00     0.427 P 
ATOM     43  O3P MOL d         -29.059  35.417  32.003  0.00  0.00    -0.617 OA
ATOM     44  O2P MOL d         -30.161  37.096  30.563  0.00  0.00    -0.617 OA
ATOM     45  O1P MOL d         -27.857  37.299  31.046  0.00  0.00    -0.617 OA
ENDBRANCH  41  42
ENDBRANCH  35  41
ENDBRANCH  28  31
ENDBRANCH   5  28
ENDBRANCH   1   5
BRANCH   3  46
ATOM     46  CA  MOL d         -28.735  46.705  33.636  0.00  0.00     0.114 C 
BRANCH  46  47
ATOM     47  CB  MOL d         -29.958  47.689  33.581  0.00  0.00    -0.009 C 
ATOM     48  H21 MOL d         -30.819  47.186  34.045  0.00  0.00     0.044 H 
ATOM     49  H22 MOL d         -30.180  47.896  32.523  0.00  0.00     0.044 H 
BRANCH  47  50
ATOM     50  CG  MOL d         -29.759  49.033  34.292  0.00  0.00    -0.055 A 
ATOM     51  CD2 MOL d         -29.035  50.053  33.664  0.00  0.00    -0.074 A 
ATOM     52  CE2 MOL d         -28.835  51.320  34.275  0.00  0.00    -0.050 A 
ATOM     53  H24 MOL d         -28.613  49.870  32.682  0.00  0.00     0.084 H 
ATOM     54  CZ  MOL d         -29.406  51.489  35.543  0.00  0.00     0.082 A 
ATOM     55  H26 MOL d         -28.273  52.110  33.789  0.00  0.00     0.087 H 
ATOM     56  CE1 MOL d         -30.145  50.484  36.197  0.00  0.00    -0.050 A 
ATOM     57  CD1 MOL d         -30.324  49.247  35.575  0.00  0.00    -0.074 A 
ATOM     58  H25 MOL d         -30.571  50.669  37.177  0.00  0.00     0.087 H 
ATOM     59  H23 MOL d         -30.886  48.462  36.065  0.00  0.00     0.084 H 
BRANCH  54  60
ATOM     60  OH  MOL d         -29.203  52.742  36.152  0.00  0.00    -0.240 OA
BRANCH  60  61
ATOM     61  P   MOL d         -27.677  53.278  36.514  0.00  0.00     0.427 P 
ATOM     62  O3P MOL d         -27.671  53.946  37.847  0.00  0.00    -0.617 OA
ATOM     63  O2P MOL d         -26.758  52.117  36.576  0.00  0.00    -0.617 OA
ATOM     64  O1P MOL d         -27.358  54.257  35.458  0.00  0.00    -0.617 OA
ENDBRANCH  60  61
ENDBRANCH  54  60
ENDBRANCH  47  50
ENDBRANCH  46  47
BRANCH  46  65
ATOM     65  C   MOL d         -28.485  46.387  35.132  0.00  0.00     0.246 C 
ATOM     66  O   MOL d         -27.674  47.061  35.797  0.00  0.00    -0.271 OA
ATOM     67  N   MOL d         -29.108  45.351  35.661  0.00  0.00    -0.344 N 
ATOM     68  H27 MOL d         -29.734  44.800  35.109  0.00  0.00     0.163 HD
BRANCH  67  69
ATOM     69  CA  MOL d         -28.872  45.022  37.050  0.00  0.00     0.104 C 
ATOM     70  H28 MOL d         -28.304  45.839  37.520  0.00  0.00     0.090 H 
BRANCH  69  71
ATOM     71  C   MOL d         -28.058  43.729  37.124  0.00  0.00     0.197 C 
ATOM     72  OXT MOL d         -27.943  43.214  38.234  0.00  0.00    -0.646 OA
ATOM     73  O   MOL d         -27.517  43.227  36.088  0.00  0.00    -0.646 OA
ENDBRANCH  69  71
BRANCH  69  74
ATOM     74  CB  MOL d         -30.206  44.826  37.824  0.00  0.00     0.037 C 
ATOM     75  H29 MOL d         -30.725  45.794  37.877  0.00  0.00     0.051 H 
ATOM     76  H30 MOL d         -29.972  44.480  38.841  0.00  0.00     0.051 H 
BRANCH  74  77
ATOM     77  CG  MOL d         -31.166  43.777  37.144  0.00  0.00     0.217 C 
ATOM     78  OD1 MOL d         -31.911  44.100  36.268  0.00  0.00    -0.274 OA
ATOM     79  ND2 MOL d         -31.129  42.558  37.607  0.00  0.00    -0.370 N 
ATOM     80  H31 MOL d         -31.719  41.855  37.210  0.00  0.00     0.159 HD
ATOM     81  H32 MOL d         -30.512  42.327  38.358  0.00  0.00     0.159 HD
ENDBRANCH  74  77
ENDBRANCH  69  74
ENDBRANCH  67  69
ENDBRANCH  46  65
BRANCH  46  82
ATOM     82  CH3 MOL d         -27.660  47.464  32.813  0.00  0.00    -0.044 C 
ATOM     83  H18 MOL d         -27.102  48.142  33.475  0.00  0.00     0.031 H 
ATOM     84  H19 MOL d         -28.149  48.048  32.019  0.00  0.00     0.031 H 
ATOM     85  H20 MOL d         -26.965  46.741  32.361  0.00  0.00     0.031 H 
ENDBRANCH  46  82
ENDBRANCH   3  46
TORSDOF 21
ENDMDL
MODEL 6
REMARK VINA RESULT:      -4.6      3.712      8.039
REMARK  21 active torsions:
REMARK  status: ('A' for Active; 'I' for Inactive)
REMARK    1  A    between atoms: C12_6  and  C3_3 
REMARK    2  A    between atoms: O13_7  and  C12_6 
REMARK    3  A    between atoms: C16_8  and  O13_7 
REMARK    4  A    between atoms: C5_11  and  N11_10 
REMARK    5  A    between atoms: CA_13  and  N_12 
REMARK    6  A    between atoms: CA_13  and  CB_16 
REMARK    7  A    between atoms: C_14  and  CA_13 
REMARK       I    between atoms: N_28  and  C_14 
REMARK    8  A    between atoms: CB_16  and  CG_17 
REMARK    9  A    between atoms: CZ_22  and  OH_23 
REMARK   10  A    between atoms: OH_23  and  P_24 
REMARK   11  A    between atoms: CA_29  and  N_28 
REMARK   12  A    between atoms: CA_29  and  CB_33 
REMARK   13  A    between atoms: C_31  and  CA_29 
REMARK   14  A    between atoms: CA_29  and  CH3_30 
REMARK       I    between atoms: C_31  and  N_45 
REMARK   15  A    between atoms: CB_33  and  CG_34 
REMARK   16  A    between atoms: CZ_39  and  OH_40 
REMARK   17  A    between atoms: OH_40  and  P_41 
REMARK   18  A    between atoms: N_45  and  CA_46 
REMARK   19  A    between atoms: CA_46  and  C_47 
REMARK   20  A    between atoms: CA_46  and  CB_49 
REMARK   21  A    between atoms: CB_49  and  CG_50 
REMARK       I    between atoms: CG_50  and  ND2_52 
ROOT
ATOM      1  C   MOL d         -30.831  43.901  32.796  0.00  0.00     0.241 C 
ATOM      2  O   MOL d         -30.666  43.550  31.597  0.00  0.00    -0.271 OA
ATOM      3  N   MOL d         -30.747  43.124  33.834  0.00  0.00    -0.341 N 
ATOM      4  H17 MOL d         -30.822  43.523  34.747  0.00  0.00     0.163 HD
ENDROOT
BRANCH   1   5
ATOM      5  CA  MOL d         -30.982  45.318  33.240  0.00  0.00     0.094 C 
ATOM      6  H10 MOL d         -31.804  45.455  33.958  0.00  0.00     0.088 H 
BRANCH   5   7
ATOM      7  N   MOL d         -29.724  45.561  33.836  0.00  0.00    -0.335 N 
ATOM      8  C16 MOL d         -29.485  45.888  35.084  0.00  0.00     0.292 C 
ATOM      9  O18 MOL d         -30.298  45.402  36.082  0.00  0.00    -0.143 OA
ATOM     10  H9  MOL d         -28.926  45.473  33.239  0.00  0.00     0.164 HD
BRANCH   8  11
ATOM     11  O13 MOL d         -28.231  46.204  35.250  0.00  0.00    -0.310 OA
BRANCH  11  12
ATOM     12  C12 MOL d         -27.631  47.056  36.239  0.00  0.00     0.053 C 
ATOM     13  H5  MOL d         -28.103  46.794  37.197  0.00  0.00     0.082 H 
ATOM     14  H6  MOL d         -26.564  46.787  36.270  0.00  0.00     0.082 H 
BRANCH  12  15
ATOM     15  C3  MOL d         -27.683  48.536  36.140  0.00  0.00    -0.032 A 
ATOM     16  C2  MOL d         -26.666  49.360  36.655  0.00  0.00    -0.075 A 
ATOM     17  C1  MOL d         -26.780  50.771  36.492  0.00  0.00    -0.080 A 
ATOM     18  H2  MOL d         -25.812  48.930  37.166  0.00  0.00     0.084 H 
ATOM     19  C6  MOL d         -27.918  51.323  35.841  0.00  0.00    -0.058 A 
ATOM     20  H1  MOL d         -25.999  51.424  36.864  0.00  0.00     0.083 H 
ATOM     21  C5  MOL d         -28.927  50.473  35.351  0.00  0.00     0.026 A 
ATOM     22  H4  MOL d         -28.008  52.398  35.724  0.00  0.00     0.086 H 
ATOM     23  C4  MOL d         -28.803  49.085  35.494  0.00  0.00    -0.050 A 
ATOM     24  H3  MOL d         -29.576  48.431  35.104  0.00  0.00     0.087 H 
BRANCH  21  25
ATOM     25  N11 MOL d         -30.025  50.974  34.741  0.00  0.00    -0.399 N 
ATOM     26  H7  MOL d         -30.458  50.464  33.958  0.00  0.00     0.156 HD
ATOM     27  H8  MOL d         -30.428  51.867  35.059  0.00  0.00     0.156 HD
ENDBRANCH  21  25
ENDBRANCH  12  15
ENDBRANCH  11  12
ENDBRANCH   8  11
ENDBRANCH   5   7
BRANCH   5  28
ATOM     28  CB  MOL d         -31.226  46.176  31.964  0.00  0.00    -0.014 C 
ATOM     29  H11 MOL d         -32.023  46.905  32.174  0.00  0.00     0.043 H 
ATOM     30  H12 MOL d         -31.542  45.512  31.146  0.00  0.00     0.043 H 
BRANCH  28  31
ATOM     31  CG  MOL d         -29.973  46.930  31.528  0.00  0.00    -0.056 A 
ATOM     32  CD2 MOL d         -29.073  46.378  30.580  0.00  0.00    -0.074 A 
ATOM     33  CE2 MOL d         -27.923  47.097  30.173  0.00  0.00    -0.050 A 
ATOM     34  H14 MOL d         -29.268  45.396  30.163  0.00  0.00     0.084 H 
ATOM     35  CZ  MOL d         -27.747  48.389  30.755  0.00  0.00     0.082 A 
ATOM     36  H16 MOL d         -27.216  46.690  29.460  0.00  0.00     0.087 H 
ATOM     37  CE1 MOL d         -28.625  48.950  31.684  0.00  0.00    -0.050 A 
ATOM     38  CD1 MOL d         -29.734  48.219  32.071  0.00  0.00    -0.074 A 
ATOM     39  H15 MOL d         -28.442  49.938  32.092  0.00  0.00     0.087 H 
ATOM     40  H13 MOL d         -30.427  48.634  32.795  0.00  0.00     0.084 H 
BRANCH  35  41
ATOM     41  OH  MOL d         -26.625  49.144  30.381  0.00  0.00    -0.240 OA
BRANCH  41  42
ATOM     42  P   MOL d         -25.162  48.817  30.648  0.00  0.00     0.427 P 
ATOM     43  O3P MOL d         -25.079  47.924  31.915  0.00  0.00    -0.617 OA
ATOM     44  O2P MOL d         -24.498  48.174  29.526  0.00  0.00    -0.617 OA
ATOM     45  O1P MOL d         -24.511  50.072  30.934  0.00  0.00    -0.617 OA
ENDBRANCH  41  42
ENDBRANCH  35  41
ENDBRANCH  28  31
ENDBRANCH   5  28
ENDBRANCH   1   5
BRANCH   3  46
ATOM     46  CA  MOL d         -30.550  41.714  33.705  0.00  0.00     0.114 C 
BRANCH  46  47
ATOM     47  CB  MOL d         -31.229  41.415  32.320  0.00  0.00    -0.009 C 
ATOM     48  H21 MOL d         -31.062  42.284  31.666  0.00  0.00     0.044 H 
ATOM     49  H22 MOL d         -32.309  41.289  32.494  0.00  0.00     0.044 H 
BRANCH  47  50
ATOM     50  CG  MOL d         -30.721  40.168  31.587  0.00  0.00    -0.055 A 
ATOM     51  CD2 MOL d         -30.940  38.900  32.137  0.00  0.00    -0.074 A 
ATOM     52  CE2 MOL d         -30.500  37.713  31.490  0.00  0.00    -0.050 A 
ATOM     53  H24 MOL d         -31.459  38.820  33.085  0.00  0.00     0.084 H 
ATOM     54  CZ  MOL d         -29.836  37.889  30.269  0.00  0.00     0.082 A 
ATOM     55  H26 MOL d         -30.669  36.731  31.916  0.00  0.00     0.087 H 
ATOM     56  CE1 MOL d         -29.607  39.151  29.689  0.00  0.00    -0.050 A 
ATOM     57  CD1 MOL d         -30.047  40.300  30.347  0.00  0.00    -0.074 A 
ATOM     58  H25 MOL d         -29.092  39.230  28.738  0.00  0.00     0.087 H 
ATOM     59  H23 MOL d         -29.876  41.280  29.917  0.00  0.00     0.084 H 
BRANCH  54  60
ATOM     60  OH  MOL d         -29.395  36.714  29.630  0.00  0.00    -0.240 OA
BRANCH  60  61
ATOM     61  P   MOL d         -28.002  35.953  30.108  0.00  0.00     0.427 P 
ATOM     62  O3P MOL d         -26.965  36.962  30.465  0.00  0.00    -0.617 OA
ATOM     63  O2P MOL d         -28.286  35.137  31.314  0.00  0.00    -0.617 OA
ATOM     64  O1P MOL d         -27.569  35.178  28.931  0.00  0.00    -0.617 OA
ENDBRANCH  60  61
ENDBRANCH  54  60
ENDBRANCH  47  50
ENDBRANCH  46  47
BRANCH  46  65
ATOM     65  C   MOL d         -29.056  41.328  33.560  0.00  0.00     0.246 C 
ATOM     66  O   MOL d         -28.588  40.355  34.184  0.00  0.00    -0.271 OA
ATOM     67  N   MOL d         -28.285  42.092  32.809  0.00  0.00    -0.344 N 
ATOM     68  H27 MOL d         -28.666  42.887  32.337  0.00  0.00     0.163 HD
BRANCH  67  69
ATOM     69  CA  MOL d         -26.882  41.764  32.677  0.00  0.00     0.104 C 
ATOM     70  H28 MOL d         -26.542  41.271  33.601  0.00  0.00     0.090 H 
BRANCH  69  71
ATOM     71  C   MOL d         -26.088  43.054  32.466  0.00  0.00     0.197 C 
ATOM     72  OXT MOL d         -24.882  43.001  32.697  0.00  0.00    -0.646 OA
ATOM     73  O   MOL d         -26.656  44.127  32.087  0.00  0.00    -0.646 OA
ENDBRANCH  69  71
BRANCH  69  74
ATOM     74  CB  MOL d         -26.630  40.811  31.476  0.00  0.00     0.037 C 
ATOM     75  H29 MOL d         -26.257  41.406  30.629  0.00  0.00     0.051 H 
ATOM     76  H30 MOL d         -27.583  40.337  31.199  0.00  0.00     0.051 H 
BRANCH  74  77
ATOM     77  CG  MOL d         -25.580  39.679  31.795  0.00  0.00     0.217 C 
ATOM     78  OD1 MOL d         -25.332  39.368  32.921  0.00  0.00    -0.274 OA
ATOM     79  ND2 MOL d         -24.977  39.129  30.777  0.00  0.00    -0.370 N 
ATOM     80  H31 MOL d         -24.303  38.407  30.927  0.00  0.00     0.159 HD
ATOM     81  H32 MOL d         -25.190  39.430  29.848  0.00  0.00     0.159 HD
ENDBRANCH  74  77
ENDBRANCH  69  74
ENDBRANCH  67  69
ENDBRANCH  46  65
BRANCH  46  82
ATOM     82  CH3 MOL d         -31.459  40.938  34.696  0.00  0.00    -0.044 C 
ATOM     83  H18 MOL d         -31.358  41.372  35.702  0.00  0.00     0.031 H 
ATOM     84  H19 MOL d         -31.158  39.881  34.721  0.00  0.00     0.031 H 
ATOM     85  H20 MOL d         -32.507  41.013  34.369  0.00  0.00     0.031 H 
ENDBRANCH  46  82
ENDBRANCH   3  46
TORSDOF 21
ENDMDL
MODEL 7
REMARK VINA RESULT:      -4.2      1.597      2.042
REMARK  21 active torsions:
REMARK  status: ('A' for Active; 'I' for Inactive)
REMARK    1  A    between atoms: C12_6  and  C3_3 
REMARK    2  A    between atoms: O13_7  and  C12_6 
REMARK    3  A    between atoms: C16_8  and  O13_7 
REMARK    4  A    between atoms: C5_11  and  N11_10 
REMARK    5  A    between atoms: CA_13  and  N_12 
REMARK    6  A    between atoms: CA_13  and  CB_16 
REMARK    7  A    between atoms: C_14  and  CA_13 
REMARK       I    between atoms: N_28  and  C_14 
REMARK    8  A    between atoms: CB_16  and  CG_17 
REMARK    9  A    between atoms: CZ_22  and  OH_23 
REMARK   10  A    between atoms: OH_23  and  P_24 
REMARK   11  A    between atoms: CA_29  and  N_28 
REMARK   12  A    between atoms: CA_29  and  CB_33 
REMARK   13  A    between atoms: C_31  and  CA_29 
REMARK   14  A    between atoms: CA_29  and  CH3_30 
REMARK       I    between atoms: C_31  and  N_45 
REMARK   15  A    between atoms: CB_33  and  CG_34 
REMARK   16  A    between atoms: CZ_39  and  OH_40 
REMARK   17  A    between atoms: OH_40  and  P_41 
REMARK   18  A    between atoms: N_45  and  CA_46 
REMARK   19  A    between atoms: CA_46  and  C_47 
REMARK   20  A    between atoms: CA_46  and  CB_49 
REMARK   21  A    between atoms: CB_49  and  CG_50 
REMARK       I    between atoms: CG_50  and  ND2_52 
ROOT
ATOM      1  C   MOL d         -29.217  42.815  34.054  0.00  0.00     0.241 C 
ATOM      2  O   MOL d         -28.196  42.230  34.503  0.00  0.00    -0.271 OA
ATOM      3  N   MOL d         -29.424  43.135  32.812  0.00  0.00    -0.341 N 
ATOM      4  H17 MOL d         -30.304  43.531  32.553  0.00  0.00     0.163 HD
ENDROOT
BRANCH   1   5
ATOM      5  CA  MOL d         -30.447  43.086  34.856  0.00  0.00     0.094 C 
ATOM      6  H10 MOL d         -31.154  43.752  34.340  0.00  0.00     0.088 H 
BRANCH   5   7
ATOM      7  N   MOL d         -30.974  41.784  35.009  0.00  0.00    -0.335 N 
ATOM      8  C16 MOL d         -30.826  40.983  36.038  0.00  0.00     0.292 C 
ATOM      9  O18 MOL d         -30.730  41.512  37.304  0.00  0.00    -0.143 OA
ATOM     10  H9  MOL d         -31.521  41.434  34.248  0.00  0.00     0.164 HD
BRANCH   8  11
ATOM     11  O13 MOL d         -31.298  39.796  35.774  0.00  0.00    -0.310 OA
BRANCH  11  12
ATOM     12  C12 MOL d         -30.866  38.843  34.790  0.00  0.00     0.053 C 
ATOM     13  H5  MOL d         -31.753  38.247  34.529  0.00  0.00     0.082 H 
ATOM     14  H6  MOL d         -30.547  39.428  33.914  0.00  0.00     0.082 H 
BRANCH  12  15
ATOM     15  C3  MOL d         -29.776  37.872  35.060  0.00  0.00    -0.032 A 
ATOM     16  C2  MOL d         -29.752  37.071  36.215  0.00  0.00    -0.075 A 
ATOM     17  C1  MOL d         -28.685  36.142  36.382  0.00  0.00    -0.080 A 
ATOM     18  H2  MOL d         -30.531  37.157  36.964  0.00  0.00     0.084 H 
ATOM     19  C6  MOL d         -27.656  36.056  35.404  0.00  0.00    -0.058 A 
ATOM     20  H1  MOL d         -28.656  35.501  37.256  0.00  0.00     0.083 H 
ATOM     21  C5  MOL d         -27.700  36.882  34.265  0.00  0.00     0.026 A 
ATOM     22  H4  MOL d         -26.839  35.354  35.535  0.00  0.00     0.086 H 
ATOM     23  C4  MOL d         -28.761  37.780  34.093  0.00  0.00    -0.050 A 
ATOM     24  H3  MOL d         -28.799  38.407  33.209  0.00  0.00     0.087 H 
BRANCH  21  25
ATOM     25  N11 MOL d         -26.727  36.829  33.328  0.00  0.00    -0.399 N 
ATOM     26  H7  MOL d         -25.737  36.877  33.610  0.00  0.00     0.156 HD
ATOM     27  H8  MOL d         -26.975  36.740  32.332  0.00  0.00     0.156 HD
ENDBRANCH  21  25
ENDBRANCH  12  15
ENDBRANCH  11  12
ENDBRANCH   8  11
ENDBRANCH   5   7
BRANCH   5  28
ATOM     28  CB  MOL d         -29.987  43.718  36.202  0.00  0.00    -0.014 C 
ATOM     29  H11 MOL d         -29.090  43.186  36.555  0.00  0.00     0.043 H 
ATOM     30  H12 MOL d         -30.794  43.604  36.941  0.00  0.00     0.043 H 
BRANCH  28  31
ATOM     31  CG  MOL d         -29.655  45.200  36.061  0.00  0.00    -0.056 A 
ATOM     32  CD2 MOL d         -30.676  46.173  35.911  0.00  0.00    -0.074 A 
ATOM     33  CE2 MOL d         -30.352  47.548  35.797  0.00  0.00    -0.050 A 
ATOM     34  H14 MOL d         -31.714  45.862  35.883  0.00  0.00     0.084 H 
ATOM     35  CZ  MOL d         -28.964  47.877  35.860  0.00  0.00     0.082 A 
ATOM     36  H16 MOL d         -31.115  48.307  35.669  0.00  0.00     0.087 H 
ATOM     37  CE1 MOL d         -27.947  46.934  36.014  0.00  0.00    -0.050 A 
ATOM     38  CD1 MOL d         -28.293  45.598  36.111  0.00  0.00    -0.074 A 
ATOM     39  H15 MOL d         -26.908  47.242  36.056  0.00  0.00     0.087 H 
ATOM     40  H13 MOL d         -27.518  44.848  36.226  0.00  0.00     0.084 H 
BRANCH  35  41
ATOM     41  OH  MOL d         -28.592  49.226  35.756  0.00  0.00    -0.240 OA
BRANCH  41  42
ATOM     42  P   MOL d         -28.297  50.192  36.895  0.00  0.00     0.427 P 
ATOM     43  O3P MOL d         -26.886  49.873  37.459  0.00  0.00    -0.617 OA
ATOM     44  O2P MOL d         -28.387  51.590  36.507  0.00  0.00    -0.617 OA
ATOM     45  O1P MOL d         -29.270  49.917  37.923  0.00  0.00    -0.617 OA
ENDBRANCH  41  42
ENDBRANCH  35  41
ENDBRANCH  28  31
ENDBRANCH   5  28
ENDBRANCH   1   5
BRANCH   3  46
ATOM     46  CA  MOL d         -28.428  42.937  31.807  0.00  0.00     0.114 C 
BRANCH  46  47
ATOM     47  CB  MOL d         -27.270  43.874  32.306  0.00  0.00    -0.009 C 
ATOM     48  H21 MOL d         -26.385  43.681  31.682  0.00  0.00     0.044 H 
ATOM     49  H22 MOL d         -27.047  43.609  33.350  0.00  0.00     0.044 H 
BRANCH  47  50
ATOM     50  CG  MOL d         -27.565  45.378  32.254  0.00  0.00    -0.055 A 
ATOM     51  CD2 MOL d         -26.527  46.283  32.007  0.00  0.00    -0.074 A 
ATOM     52  CE2 MOL d         -26.751  47.684  31.935  0.00  0.00    -0.050 A 
ATOM     53  H24 MOL d         -25.521  45.904  31.866  0.00  0.00     0.084 H 
ATOM     54  CZ  MOL d         -28.073  48.106  32.126  0.00  0.00     0.082 A 
ATOM     55  H26 MOL d         -25.947  48.386  31.745  0.00  0.00     0.087 H 
ATOM     56  CE1 MOL d         -29.139  47.218  32.371  0.00  0.00    -0.050 A 
ATOM     57  CD1 MOL d         -28.890  45.847  32.438  0.00  0.00    -0.074 A 
ATOM     58  H25 MOL d         -30.146  47.598  32.506  0.00  0.00     0.087 H 
ATOM     59  H23 MOL d         -29.698  45.150  32.629  0.00  0.00     0.084 H 
BRANCH  54  60
ATOM     60  OH  MOL d         -28.296  49.495  32.062  0.00  0.00    -0.240 OA
BRANCH  60  61
ATOM     61  P   MOL d         -29.828  50.107  31.900  0.00  0.00     0.427 P 
ATOM     62  O3P MOL d         -30.487  49.527  30.695  0.00  0.00    -0.617 OA
ATOM     63  O2P MOL d         -30.629  49.728  33.090  0.00  0.00    -0.617 OA
ATOM     64  O1P MOL d         -29.641  51.559  31.725  0.00  0.00    -0.617 OA
ENDBRANCH  60  61
ENDBRANCH  54  60
ENDBRANCH  47  50
ENDBRANCH  46  47
BRANCH  46  65
ATOM     65  C   MOL d         -27.862  41.494  31.800  0.00  0.00     0.246 C 
ATOM     66  O   MOL d         -28.628  40.512  31.740  0.00  0.00    -0.271 OA
ATOM     67  N   MOL d         -26.557  41.336  31.920  0.00  0.00    -0.344 N 
ATOM     68  H27 MOL d         -25.956  42.132  31.998  0.00  0.00     0.163 HD
BRANCH  67  69
ATOM     69  CA  MOL d         -26.009  39.998  31.939  0.00  0.00     0.104 C 
ATOM     70  H28 MOL d         -26.809  39.287  32.195  0.00  0.00     0.090 H 
BRANCH  69  71
ATOM     71  C   MOL d         -24.907  39.927  32.998  0.00  0.00     0.197 C 
ATOM     72  OXT MOL d         -24.412  40.995  33.350  0.00  0.00    -0.646 OA
ATOM     73  O   MOL d         -24.516  38.814  33.473  0.00  0.00    -0.646 OA
ENDBRANCH  69  71
BRANCH  69  74
ATOM     74  CB  MOL d         -25.411  39.607  30.559  0.00  0.00     0.037 C 
ATOM     75  H29 MOL d         -24.528  38.972  30.726  0.00  0.00     0.051 H 
ATOM     76  H30 MOL d         -25.108  40.526  30.036  0.00  0.00     0.051 H 
BRANCH  74  77
ATOM     77  CG  MOL d         -26.428  38.821  29.645  0.00  0.00     0.217 C 
ATOM     78  OD1 MOL d         -27.113  39.394  28.852  0.00  0.00    -0.274 OA
ATOM     79  ND2 MOL d         -26.505  37.532  29.823  0.00  0.00    -0.370 N 
ATOM     80  H31 MOL d         -27.135  36.988  29.268  0.00  0.00     0.159 HD
ATOM     81  H32 MOL d         -25.935  37.087  30.513  0.00  0.00     0.159 HD
ENDBRANCH  74  77
ENDBRANCH  69  74
ENDBRANCH  67  69
ENDBRANCH  46  65
BRANCH  46  82
ATOM     82  CH3 MOL d         -28.850  43.611  30.473  0.00  0.00    -0.044 C 
ATOM     83  H18 MOL d         -29.797  44.151  30.619  0.00  0.00     0.031 H 
ATOM     84  H19 MOL d         -28.983  42.841  29.698  0.00  0.00     0.031 H 
ATOM     85  H20 MOL d         -28.070  44.319  30.157  0.00  0.00     0.031 H 
ENDBRANCH  46  82
ENDBRANCH   3  46
TORSDOF 21
ENDMDL
MODEL 8
REMARK VINA RESULT:      -4.1      3.465      7.808
REMARK  21 active torsions:
REMARK  status: ('A' for Active; 'I' for Inactive)
REMARK    1  A    between atoms: C12_6  and  C3_3 
REMARK    2  A    between atoms: O13_7  and  C12_6 
REMARK    3  A    between atoms: C16_8  and  O13_7 
REMARK    4  A    between atoms: C5_11  and  N11_10 
REMARK    5  A    between atoms: CA_13  and  N_12 
REMARK    6  A    between atoms: CA_13  and  CB_16 
REMARK    7  A    between atoms: C_14  and  CA_13 
REMARK       I    between atoms: N_28  and  C_14 
REMARK    8  A    between atoms: CB_16  and  CG_17 
REMARK    9  A    between atoms: CZ_22  and  OH_23 
REMARK   10  A    between atoms: OH_23  and  P_24 
REMARK   11  A    between atoms: CA_29  and  N_28 
REMARK   12  A    between atoms: CA_29  and  CB_33 
REMARK   13  A    between atoms: C_31  and  CA_29 
REMARK   14  A    between atoms: CA_29  and  CH3_30 
REMARK       I    between atoms: C_31  and  N_45 
REMARK   15  A    between atoms: CB_33  and  CG_34 
REMARK   16  A    between atoms: CZ_39  and  OH_40 
REMARK   17  A    between atoms: OH_40  and  P_41 
REMARK   18  A    between atoms: N_45  and  CA_46 
REMARK   19  A    between atoms: CA_46  and  C_47 
REMARK   20  A    between atoms: CA_46  and  CB_49 
REMARK   21  A    between atoms: CB_49  and  CG_50 
REMARK       I    between atoms: CG_50  and  ND2_52 
ROOT
ATOM      1  C   MOL d         -28.762  43.313  33.340  0.00  0.00     0.241 C 
ATOM      2  O   MOL d         -27.657  42.947  32.859  0.00  0.00    -0.271 OA
ATOM      3  N   MOL d         -29.847  43.541  32.663  0.00  0.00    -0.341 N 
ATOM      4  H17 MOL d         -30.691  43.755  33.154  0.00  0.00     0.163 HD
ENDROOT
BRANCH   1   5
ATOM      5  CA  MOL d         -29.058  43.381  34.802  0.00  0.00     0.094 C 
ATOM      6  H10 MOL d         -28.457  42.674  35.392  0.00  0.00     0.088 H 
BRANCH   5   7
ATOM      7  N   MOL d         -28.721  44.722  35.094  0.00  0.00    -0.335 N 
ATOM      8  C16 MOL d         -28.333  45.210  36.248  0.00  0.00     0.292 C 
ATOM      9  O18 MOL d         -27.586  44.430  37.101  0.00  0.00    -0.143 OA
ATOM     10  H9  MOL d         -28.786  45.372  34.336  0.00  0.00     0.164 HD
BRANCH   8  11
ATOM     11  O13 MOL d         -28.273  46.512  36.205  0.00  0.00    -0.310 OA
BRANCH  11  12
ATOM     12  C12 MOL d         -27.155  47.380  36.451  0.00  0.00     0.053 C 
ATOM     13  H5  MOL d         -26.914  47.277  37.519  0.00  0.00     0.082 H 
ATOM     14  H6  MOL d         -26.322  46.988  35.847  0.00  0.00     0.082 H 
BRANCH  12  15
ATOM     15  C3  MOL d         -27.215  48.838  36.178  0.00  0.00    -0.032 A 
ATOM     16  C2  MOL d         -26.586  49.785  37.006  0.00  0.00    -0.075 A 
ATOM     17  C1  MOL d         -26.669  51.163  36.656  0.00  0.00    -0.080 A 
ATOM     18  H2  MOL d         -26.049  49.472  37.894  0.00  0.00     0.084 H 
ATOM     19  C6  MOL d         -27.398  51.563  35.501  0.00  0.00    -0.058 A 
ATOM     20  H1  MOL d         -26.175  51.909  37.270  0.00  0.00     0.083 H 
ATOM     21  C5  MOL d         -28.029  50.593  34.700  0.00  0.00     0.026 A 
ATOM     22  H4  MOL d         -27.466  52.613  35.238  0.00  0.00     0.086 H 
ATOM     23  C4  MOL d         -27.930  49.236  35.035  0.00  0.00    -0.050 A 
ATOM     24  H3  MOL d         -28.407  48.490  34.410  0.00  0.00     0.087 H 
BRANCH  21  25
ATOM     25  N11 MOL d         -28.739  50.948  33.606  0.00  0.00    -0.399 N 
ATOM     26  H7  MOL d         -29.502  51.635  33.687  0.00  0.00     0.156 HD
ATOM     27  H8  MOL d         -28.517  50.531  32.690  0.00  0.00     0.156 HD
ENDBRANCH  21  25
ENDBRANCH  12  15
ENDBRANCH  11  12
ENDBRANCH   8  11
ENDBRANCH   5   7
BRANCH   5  28
ATOM     28  CB  MOL d         -30.576  43.084  34.977  0.00  0.00    -0.014 C 
ATOM     29  H11 MOL d         -31.057  43.100  33.987  0.00  0.00     0.043 H 
ATOM     30  H12 MOL d         -31.019  43.865  35.612  0.00  0.00     0.043 H 
BRANCH  28  31
ATOM     31  CG  MOL d         -30.828  41.725  35.623  0.00  0.00    -0.056 A 
ATOM     32  CD2 MOL d         -31.267  41.618  36.968  0.00  0.00    -0.074 A 
ATOM     33  CE2 MOL d         -31.511  40.349  37.549  0.00  0.00    -0.050 A 
ATOM     34  H14 MOL d         -31.417  42.516  37.556  0.00  0.00     0.084 H 
ATOM     35  CZ  MOL d         -31.307  39.218  36.702  0.00  0.00     0.082 A 
ATOM     36  H16 MOL d         -31.835  40.244  38.577  0.00  0.00     0.087 H 
ATOM     37  CE1 MOL d         -30.882  39.304  35.376  0.00  0.00    -0.050 A 
ATOM     38  CD1 MOL d         -30.640  40.556  34.839  0.00  0.00    -0.074 A 
ATOM     39  H15 MOL d         -30.744  38.409  34.779  0.00  0.00     0.087 H 
ATOM     40  H13 MOL d         -30.304  40.646  33.812  0.00  0.00     0.084 H 
BRANCH  35  41
ATOM     41  OH  MOL d         -31.540  37.938  37.230  0.00  0.00    -0.240 OA
BRANCH  41  42
ATOM     42  P   MOL d         -30.501  36.882  37.584  0.00  0.00     0.427 P 
ATOM     43  O3P MOL d         -30.318  35.941  36.363  0.00  0.00    -0.617 OA
ATOM     44  O2P MOL d         -29.224  37.441  37.993  0.00  0.00    -0.617 OA
ATOM     45  O1P MOL d         -31.058  36.114  38.671  0.00  0.00    -0.617 OA
ENDBRANCH  41  42
ENDBRANCH  35  41
ENDBRANCH  28  31
ENDBRANCH   5  28
ENDBRANCH   1   5
BRANCH   3  46
ATOM     46  CA  MOL d         -29.867  43.494  31.234  0.00  0.00     0.114 C 
BRANCH  46  47
ATOM     47  CB  MOL d         -29.022  44.762  30.854  0.00  0.00    -0.009 C 
ATOM     48  H21 MOL d         -28.572  44.585  29.866  0.00  0.00     0.044 H 
ATOM     49  H22 MOL d         -28.225  44.874  31.605  0.00  0.00     0.044 H 
BRANCH  47  50
ATOM     50  CG  MOL d         -29.799  46.082  30.790  0.00  0.00    -0.055 A 
ATOM     51  CD2 MOL d         -30.176  46.726  31.973  0.00  0.00    -0.074 A 
ATOM     52  CE2 MOL d         -30.885  47.958  31.966  0.00  0.00    -0.050 A 
ATOM     53  H24 MOL d         -29.920  46.273  32.924  0.00  0.00     0.084 H 
ATOM     54  CZ  MOL d         -31.183  48.489  30.705  0.00  0.00     0.082 A 
ATOM     55  H26 MOL d         -31.177  48.457  32.883  0.00  0.00     0.087 H 
ATOM     56  CE1 MOL d         -30.812  47.866  29.497  0.00  0.00    -0.050 A 
ATOM     57  CD1 MOL d         -30.118  46.656  29.533  0.00  0.00    -0.074 A 
ATOM     58  H25 MOL d         -31.063  48.324  28.547  0.00  0.00     0.087 H 
ATOM     59  H23 MOL d         -29.828  46.161  28.614  0.00  0.00     0.084 H 
BRANCH  54  60
ATOM     60  OH  MOL d         -31.891  49.707  30.697  0.00  0.00    -0.240 OA
BRANCH  60  61
ATOM     61  P   MOL d         -31.095  51.157  30.807  0.00  0.00     0.427 P 
ATOM     62  O3P MOL d         -31.287  51.744  32.163  0.00  0.00    -0.617 OA
ATOM     63  O2P MOL d         -29.644  50.930  30.604  0.00  0.00    -0.617 OA
ATOM     64  O1P MOL d         -31.729  52.016  29.790  0.00  0.00    -0.617 OA
ENDBRANCH  60  61
ENDBRANCH  54  60
ENDBRANCH  47  50
ENDBRANCH  46  47
BRANCH  46  65
ATOM     65  C   MOL d         -29.111  42.267  30.664  0.00  0.00     0.246 C 
ATOM     66  O   MOL d         -28.250  42.409  29.774  0.00  0.00    -0.271 OA
ATOM     67  N   MOL d         -29.446  41.069  31.105  0.00  0.00    -0.344 N 
ATOM     68  H27 MOL d         -30.159  40.965  31.798  0.00  0.00     0.163 HD
BRANCH  67  69
ATOM     69  CA  MOL d         -28.769  39.907  30.571  0.00  0.00     0.104 C 
ATOM     70  H28 MOL d         -27.972  40.240  29.889  0.00  0.00     0.090 H 
BRANCH  69  71
ATOM     71  C   MOL d         -29.777  39.056  29.797  0.00  0.00     0.197 C 
ATOM     72  OXT MOL d         -29.629  39.000  28.578  0.00  0.00    -0.646 OA
ATOM     73  O   MOL d         -30.728  38.453  30.389  0.00  0.00    -0.646 OA
ENDBRANCH  69  71
BRANCH  69  74
ATOM     74  CB  MOL d         -28.139  39.045  31.700  0.00  0.00     0.037 C 
ATOM     75  H29 MOL d         -28.126  37.995  31.373  0.00  0.00     0.051 H 
ATOM     76  H30 MOL d         -28.762  39.140  32.602  0.00  0.00     0.051 H 
BRANCH  74  77
ATOM     77  CG  MOL d         -26.666  39.477  32.059  0.00  0.00     0.217 C 
ATOM     78  OD1 MOL d         -26.066  38.945  32.945  0.00  0.00    -0.274 OA
ATOM     79  ND2 MOL d         -26.155  40.458  31.369  0.00  0.00    -0.370 N 
ATOM     80  H31 MOL d         -25.224  40.770  31.558  0.00  0.00     0.159 HD
ATOM     81  H32 MOL d         -26.694  40.898  30.651  0.00  0.00     0.159 HD
ENDBRANCH  74  77
ENDBRANCH  69  74
ENDBRANCH  67  69
ENDBRANCH  46  65
BRANCH  46  82
ATOM     82  CH3 MOL d         -31.276  43.858  30.692  0.00  0.00    -0.044 C 
ATOM     83  H18 MOL d         -31.671  43.018  30.102  0.00  0.00     0.031 H 
ATOM     84  H19 MOL d         -31.204  44.751  30.053  0.00  0.00     0.031 H 
ATOM     85  H20 MOL d         -31.952  44.064  31.535  0.00  0.00     0.031 H 
ENDBRANCH  46  82
ENDBRANCH   3  46
TORSDOF 21
ENDMDL
MODEL 9
REMARK VINA RESULT:      -3.9      1.502      2.158
REMARK  21 active torsions:
REMARK  status: ('A' for Active; 'I' for Inactive)
REMARK    1  A    between atoms: C12_6  and  C3_3 
REMARK    2  A    between atoms: O13_7  and  C12_6 
REMARK    3  A    between atoms: C16_8  and  O13_7 
REMARK    4  A    between atoms: C5_11  and  N11_10 
REMARK    5  A    between atoms: CA_13  and  N_12 
REMARK    6  A    between atoms: CA_13  and  CB_16 
REMARK    7  A    between atoms: C_14  and  CA_13 
REMARK       I    between atoms: N_28  and  C_14 
REMARK    8  A    between atoms: CB_16  and  CG_17 
REMARK    9  A    between atoms: CZ_22  and  OH_23 
REMARK   10  A    between atoms: OH_23  and  P_24 
REMARK   11  A    between atoms: CA_29  and  N_28 
REMARK   12  A    between atoms: CA_29  and  CB_33 
REMARK   13  A    between atoms: C_31  and  CA_29 
REMARK   14  A    between atoms: CA_29  and  CH3_30 
REMARK       I    between atoms: C_31  and  N_45 
REMARK   15  A    between atoms: CB_33  and  CG_34 
REMARK   16  A    between atoms: CZ_39  and  OH_40 
REMARK   17  A    between atoms: OH_40  and  P_41 
REMARK   18  A    between atoms: N_45  and  CA_46 
REMARK   19  A    between atoms: CA_46  and  C_47 
REMARK   20  A    between atoms: CA_46  and  CB_49 
REMARK   21  A    between atoms: CB_49  and  CG_50 
REMARK       I    between atoms: CG_50  and  ND2_52 
ROOT
ATOM      1  C   MOL d         -29.200  43.436  33.830  0.00  0.00     0.241 C 
ATOM      2  O   MOL d         -28.222  42.899  34.415  0.00  0.00    -0.271 OA
ATOM      3  N   MOL d         -29.329  43.584  32.546  0.00  0.00    -0.341 N 
ATOM      4  H17 MOL d         -30.182  43.958  32.183  0.00  0.00     0.163 HD
ENDROOT
BRANCH   1   5
ATOM      5  CA  MOL d         -30.463  43.844  34.513  0.00  0.00     0.094 C 
ATOM      6  H10 MOL d         -30.984  44.662  33.995  0.00  0.00     0.088 H 
BRANCH   5   7
ATOM      7  N   MOL d         -31.205  42.642  34.468  0.00  0.00    -0.335 N 
ATOM      8  C16 MOL d         -30.914  41.505  35.056  0.00  0.00     0.292 C 
ATOM      9  O18 MOL d         -30.265  41.513  36.269  0.00  0.00    -0.143 OA
ATOM     10  H9  MOL d         -32.047  42.659  33.928  0.00  0.00     0.164 HD
BRANCH   8  11
ATOM     11  O13 MOL d         -31.720  40.559  34.663  0.00  0.00    -0.310 OA
BRANCH  11  12
ATOM     12  C12 MOL d         -31.414  39.307  34.028  0.00  0.00     0.053 C 
ATOM     13  H5  MOL d         -32.356  38.741  33.994  0.00  0.00     0.082 H 
ATOM     14  H6  MOL d         -31.094  39.551  33.004  0.00  0.00     0.082 H 
BRANCH  12  15
ATOM     15  C3  MOL d         -30.391  38.378  34.572  0.00  0.00    -0.032 A 
ATOM     16  C2  MOL d         -29.208  38.072  33.876  0.00  0.00    -0.075 A 
ATOM     17  C1  MOL d         -28.264  37.193  34.482  0.00  0.00    -0.080 A 
ATOM     18  H2  MOL d         -29.017  38.496  32.897  0.00  0.00     0.084 H 
ATOM     19  C6  MOL d         -28.538  36.624  35.757  0.00  0.00    -0.058 A 
ATOM     20  H1  MOL d         -27.337  36.959  33.972  0.00  0.00     0.083 H 
ATOM     21  C5  MOL d         -29.739  36.939  36.422  0.00  0.00     0.026 A 
ATOM     22  H4  MOL d         -27.824  35.950  36.216  0.00  0.00     0.086 H 
ATOM     23  C4  MOL d         -30.656  37.818  35.833  0.00  0.00    -0.050 A 
ATOM     24  H3  MOL d         -31.574  38.068  36.353  0.00  0.00     0.087 H 
BRANCH  21  25
ATOM     25  N11 MOL d         -30.028  36.400  37.628  0.00  0.00    -0.399 N 
ATOM     26  H7  MOL d         -30.999  36.141  37.857  0.00  0.00     0.156 HD
ATOM     27  H8  MOL d         -29.278  36.248  38.318  0.00  0.00     0.156 HD
ENDBRANCH  21  25
ENDBRANCH  12  15
ENDBRANCH  11  12
ENDBRANCH   8  11
ENDBRANCH   5   7
BRANCH   5  28
ATOM     28  CB  MOL d         -30.085  44.270  35.962  0.00  0.00    -0.014 C 
ATOM     29  H11 MOL d         -29.246  43.648  36.307  0.00  0.00     0.043 H 
ATOM     30  H12 MOL d         -30.954  44.108  36.617  0.00  0.00     0.043 H 
BRANCH  28  31
ATOM     31  CG  MOL d         -29.674  45.737  36.043  0.00  0.00    -0.056 A 
ATOM     32  CD2 MOL d         -28.380  46.163  35.649  0.00  0.00    -0.074 A 
ATOM     33  CE2 MOL d         -28.019  47.532  35.716  0.00  0.00    -0.050 A 
ATOM     34  H14 MOL d         -27.660  45.435  35.294  0.00  0.00     0.084 H 
ATOM     35  CZ  MOL d         -29.029  48.429  36.179  0.00  0.00     0.082 A 
ATOM     36  H16 MOL d         -27.032  47.878  35.432  0.00  0.00     0.087 H 
ATOM     37  CE1 MOL d         -30.309  48.029  36.564  0.00  0.00    -0.050 A 
ATOM     38  CD1 MOL d         -30.629  46.684  36.498  0.00  0.00    -0.074 A 
ATOM     39  H15 MOL d         -31.037  48.756  36.906  0.00  0.00     0.087 H 
ATOM     40  H13 MOL d         -31.616  46.350  36.797  0.00  0.00     0.084 H 
BRANCH  35  41
ATOM     41  OH  MOL d         -28.722  49.796  36.259  0.00  0.00    -0.240 OA
BRANCH  41  42
ATOM     42  P   MOL d         -27.339  50.431  36.298  0.00  0.00     0.427 P 
ATOM     43  O3P MOL d         -27.505  51.975  36.320  0.00  0.00    -0.617 OA
ATOM     44  O2P MOL d         -26.530  49.989  37.422  0.00  0.00    -0.617 OA
ATOM     45  O1P MOL d         -26.687  50.062  35.065  0.00  0.00    -0.617 OA
ENDBRANCH  41  42
ENDBRANCH  35  41
ENDBRANCH  28  31
ENDBRANCH   5  28
ENDBRANCH   1   5
BRANCH   3  46
ATOM     46  CA  MOL d         -28.285  43.226  31.637  0.00  0.00     0.114 C 
BRANCH  46  47
ATOM     47  CB  MOL d         -27.270  44.410  31.824  0.00  0.00    -0.009 C 
ATOM     48  H21 MOL d         -26.399  44.214  31.181  0.00  0.00     0.044 H 
ATOM     49  H22 MOL d         -26.954  44.421  32.878  0.00  0.00     0.044 H 
BRANCH  47  50
ATOM     50  CG  MOL d         -27.807  45.804  31.478  0.00  0.00    -0.055 A 
ATOM     51  CD2 MOL d         -29.005  46.250  32.048  0.00  0.00    -0.074 A 
ATOM     52  CE2 MOL d         -29.537  47.538  31.769  0.00  0.00    -0.050 A 
ATOM     53  H24 MOL d         -29.543  45.593  32.722  0.00  0.00     0.084 H 
ATOM     54  CZ  MOL d         -28.791  48.335  30.891  0.00  0.00     0.082 A 
ATOM     55  H26 MOL d         -30.465  47.884  32.211  0.00  0.00     0.087 H 
ATOM     56  CE1 MOL d         -27.580  47.915  30.307  0.00  0.00    -0.050 A 
ATOM     57  CD1 MOL d         -27.082  46.644  30.596  0.00  0.00    -0.074 A 
ATOM     58  H25 MOL d         -27.039  48.575  29.637  0.00  0.00     0.087 H 
ATOM     59  H23 MOL d         -26.154  46.304  30.152  0.00  0.00     0.084 H 
BRANCH  54  60
ATOM     60  OH  MOL d         -29.320  49.609  30.610  0.00  0.00    -0.240 OA
BRANCH  60  61
ATOM     61  P   MOL d         -30.056  50.508  31.792  0.00  0.00     0.427 P 
ATOM     62  O3P MOL d         -30.165  51.931  31.362  0.00  0.00    -0.617 OA
ATOM     63  O2P MOL d         -31.427  49.987  32.014  0.00  0.00    -0.617 OA
ATOM     64  O1P MOL d         -29.164  50.401  32.961  0.00  0.00    -0.617 OA
ENDBRANCH  60  61
ENDBRANCH  54  60
ENDBRANCH  47  50
ENDBRANCH  46  47
BRANCH  46  65
ATOM     65  C   MOL d         -27.542  41.932  32.058  0.00  0.00     0.246 C 
ATOM     66  O   MOL d         -28.167  40.865  32.216  0.00  0.00    -0.271 OA
ATOM     67  N   MOL d         -26.247  42.008  32.301  0.00  0.00    -0.344 N 
ATOM     68  H27 MOL d         -25.763  42.878  32.200  0.00  0.00     0.163 HD
BRANCH  67  69
ATOM     69  CA  MOL d         -25.538  40.818  32.717  0.00  0.00     0.104 C 
ATOM     70  H28 MOL d         -26.133  40.296  33.482  0.00  0.00     0.090 H 
BRANCH  69  71
ATOM     71  C   MOL d         -24.190  41.226  33.313  0.00  0.00     0.197 C 
ATOM     72  OXT MOL d         -23.669  40.431  34.093  0.00  0.00    -0.646 OA
ATOM     73  O   MOL d         -23.648  42.340  33.026  0.00  0.00    -0.646 OA
ENDBRANCH  69  71
BRANCH  69  74
ATOM     74  CB  MOL d         -25.293  39.854  31.523  0.00  0.00     0.037 C 
ATOM     75  H29 MOL d         -24.236  39.924  31.228  0.00  0.00     0.051 H 
ATOM     76  H30 MOL d         -25.930  40.167  30.684  0.00  0.00     0.051 H 
BRANCH  74  77
ATOM     77  CG  MOL d         -25.620  38.350  31.867  0.00  0.00     0.217 C 
ATOM     78  OD1 MOL d         -26.372  37.712  31.192  0.00  0.00    -0.274 OA
ATOM     79  ND2 MOL d         -25.058  37.854  32.934  0.00  0.00    -0.370 N 
ATOM     80  H31 MOL d         -25.233  36.904  33.195  0.00  0.00     0.159 HD
ATOM     81  H32 MOL d         -24.452  38.422  33.491  0.00  0.00     0.159 HD
ENDBRANCH  74  77
ENDBRANCH  69  74
ENDBRANCH  67  69
ENDBRANCH  46  65
BRANCH  46  82
ATOM     82  CH3 MOL d         -28.748  43.412  30.167  0.00  0.00    -0.044 C 
ATOM     83  H18 MOL d         -28.749  42.437  29.657  0.00  0.00     0.031 H 
ATOM     84  H19 MOL d         -28.059  44.096  29.649  0.00  0.00     0.031 H 
ATOM     85  H20 MOL d         -29.763  43.833  30.153  0.00  0.00     0.031 H 
ENDBRANCH  46  82
ENDBRANCH   3  46
TORSDOF 21
ENDMDL
MODEL 10
REMARK VINA RESULT:      -3.5      3.827      9.031
REMARK  21 active torsions:
REMARK  status: ('A' for Active; 'I' for Inactive)
REMARK    1  A    between atoms: C12_6  and  C3_3 
REMARK    2  A    between atoms: O13_7  and  C12_6 
REMARK    3  A    between atoms: C16_8  and  O13_7 
REMARK    4  A    between atoms: C5_11  and  N11_10 
REMARK    5  A    between atoms: CA_13  and  N_12 
REMARK    6  A    between atoms: CA_13  and  CB_16 
REMARK    7  A    between atoms: C_14  and  CA_13 
REMARK       I    between atoms: N_28  and  C_14 
REMARK    8  A    between atoms: CB_16  and  CG_17 
REMARK    9  A    between atoms: CZ_22  and  OH_23 
REMARK   10  A    between atoms: OH_23  and  P_24 
REMARK   11  A    between atoms: CA_29  and  N_28 
REMARK   12  A    between atoms: CA_29  and  CB_33 
REMARK   13  A    between atoms: C_31  and  CA_29 
REMARK   14  A    between atoms: CA_29  and  CH3_30 
REMARK       I    between atoms: C_31  and  N_45 
REMARK   15  A    between atoms: CB_33  and  CG_34 
REMARK   16  A    between atoms: CZ_39  and  OH_40 
REMARK   17  A    between atoms: OH_40  and  P_41 
REMARK   18  A    between atoms: N_45  and  CA_46 
REMARK   19  A    between atoms: CA_46  and  C_47 
REMARK   20  A    between atoms: CA_46  and  CB_49 
REMARK   21  A    between atoms: CB_49  and  CG_50 
REMARK       I    between atoms: CG_50  and  ND2_52 
ROOT
ATOM      1  C   MOL d         -31.221  46.135  35.873  0.00  0.00     0.241 C 
ATOM      2  O   MOL d         -31.909  45.658  36.814  0.00  0.00    -0.271 OA
ATOM      3  N   MOL d         -30.396  45.469  35.122  0.00  0.00    -0.341 N 
ATOM      4  H17 MOL d         -29.956  45.932  34.353  0.00  0.00     0.163 HD
ENDROOT
BRANCH   1   5
ATOM      5  CA  MOL d         -31.368  47.525  35.348  0.00  0.00     0.094 C 
ATOM      6  H10 MOL d         -32.131  48.106  35.886  0.00  0.00     0.088 H 
BRANCH   5   7
ATOM      7  N   MOL d         -30.071  48.043  35.561  0.00  0.00    -0.335 N 
ATOM      8  C16 MOL d         -29.715  48.961  36.429  0.00  0.00     0.292 C 
ATOM      9  O18 MOL d         -30.367  49.044  37.637  0.00  0.00    -0.143 OA
ATOM     10  H9  MOL d         -29.343  47.670  34.985  0.00  0.00     0.164 HD
BRANCH   8  11
ATOM     11  O13 MOL d         -28.477  49.325  36.238  0.00  0.00    -0.310 OA
BRANCH  11  12
ATOM     12  C12 MOL d         -27.660  50.215  37.016  0.00  0.00     0.053 C 
ATOM     13  H5  MOL d         -27.846  49.960  38.070  0.00  0.00     0.082 H 
ATOM     14  H6  MOL d         -26.617  49.978  36.759  0.00  0.00     0.082 H 
BRANCH  12  15
ATOM     15  C3  MOL d         -27.788  51.690  36.916  0.00  0.00    -0.032 A 
ATOM     16  C2  MOL d         -27.072  52.445  35.969  0.00  0.00    -0.075 A 
ATOM     17  C1  MOL d         -27.275  53.854  35.922  0.00  0.00    -0.080 A 
ATOM     18  H2  MOL d         -26.380  51.963  35.289  0.00  0.00     0.084 H 
ATOM     19  C6  MOL d         -28.169  54.476  36.837  0.00  0.00    -0.058 A 
ATOM     20  H1  MOL d         -26.749  54.453  35.187  0.00  0.00     0.083 H 
ATOM     21  C5  MOL d         -28.859  53.696  37.783  0.00  0.00     0.026 A 
ATOM     22  H4  MOL d         -28.318  55.550  36.806  0.00  0.00     0.086 H 
ATOM     23  C4  MOL d         -28.673  52.308  37.816  0.00  0.00    -0.050 A 
ATOM     24  H3  MOL d         -29.216  51.707  38.538  0.00  0.00     0.087 H 
BRANCH  21  25
ATOM     25  N11 MOL d         -29.703  54.265  38.673  0.00  0.00    -0.399 N 
ATOM     26  H7  MOL d         -29.701  53.956  39.656  0.00  0.00     0.156 HD
ATOM     27  H8  MOL d         -30.349  55.009  38.369  0.00  0.00     0.156 HD
ENDBRANCH  21  25
ENDBRANCH  12  15
ENDBRANCH  11  12
ENDBRANCH   8  11
ENDBRANCH   5   7
BRANCH   5  28
ATOM     28  CB  MOL d         -31.737  47.409  33.840  0.00  0.00    -0.014 C 
ATOM     29  H11 MOL d         -32.532  48.134  33.612  0.00  0.00     0.043 H 
ATOM     30  H12 MOL d         -32.102  46.390  33.642  0.00  0.00     0.043 H 
BRANCH  28  31
ATOM     31  CG  MOL d         -30.543  47.687  32.931  0.00  0.00    -0.056 A 
ATOM     32  CD2 MOL d         -29.965  46.662  32.138  0.00  0.00    -0.074 A 
ATOM     33  CE2 MOL d         -28.867  46.940  31.287  0.00  0.00    -0.050 A 
ATOM     34  H14 MOL d         -30.369  45.657  32.183  0.00  0.00     0.084 H 
ATOM     35  CZ  MOL d         -28.407  48.292  31.272  0.00  0.00     0.082 A 
ATOM     36  H16 MOL d         -28.403  46.171  30.682  0.00  0.00     0.087 H 
ATOM     37  CE1 MOL d         -28.966  49.314  32.040  0.00  0.00    -0.050 A 
ATOM     38  CD1 MOL d         -30.031  49.009  32.870  0.00  0.00    -0.074 A 
ATOM     39  H15 MOL d         -28.576  50.324  31.987  0.00  0.00     0.087 H 
ATOM     40  H13 MOL d         -30.478  49.787  33.480  0.00  0.00     0.084 H 
BRANCH  35  41
ATOM     41  OH  MOL d         -27.323  48.620  30.442  0.00  0.00    -0.240 OA
BRANCH  41  42
ATOM     42  P   MOL d         -25.871  48.196  30.609  0.00  0.00     0.427 P 
ATOM     43  O3P MOL d         -25.007  49.468  30.818  0.00  0.00    -0.617 OA
ATOM     44  O2P MOL d         -25.664  47.255  31.697  0.00  0.00    -0.617 OA
ATOM     45  O1P MOL d         -25.481  47.581  29.364  0.00  0.00    -0.617 OA
ENDBRANCH  41  42
ENDBRANCH  35  41
ENDBRANCH  28  31
ENDBRANCH   5  28
ENDBRANCH   1   5
BRANCH   3  46
ATOM     46  CA  MOL d         -30.101  44.091  35.365  0.00  0.00     0.114 C 
BRANCH  46  47
ATOM     47  CB  MOL d         -31.532  43.487  35.595  0.00  0.00    -0.009 C 
ATOM     48  H21 MOL d         -32.168  43.791  34.751  0.00  0.00     0.044 H 
ATOM     49  H22 MOL d         -31.933  43.912  36.528  0.00  0.00     0.044 H 
BRANCH  47  50
ATOM     50  CG  MOL d         -31.597  41.959  35.708  0.00  0.00    -0.055 A 
ATOM     51  CD2 MOL d         -31.471  41.347  36.960  0.00  0.00    -0.074 A 
ATOM     52  CE2 MOL d         -31.538  39.937  37.118  0.00  0.00    -0.050 A 
ATOM     53  H24 MOL d         -31.317  41.968  37.835  0.00  0.00     0.084 H 
ATOM     54  CZ  MOL d         -31.738  39.195  35.946  0.00  0.00     0.082 A 
ATOM     55  H26 MOL d         -31.440  39.462  38.088  0.00  0.00     0.087 H 
ATOM     56  CE1 MOL d         -31.874  39.783  34.674  0.00  0.00    -0.050 A 
ATOM     57  CD1 MOL d         -31.802  41.171  34.547  0.00  0.00    -0.074 A 
ATOM     58  H25 MOL d         -32.034  39.162  33.799  0.00  0.00     0.087 H 
ATOM     59  H23 MOL d         -31.901  41.640  33.575  0.00  0.00     0.084 H 
BRANCH  54  60
ATOM     60  OH  MOL d         -31.798  37.797  36.101  0.00  0.00    -0.240 OA
BRANCH  60  61
ATOM     61  P   MOL d         -30.419  36.878  36.104  0.00  0.00     0.427 P 
ATOM     62  O3P MOL d         -30.231  36.232  34.773  0.00  0.00    -0.617 OA
ATOM     63  O2P MOL d         -29.252  37.757  36.358  0.00  0.00    -0.617 OA
ATOM     64  O1P MOL d         -30.648  35.850  37.136  0.00  0.00    -0.617 OA
ENDBRANCH  60  61
ENDBRANCH  54  60
ENDBRANCH  47  50
ENDBRANCH  46  47
BRANCH  46  65
ATOM     65  C   MOL d         -29.510  43.377  34.122  0.00  0.00     0.246 C 
ATOM     66  O   MOL d         -30.034  43.519  33.000  0.00  0.00    -0.271 OA
ATOM     67  N   MOL d         -28.480  42.571  34.298  0.00  0.00    -0.344 N 
ATOM     68  H27 MOL d         -28.087  42.442  35.209  0.00  0.00     0.163 HD
BRANCH  67  69
ATOM     69  CA  MOL d         -27.926  41.877  33.156  0.00  0.00     0.104 C 
ATOM     70  H28 MOL d         -28.114  42.472  32.250  0.00  0.00     0.090 H 
BRANCH  69  71
ATOM     71  C   MOL d         -28.612  40.516  33.022  0.00  0.00     0.197 C 
ATOM     72  OXT MOL d         -29.325  40.355  32.033  0.00  0.00    -0.646 OA
ATOM     73  O   MOL d         -28.462  39.609  33.900  0.00  0.00    -0.646 OA
ENDBRANCH  69  71
BRANCH  69  74
ATOM     74  CB  MOL d         -26.395  41.659  33.309  0.00  0.00     0.037 C 
ATOM     75  H29 MOL d         -26.121  40.727  32.794  0.00  0.00     0.051 H 
ATOM     76  H30 MOL d         -26.159  41.569  34.379  0.00  0.00     0.051 H 
BRANCH  74  77
ATOM     77  CG  MOL d         -25.540  42.837  32.703  0.00  0.00     0.217 C 
ATOM     78  OD1 MOL d         -24.398  42.674  32.392  0.00  0.00    -0.274 OA
ATOM     79  ND2 MOL d         -26.129  43.996  32.592  0.00  0.00    -0.370 N 
ATOM     80  H31 MOL d         -25.629  44.775  32.214  0.00  0.00     0.159 HD
ATOM     81  H32 MOL d         -27.079  44.104  32.885  0.00  0.00     0.159 HD
ENDBRANCH  74  77
ENDBRANCH  69  74
ENDBRANCH  67  69
ENDBRANCH  46  65
BRANCH  46  82
ATOM     82  CH3 MOL d         -29.434  43.908  36.755  0.00  0.00    -0.044 C 
ATOM     83  H18 MOL d         -28.351  43.769  36.627  0.00  0.00     0.031 H 
ATOM     84  H19 MOL d         -29.861  43.025  37.254  0.00  0.00     0.031 H 
ATOM     85  H20 MOL d         -29.619  44.802  37.370  0.00  0.00     0.031 H 
ENDBRANCH  46  82
ENDBRANCH   3  46
TORSDOF 21
ENDMDL
