REMARK  13 active torsions:
REMARK  status: ('A' for Active; 'I' for Inactive)
REMARK    1  A    between atoms: C6_6  and  O25_25 
REMARK    2  A    between atoms: C8_8  and  C27_27 
REMARK    3  A    between atoms: C10_10  and  O28_28 
REMARK    4  A    between atoms: C11_11  and  O30_30 
REMARK    5  A    between atoms: C12_12  and  C31_31 
REMARK    6  A    between atoms: C14_14  and  C32_32 
REMARK    7  A    between atoms: C15_15  and  O33_33 
REMARK    8  A    between atoms: C16_16  and  O37_37 
REMARK    9  A    between atoms: C20_20  and  C39_39 
REMARK   10  A    between atoms: O25_25  and  C26_26 
REMARK   11  A    between atoms: O28_28  and  C29_29 
REMARK   12  A    between atoms: O33_33  and  C34_34 
REMARK       I    between atoms: C34_34  and  N36_36 
REMARK   13  A    between atoms: O37_37  and  C38_38 
ROOT
ATOM      1  C1  GMY d          26.030 -34.166  -5.268  0.00  0.00     0.032 A 
ATOM      2  C2  GMY d          26.082 -33.888  -3.767  0.00  0.00     0.207 A 
ATOM      3  C3  GMY d          25.501 -32.583  -3.204  0.00  0.00     0.090 A 
ATOM      4  C4  GMY d          24.885 -31.607  -4.103  0.00  0.00    -0.002 A 
ATOM      5  C5  GMY d          24.844 -31.876  -5.612  0.00  0.00     0.208 A 
ATOM      6  C6  GMY d          25.415 -33.184  -6.165  0.00  0.00     0.128 A 
ATOM      7  C7  GMY d          26.062 -35.643  -5.696  0.00  0.00    -0.031 C 
ATOM      8  C8  GMY d          24.591 -36.057  -5.535  0.00  0.00    -0.051 C 
ATOM      9  C9  GMY d          23.987 -36.298  -6.926  0.00  0.00    -0.035 C 
ATOM     10  C10 GMY d          22.722 -37.161  -6.822  0.00  0.00     0.063 C 
ATOM     11  C11 GMY d          21.653 -36.649  -7.810  0.00  0.00     0.067 C 
ATOM     12  C12 GMY d          21.306 -35.179  -7.485  0.00  0.00    -0.014 C 
ATOM     13  C13 GMY d          20.420 -35.137  -6.235  0.00  0.00    -0.092 C 
ATOM     14  C14 GMY d          20.483 -34.008  -5.308  0.00  0.00    -0.055 C 
ATOM     15  C15 GMY d          19.558 -34.012  -4.096  0.00  0.00     0.099 C 
ATOM     16  C16 GMY d          20.419 -34.104  -2.828  0.00  0.00     0.083 C 
ATOM     17  C17 GMY d          21.013 -35.522  -2.737  0.00  0.00    -0.073 C 
ATOM     18  C18 GMY d          22.323 -35.676  -2.087  0.00  0.00    -0.083 C 
ATOM     19  C19 GMY d          23.230 -34.447  -1.943  0.00  0.00    -0.072 C 
ATOM     20  C20 GMY d          24.510 -34.606  -1.239  0.00  0.00     0.006 C 
ATOM     21  C21 GMY d          25.212 -33.327  -0.789  0.00  0.00     0.251 C 
ATOM     22  N22 GMY d          25.552 -32.313  -1.769  0.00  0.00    -0.320 N 
ATOM     23  O23 GMY d          26.580 -34.708  -3.043  0.00  0.00    -0.285 OA
ATOM     24  O24 GMY d          24.351 -31.089  -6.364  0.00  0.00    -0.285 OA
ATOM     25  O40 GMY d          25.478 -33.172   0.366  0.00  0.00    -0.268 OA
ATOM     26  H1  GMY d          24.456 -30.690  -3.701  0.00  0.00     0.093 H 
ATOM     27  H2  GMY d          26.717 -36.235  -5.040  0.00  0.00     0.041 H 
ATOM     28  H3  GMY d          26.395 -35.749  -6.739  0.00  0.00     0.041 H 
ATOM     29  H4  GMY d          24.042 -35.222  -5.075  0.00  0.00     0.040 H 
ATOM     30  H5  GMY d          24.726 -36.814  -7.557  0.00  0.00     0.037 H 
ATOM     31  H6  GMY d          23.728 -35.330  -7.381  0.00  0.00     0.037 H 
ATOM     32  H7  GMY d          22.323 -37.111  -5.798  0.00  0.00     0.087 H 
ATOM     33  H8  GMY d          20.748 -37.268  -7.721  0.00  0.00     0.087 H 
ATOM     34  H9  GMY d          22.226 -34.596  -7.332  0.00  0.00     0.049 H 
ATOM     35  H10 GMY d          19.734 -35.959  -6.035  0.00  0.00     0.078 H 
ATOM     36  H11 GMY d          18.835 -34.839  -4.143  0.00  0.00     0.096 H 
ATOM     37  H12 GMY d          21.233 -33.366  -2.880  0.00  0.00     0.094 H 
ATOM     38  H13 GMY d          20.481 -36.382  -3.141  0.00  0.00     0.081 H 
ATOM     39  H14 GMY d          22.644 -36.647  -1.714  0.00  0.00     0.083 H 
ATOM     40  H15 GMY d          22.933 -33.482  -2.352  0.00  0.00     0.084 H 
ATOM     41  H16 GMY d          25.829 -31.405  -1.454  0.00  0.00     0.169 HD
ENDROOT
BRANCH  15  42
ATOM     42  O33 GMY d          18.909 -32.752  -4.099  0.00  0.00    -0.291 OA
BRANCH  42  43
ATOM     43  C34 GMY d          17.635 -32.749  -4.753  0.00  0.00     0.359 C 
ATOM     44  O35 GMY d          17.274 -33.637  -5.482  0.00  0.00    -0.239 OA
ATOM     45  N36 GMY d          16.783 -31.584  -4.526  0.00  0.00    -0.346 N 
ATOM     46  H33 GMY d          15.883 -31.531  -4.959  0.00  0.00     0.161 HD
ATOM     47  H34 GMY d          17.100 -30.840  -3.938  0.00  0.00     0.161 HD
ENDBRANCH  42  43
ENDBRANCH  15  42
BRANCH  14  48
ATOM     48  C32 GMY d          21.440 -32.825  -5.539  0.00  0.00    -0.052 C 
ATOM     49  H30 GMY d          22.023 -32.998  -6.456  0.00  0.00     0.033 H 
ATOM     50  H31 GMY d          22.123 -32.733  -4.682  0.00  0.00     0.033 H 
ATOM     51  H32 GMY d          20.858 -31.898  -5.645  0.00  0.00     0.033 H 
ENDBRANCH  14  48
BRANCH  16  52
ATOM     52  O37 GMY d          19.612 -33.841  -1.676  0.00  0.00    -0.384 OA
BRANCH  52  53
ATOM     53  C38 GMY d          18.379 -34.561  -1.742  0.00  0.00     0.005 C 
ATOM     54  H35 GMY d          17.778 -34.342  -0.847  0.00  0.00     0.066 H 
ATOM     55  H36 GMY d          18.587 -35.640  -1.789  0.00  0.00     0.066 H 
ATOM     56  H37 GMY d          17.823 -34.255  -2.640  0.00  0.00     0.066 H 
ENDBRANCH  52  53
ENDBRANCH  16  52
BRANCH  12  57
ATOM     57  C31 GMY d          20.470 -34.587  -8.632  0.00  0.00    -0.067 C 
ATOM     58  H27 GMY d          20.222 -33.540  -8.402  0.00  0.00     0.028 H 
ATOM     59  H28 GMY d          19.542 -35.167  -8.747  0.00  0.00     0.028 H 
ATOM     60  H29 GMY d          21.048 -34.630  -9.567  0.00  0.00     0.028 H 
ENDBRANCH  12  57
BRANCH  11  61
ATOM     61  O30 GMY d          22.155 -36.728  -9.145  0.00  0.00    -0.392 OA
ATOM     62  H26 GMY d          22.370 -37.631  -9.348  0.00  0.00     0.210 HD
ENDBRANCH  11  61
BRANCH  10  63
ATOM     63  O28 GMY d          23.078 -38.511  -7.133  0.00  0.00    -0.388 OA
BRANCH  63  64
ATOM     64  C29 GMY d          24.093 -38.544  -8.149  0.00  0.00     0.005 C 
ATOM     65  H23 GMY d          24.353 -39.589  -8.374  0.00  0.00     0.066 H 
ATOM     66  H24 GMY d          24.987 -38.013  -7.791  0.00  0.00     0.066 H 
ATOM     67  H25 GMY d          23.716 -38.056  -9.060  0.00  0.00     0.066 H 
ENDBRANCH  63  64
ENDBRANCH  10  63
BRANCH  20  68
ATOM     68  C39 GMY d          24.781 -35.879  -0.421  0.00  0.00    -0.046 C 
ATOM     69  H38 GMY d          24.216 -36.719  -0.852  0.00  0.00     0.033 H 
ATOM     70  H39 GMY d          24.464 -35.720   0.620  0.00  0.00     0.033 H 
ATOM     71  H40 GMY d          25.856 -36.109  -0.446  0.00  0.00     0.033 H 
ENDBRANCH  20  68
BRANCH   8  72
ATOM     72  C27 GMY d          24.486 -37.257  -4.578  0.00  0.00    -0.073 C 
ATOM     73  H20 GMY d          24.941 -36.996  -3.611  0.00  0.00     0.028 H 
ATOM     74  H21 GMY d          25.014 -38.119  -5.011  0.00  0.00     0.028 H 
ATOM     75  H22 GMY d          23.427 -37.514  -4.427  0.00  0.00     0.028 H 
ENDBRANCH   8  72
BRANCH   6  76
ATOM     76  O25 GMY d          25.362 -33.416  -7.571  0.00  0.00    -0.351 OA
BRANCH  76  77
ATOM     77  C26 GMY d          26.253 -32.496  -8.217  0.00  0.00     0.011 C 
ATOM     78  H17 GMY d          26.225 -32.661  -9.304  0.00  0.00     0.067 H 
ATOM     79  H18 GMY d          27.277 -32.657  -7.848  0.00  0.00     0.067 H 
ATOM     80  H19 GMY d          25.940 -31.465  -7.994  0.00  0.00     0.067 H 
ENDBRANCH  76  77
ENDBRANCH   6  76
TORSDOF 13
