MODEL 1
REMARK VINA RESULT:      -8.1      0.000      0.000
REMARK  13 active torsions:
REMARK  status: ('A' for Active; 'I' for Inactive)
REMARK    1  A    between atoms: C6_6  and  O25_25 
REMARK    2  A    between atoms: C8_8  and  C27_27 
REMARK    3  A    between atoms: C10_10  and  O28_28 
REMARK    4  A    between atoms: C11_11  and  O30_30 
REMARK    5  A    between atoms: C12_12  and  C31_31 
REMARK    6  A    between atoms: C14_14  and  C32_32 
REMARK    7  A    between atoms: C15_15  and  O33_33 
REMARK    8  A    between atoms: C16_16  and  O37_37 
REMARK    9  A    between atoms: C20_20  and  C39_39 
REMARK   10  A    between atoms: O25_25  and  C26_26 
REMARK   11  A    between atoms: O28_28  and  C29_29 
REMARK   12  A    between atoms: O33_33  and  C34_34 
REMARK       I    between atoms: C34_34  and  N36_36 
REMARK   13  A    between atoms: O37_37  and  C38_38 
ROOT
ATOM      1  C1  GMY d          25.963 -34.354  -5.313  0.00  0.00     0.032 A 
ATOM      2  C2  GMY d          26.026 -34.041  -3.820  0.00  0.00     0.207 A 
ATOM      3  C3  GMY d          25.570 -32.670  -3.300  0.00  0.00     0.090 A 
ATOM      4  C4  GMY d          25.062 -31.664  -4.233  0.00  0.00    -0.002 A 
ATOM      5  C5  GMY d          25.011 -31.970  -5.735  0.00  0.00     0.208 A 
ATOM      6  C6  GMY d          25.457 -33.343  -6.245  0.00  0.00     0.128 A 
ATOM      7  C7  GMY d          25.855 -35.839  -5.701  0.00  0.00    -0.031 C 
ATOM      8  C8  GMY d          24.349 -36.103  -5.548  0.00  0.00    -0.051 C 
ATOM      9  C9  GMY d          23.739 -36.323  -6.940  0.00  0.00    -0.035 C 
ATOM     10  C10 GMY d          22.394 -37.055  -6.829  0.00  0.00     0.063 C 
ATOM     11  C11 GMY d          21.391 -36.469  -7.845  0.00  0.00     0.067 C 
ATOM     12  C12 GMY d          21.186 -34.963  -7.564  0.00  0.00    -0.014 C 
ATOM     13  C13 GMY d          20.295 -34.800  -6.328  0.00  0.00    -0.092 C 
ATOM     14  C14 GMY d          20.459 -33.657  -5.431  0.00  0.00    -0.055 C 
ATOM     15  C15 GMY d          19.525 -33.536  -4.232  0.00  0.00     0.099 C 
ATOM     16  C16 GMY d          20.360 -33.676  -2.950  0.00  0.00     0.083 C 
ATOM     17  C17 GMY d          20.811 -35.142  -2.813  0.00  0.00    -0.073 C 
ATOM     18  C18 GMY d          22.093 -35.405  -2.142  0.00  0.00    -0.083 C 
ATOM     19  C19 GMY d          23.114 -34.267  -2.019  0.00  0.00    -0.072 C 
ATOM     20  C20 GMY d          24.365 -34.530  -1.294  0.00  0.00     0.006 C 
ATOM     21  C21 GMY d          25.184 -33.314  -0.870  0.00  0.00     0.251 C 
ATOM     22  N22 GMY d          25.632 -32.366  -1.872  0.00  0.00    -0.320 N 
ATOM     23  O23 GMY d          26.434 -34.885  -3.067  0.00  0.00    -0.285 OA
ATOM     24  O24 GMY d          24.605 -31.160  -6.514  0.00  0.00    -0.285 OA
ATOM     25  O40 GMY d          25.452 -33.153   0.284  0.00  0.00    -0.268 OA
ATOM     26  H1  GMY d          24.721 -30.699  -3.862  0.00  0.00     0.093 H 
ATOM     27  H2  GMY d          26.442 -36.473  -5.020  0.00  0.00     0.041 H 
ATOM     28  H3  GMY d          26.187 -36.006  -6.736  0.00  0.00     0.041 H 
ATOM     29  H4  GMY d          23.879 -35.205  -5.118  0.00  0.00     0.040 H 
ATOM     30  H5  GMY d          24.430 -36.926  -7.547  0.00  0.00     0.037 H 
ATOM     31  H6  GMY d          23.581 -35.347  -7.424  0.00  0.00     0.037 H 
ATOM     32  H7  GMY d          21.991 -36.937  -5.813  0.00  0.00     0.087 H 
ATOM     33  H8  GMY d          20.429 -36.994  -7.751  0.00  0.00     0.087 H 
ATOM     34  H9  GMY d          22.157 -34.469  -7.415  0.00  0.00     0.049 H 
ATOM     35  H10 GMY d          19.530 -35.545  -6.115  0.00  0.00     0.078 H 
ATOM     36  H11 GMY d          18.725 -34.290  -4.266  0.00  0.00     0.096 H 
ATOM     37  H12 GMY d          21.243 -33.023  -3.011  0.00  0.00     0.094 H 
ATOM     38  H13 GMY d          20.202 -35.957  -3.201  0.00  0.00     0.081 H 
ATOM     39  H14 GMY d          22.313 -36.392  -1.739  0.00  0.00     0.083 H 
ATOM     40  H15 GMY d          22.918 -33.289  -2.458  0.00  0.00     0.084 H 
ATOM     41  H16 GMY d          25.994 -31.481  -1.578  0.00  0.00     0.169 HD
ENDROOT
BRANCH  15  42
ATOM     42  O33 GMY d          19.003 -32.219  -4.277  0.00  0.00    -0.291 OA
BRANCH  42  43
ATOM     43  C34 GMY d          17.580 -32.157  -4.423  0.00  0.00     0.359 C 
ATOM     44  O35 GMY d          16.966 -32.891  -5.154  0.00  0.00    -0.239 OA
ATOM     45  N36 GMY d          16.886 -31.120  -3.662  0.00  0.00    -0.346 N 
ATOM     46  H33 GMY d          15.892 -31.033  -3.728  0.00  0.00     0.161 HD
ATOM     47  H34 GMY d          17.406 -30.499  -3.076  0.00  0.00     0.161 HD
ENDBRANCH  42  43
ENDBRANCH  15  42
BRANCH  14  48
ATOM     48  C32 GMY d          21.530 -32.580  -5.681  0.00  0.00    -0.052 C 
ATOM     49  H30 GMY d          22.526 -32.995  -5.465  0.00  0.00     0.033 H 
ATOM     50  H31 GMY d          21.342 -31.717  -5.026  0.00  0.00     0.033 H 
ATOM     51  H32 GMY d          21.488 -32.258  -6.732  0.00  0.00     0.033 H 
ENDBRANCH  14  48
BRANCH  16  52
ATOM     52  O37 GMY d          19.570 -33.303  -1.817  0.00  0.00    -0.384 OA
BRANCH  52  53
ATOM     53  C38 GMY d          18.596 -34.306  -1.522  0.00  0.00     0.005 C 
ATOM     54  H35 GMY d          18.197 -34.717  -2.461  0.00  0.00     0.066 H 
ATOM     55  H36 GMY d          17.776 -33.860  -0.939  0.00  0.00     0.066 H 
ATOM     56  H37 GMY d          19.063 -35.113  -0.939  0.00  0.00     0.066 H 
ENDBRANCH  52  53
ENDBRANCH  16  52
BRANCH  12  57
ATOM     57  C31 GMY d          20.424 -34.325  -8.738  0.00  0.00    -0.067 C 
ATOM     58  H27 GMY d          19.355 -34.257  -8.487  0.00  0.00     0.028 H 
ATOM     59  H28 GMY d          20.551 -34.945  -9.638  0.00  0.00     0.028 H 
ATOM     60  H29 GMY d          20.821 -33.317  -8.928  0.00  0.00     0.028 H 
ENDBRANCH  12  57
BRANCH  11  61
ATOM     61  O30 GMY d          21.897 -36.634  -9.171  0.00  0.00    -0.392 OA
ATOM     62  H26 GMY d          21.171 -36.666  -9.783  0.00  0.00     0.210 HD
ENDBRANCH  11  61
BRANCH  10  63
ATOM     63  O28 GMY d          22.619 -38.441  -7.099  0.00  0.00    -0.388 OA
BRANCH  63  64
ATOM     64  C29 GMY d          21.401 -39.188  -6.954  0.00  0.00     0.005 C 
ATOM     65  H23 GMY d          20.578 -38.646  -7.444  0.00  0.00     0.066 H 
ATOM     66  H24 GMY d          21.173 -39.313  -5.885  0.00  0.00     0.066 H 
ATOM     67  H25 GMY d          21.519 -40.176  -7.422  0.00  0.00     0.066 H 
ENDBRANCH  63  64
ENDBRANCH  10  63
BRANCH  20  68
ATOM     68  C39 GMY d          24.501 -35.800  -0.439  0.00  0.00    -0.046 C 
ATOM     69  H38 GMY d          24.310 -35.554   0.616  0.00  0.00     0.033 H 
ATOM     70  H39 GMY d          25.519 -36.204  -0.542  0.00  0.00     0.033 H 
ATOM     71  H40 GMY d          23.773 -36.551  -0.778  0.00  0.00     0.033 H 
ENDBRANCH  20  68
BRANCH   8  72
ATOM     72  C27 GMY d          24.116 -37.259  -4.561  0.00  0.00    -0.073 C 
ATOM     73  H20 GMY d          24.089 -38.212  -5.111  0.00  0.00     0.028 H 
ATOM     74  H21 GMY d          23.160 -37.110  -4.039  0.00  0.00     0.028 H 
ATOM     75  H22 GMY d          24.935 -37.284  -3.826  0.00  0.00     0.028 H 
ENDBRANCH   8  72
BRANCH   6  76
ATOM     76  O25 GMY d          25.396 -33.608  -7.644  0.00  0.00    -0.351 OA
BRANCH  76  77
ATOM     77  C26 GMY d          26.678 -33.317  -8.218  0.00  0.00     0.011 C 
ATOM     78  H17 GMY d          27.186 -32.554  -7.611  0.00  0.00     0.067 H 
ATOM     79  H18 GMY d          26.545 -32.941  -9.243  0.00  0.00     0.067 H 
ATOM     80  H19 GMY d          27.287 -34.234  -8.239  0.00  0.00     0.067 H 
ENDBRANCH  76  77
ENDBRANCH   6  76
TORSDOF 13
ENDMDL
MODEL 2
REMARK VINA RESULT:      -5.9      2.324      6.140
REMARK  13 active torsions:
REMARK  status: ('A' for Active; 'I' for Inactive)
REMARK    1  A    between atoms: C6_6  and  O25_25 
REMARK    2  A    between atoms: C8_8  and  C27_27 
REMARK    3  A    between atoms: C10_10  and  O28_28 
REMARK    4  A    between atoms: C11_11  and  O30_30 
REMARK    5  A    between atoms: C12_12  and  C31_31 
REMARK    6  A    between atoms: C14_14  and  C32_32 
REMARK    7  A    between atoms: C15_15  and  O33_33 
REMARK    8  A    between atoms: C16_16  and  O37_37 
REMARK    9  A    between atoms: C20_20  and  C39_39 
REMARK   10  A    between atoms: O25_25  and  C26_26 
REMARK   11  A    between atoms: O28_28  and  C29_29 
REMARK   12  A    between atoms: O33_33  and  C34_34 
REMARK       I    between atoms: C34_34  and  N36_36 
REMARK   13  A    between atoms: O37_37  and  C38_38 
ROOT
ATOM      1  C1  GMY d          24.685 -37.103  -6.571  0.00  0.00     0.032 A 
ATOM      2  C2  GMY d          23.499 -37.629  -7.377  0.00  0.00     0.207 A 
ATOM      3  C3  GMY d          22.280 -38.223  -6.657  0.00  0.00     0.090 A 
ATOM      4  C4  GMY d          22.246 -38.276  -5.195  0.00  0.00    -0.002 A 
ATOM      5  C5  GMY d          23.441 -37.762  -4.383  0.00  0.00     0.208 A 
ATOM      6  C6  GMY d          24.648 -37.161  -5.108  0.00  0.00     0.128 A 
ATOM      7  C7  GMY d          25.557 -36.033  -7.249  0.00  0.00    -0.031 C 
ATOM      8  C8  GMY d          24.760 -34.748  -6.977  0.00  0.00    -0.051 C 
ATOM      9  C9  GMY d          25.540 -33.880  -5.978  0.00  0.00    -0.035 C 
ATOM     10  C10 GMY d          25.064 -32.423  -6.043  0.00  0.00     0.063 C 
ATOM     11  C11 GMY d          25.010 -31.823  -4.623  0.00  0.00     0.067 C 
ATOM     12  C12 GMY d          24.040 -32.646  -3.747  0.00  0.00    -0.014 C 
ATOM     13  C13 GMY d          22.597 -32.301  -4.135  0.00  0.00    -0.092 C 
ATOM     14  C14 GMY d          21.535 -33.301  -4.038  0.00  0.00    -0.055 C 
ATOM     15  C15 GMY d          20.116 -32.890  -4.414  0.00  0.00     0.099 C 
ATOM     16  C16 GMY d          19.692 -33.686  -5.657  0.00  0.00     0.083 C 
ATOM     17  C17 GMY d          20.474 -33.155  -6.873  0.00  0.00    -0.073 C 
ATOM     18  C18 GMY d          20.785 -34.101  -7.955  0.00  0.00    -0.083 C 
ATOM     19  C19 GMY d          20.742 -35.606  -7.661  0.00  0.00    -0.072 C 
ATOM     20  C20 GMY d          20.998 -36.539  -8.767  0.00  0.00     0.006 C 
ATOM     21  C21 GMY d          20.594 -37.995  -8.547  0.00  0.00     0.251 C 
ATOM     22  N22 GMY d          21.145 -38.730  -7.425  0.00  0.00    -0.320 N 
ATOM     23  O23 GMY d          23.539 -37.565  -8.577  0.00  0.00    -0.285 OA
ATOM     24  O24 GMY d          23.437 -37.802  -3.189  0.00  0.00    -0.285 OA
ATOM     25  O40 GMY d          19.830 -38.518  -9.303  0.00  0.00    -0.268 OA
ATOM     26  H1  GMY d          21.374 -38.680  -4.684  0.00  0.00     0.093 H 
ATOM     27  H2  GMY d          25.654 -36.221  -8.329  0.00  0.00     0.041 H 
ATOM     28  H3  GMY d          26.557 -35.986  -6.794  0.00  0.00     0.041 H 
ATOM     29  H4  GMY d          23.806 -35.023  -6.502  0.00  0.00     0.040 H 
ATOM     30  H5  GMY d          26.612 -33.922  -6.223  0.00  0.00     0.037 H 
ATOM     31  H6  GMY d          25.381 -34.268  -4.960  0.00  0.00     0.037 H 
ATOM     32  H7  GMY d          24.061 -32.381  -6.493  0.00  0.00     0.087 H 
ATOM     33  H8  GMY d          24.659 -30.782  -4.680  0.00  0.00     0.087 H 
ATOM     34  H9  GMY d          24.232 -33.722  -3.874  0.00  0.00     0.049 H 
ATOM     35  H10 GMY d          22.361 -31.298  -4.487  0.00  0.00     0.078 H 
ATOM     36  H11 GMY d          20.044 -31.808  -4.596  0.00  0.00     0.096 H 
ATOM     37  H12 GMY d          19.921 -34.752  -5.509  0.00  0.00     0.094 H 
ATOM     38  H13 GMY d          20.786 -32.113  -6.930  0.00  0.00     0.081 H 
ATOM     39  H14 GMY d          21.041 -33.739  -8.949  0.00  0.00     0.083 H 
ATOM     40  H15 GMY d          20.528 -35.974  -6.658  0.00  0.00     0.084 H 
ATOM     41  H16 GMY d          20.738 -39.607  -7.170  0.00  0.00     0.169 HD
ENDROOT
BRANCH  15  42
ATOM     42  O33 GMY d          19.295 -33.292  -3.331  0.00  0.00    -0.291 OA
BRANCH  42  43
ATOM     43  C34 GMY d          18.552 -32.226  -2.729  0.00  0.00     0.359 C 
ATOM     44  O35 GMY d          18.767 -31.832  -1.612  0.00  0.00    -0.239 OA
ATOM     45  N36 GMY d          17.476 -31.644  -3.527  0.00  0.00    -0.346 N 
ATOM     46  H33 GMY d          16.925 -30.896  -3.154  0.00  0.00     0.161 HD
ATOM     47  H34 GMY d          17.289 -31.993  -4.445  0.00  0.00     0.161 HD
ENDBRANCH  42  43
ENDBRANCH  15  42
BRANCH  14  48
ATOM     48  C32 GMY d          21.816 -34.735  -3.555  0.00  0.00    -0.052 C 
ATOM     49  H30 GMY d          22.512 -34.706  -2.703  0.00  0.00     0.033 H 
ATOM     50  H31 GMY d          22.262 -35.317  -4.374  0.00  0.00     0.033 H 
ATOM     51  H32 GMY d          20.873 -35.207  -3.241  0.00  0.00     0.033 H 
ENDBRANCH  14  48
BRANCH  16  52
ATOM     52  O37 GMY d          18.287 -33.528  -5.877  0.00  0.00    -0.384 OA
BRANCH  52  53
ATOM     53  C38 GMY d          17.647 -34.798  -6.016  0.00  0.00     0.005 C 
ATOM     54  H35 GMY d          17.134 -35.055  -5.077  0.00  0.00     0.066 H 
ATOM     55  H36 GMY d          18.401 -35.565  -6.244  0.00  0.00     0.066 H 
ATOM     56  H37 GMY d          16.912 -34.751  -6.833  0.00  0.00     0.066 H 
ENDBRANCH  52  53
ENDBRANCH  16  52
BRANCH  12  57
ATOM     57  C31 GMY d          24.206 -32.233  -2.275  0.00  0.00    -0.067 C 
ATOM     58  H27 GMY d          24.246 -33.133  -1.644  0.00  0.00     0.028 H 
ATOM     59  H28 GMY d          23.352 -31.609  -1.970  0.00  0.00     0.028 H 
ATOM     60  H29 GMY d          25.138 -31.661  -2.158  0.00  0.00     0.028 H 
ENDBRANCH  12  57
BRANCH  11  61
ATOM     61  O30 GMY d          26.312 -31.855  -4.037  0.00  0.00    -0.392 OA
ATOM     62  H26 GMY d          26.761 -31.038  -4.222  0.00  0.00     0.210 HD
ENDBRANCH  11  61
BRANCH  10  63
ATOM     63  O28 GMY d          25.985 -31.690  -6.856  0.00  0.00    -0.388 OA
BRANCH  63  64
ATOM     64  C29 GMY d          25.608 -30.306  -6.924  0.00  0.00     0.005 C 
ATOM     65  H23 GMY d          25.068 -30.027  -6.007  0.00  0.00     0.066 H 
ATOM     66  H24 GMY d          24.958 -30.145  -7.796  0.00  0.00     0.066 H 
ATOM     67  H25 GMY d          26.511 -29.684  -7.019  0.00  0.00     0.066 H 
ENDBRANCH  63  64
ENDBRANCH  10  63
BRANCH  20  68
ATOM     68  C39 GMY d          21.005 -36.024 -10.216  0.00  0.00    -0.046 C 
ATOM     69  H38 GMY d          19.994 -35.687 -10.490  0.00  0.00     0.033 H 
ATOM     70  H39 GMY d          21.317 -36.835 -10.891  0.00  0.00     0.033 H 
ATOM     71  H40 GMY d          21.708 -35.184 -10.303  0.00  0.00     0.033 H 
ENDBRANCH  20  68
BRANCH   8  72
ATOM     72  C27 GMY d          24.426 -34.046  -8.305  0.00  0.00    -0.073 C 
ATOM     73  H20 GMY d          25.220 -34.252  -9.038  0.00  0.00     0.028 H 
ATOM     74  H21 GMY d          24.351 -32.962  -8.138  0.00  0.00     0.028 H 
ATOM     75  H22 GMY d          23.467 -34.425  -8.688  0.00  0.00     0.028 H 
ENDBRANCH   8  72
BRANCH   6  76
ATOM     76  O25 GMY d          25.747 -36.685  -4.333  0.00  0.00    -0.351 OA
BRANCH  76  77
ATOM     77  C26 GMY d          26.780 -37.679  -4.351  0.00  0.00     0.011 C 
ATOM     78  H17 GMY d          27.116 -37.877  -3.322  0.00  0.00     0.067 H 
ATOM     79  H18 GMY d          27.629 -37.315  -4.950  0.00  0.00     0.067 H 
ATOM     80  H19 GMY d          26.389 -38.607  -4.794  0.00  0.00     0.067 H 
ENDBRANCH  76  77
ENDBRANCH   6  76
TORSDOF 13
ENDMDL
MODEL 3
REMARK VINA RESULT:      -5.7      2.243      7.502
REMARK  13 active torsions:
REMARK  status: ('A' for Active; 'I' for Inactive)
REMARK    1  A    between atoms: C6_6  and  O25_25 
REMARK    2  A    between atoms: C8_8  and  C27_27 
REMARK    3  A    between atoms: C10_10  and  O28_28 
REMARK    4  A    between atoms: C11_11  and  O30_30 
REMARK    5  A    between atoms: C12_12  and  C31_31 
REMARK    6  A    between atoms: C14_14  and  C32_32 
REMARK    7  A    between atoms: C15_15  and  O33_33 
REMARK    8  A    between atoms: C16_16  and  O37_37 
REMARK    9  A    between atoms: C20_20  and  C39_39 
REMARK   10  A    between atoms: O25_25  and  C26_26 
REMARK   11  A    between atoms: O28_28  and  C29_29 
REMARK   12  A    between atoms: O33_33  and  C34_34 
REMARK       I    between atoms: C34_34  and  N36_36 
REMARK   13  A    between atoms: O37_37  and  C38_38 
ROOT
ATOM      1  C1  GMY d          21.375 -35.444  -4.096  0.00  0.00     0.032 A 
ATOM      2  C2  GMY d          21.459 -36.191  -5.425  0.00  0.00     0.207 A 
ATOM      3  C3  GMY d          21.269 -35.435  -6.748  0.00  0.00     0.090 A 
ATOM      4  C4  GMY d          21.019 -33.994  -6.739  0.00  0.00    -0.002 A 
ATOM      5  C5  GMY d          20.920 -33.242  -5.406  0.00  0.00     0.208 A 
ATOM      6  C6  GMY d          21.121 -34.000  -4.092  0.00  0.00     0.128 A 
ATOM      7  C7  GMY d          22.125 -36.068  -2.907  0.00  0.00    -0.031 C 
ATOM      8  C8  GMY d          23.561 -35.570  -3.135  0.00  0.00    -0.051 C 
ATOM      9  C9  GMY d          23.914 -34.553  -2.040  0.00  0.00    -0.035 C 
ATOM     10  C10 GMY d          25.436 -34.398  -1.918  0.00  0.00     0.063 C 
ATOM     11  C11 GMY d          25.797 -32.917  -1.678  0.00  0.00     0.067 C 
ATOM     12  C12 GMY d          25.281 -32.059  -2.854  0.00  0.00    -0.014 C 
ATOM     13  C13 GMY d          26.196 -32.265  -4.066  0.00  0.00    -0.092 C 
ATOM     14  C14 GMY d          25.668 -32.189  -5.427  0.00  0.00    -0.055 C 
ATOM     15  C15 GMY d          26.634 -32.377  -6.592  0.00  0.00     0.099 C 
ATOM     16  C16 GMY d          26.247 -33.661  -7.341  0.00  0.00     0.083 C 
ATOM     17  C17 GMY d          26.617 -34.873  -6.465  0.00  0.00    -0.073 C 
ATOM     18  C18 GMY d          25.793 -36.085  -6.589  0.00  0.00    -0.083 C 
ATOM     19  C19 GMY d          24.389 -35.969  -7.197  0.00  0.00    -0.072 C 
ATOM     20  C20 GMY d          23.602 -37.199  -7.367  0.00  0.00     0.006 C 
ATOM     21  C21 GMY d          22.389 -37.118  -8.292  0.00  0.00     0.251 C 
ATOM     22  N22 GMY d          21.345 -36.148  -8.021  0.00  0.00    -0.320 N 
ATOM     23  O23 GMY d          21.678 -37.373  -5.413  0.00  0.00    -0.285 OA
ATOM     24  O24 GMY d          20.710 -32.066  -5.377  0.00  0.00    -0.285 OA
ATOM     25  O40 GMY d          22.309 -37.855  -9.229  0.00  0.00    -0.268 OA
ATOM     26  H1  GMY d          20.903 -33.454  -7.679  0.00  0.00     0.093 H 
ATOM     27  H2  GMY d          22.075 -37.166  -2.935  0.00  0.00     0.041 H 
ATOM     28  H3  GMY d          21.724 -35.707  -1.949  0.00  0.00     0.041 H 
ATOM     29  H4  GMY d          23.599 -35.044  -4.100  0.00  0.00     0.040 H 
ATOM     30  H5  GMY d          23.508 -34.901  -1.078  0.00  0.00     0.037 H 
ATOM     31  H6  GMY d          23.471 -33.578  -2.294  0.00  0.00     0.037 H 
ATOM     32  H7  GMY d          25.918 -34.743  -2.845  0.00  0.00     0.087 H 
ATOM     33  H8  GMY d          26.890 -32.816  -1.602  0.00  0.00     0.087 H 
ATOM     34  H9  GMY d          24.243 -32.331  -3.097  0.00  0.00     0.049 H 
ATOM     35  H10 GMY d          27.255 -32.471  -3.911  0.00  0.00     0.078 H 
ATOM     36  H11 GMY d          27.677 -32.420  -6.248  0.00  0.00     0.096 H 
ATOM     37  H12 GMY d          25.164 -33.663  -7.535  0.00  0.00     0.094 H 
ATOM     38  H13 GMY d          27.460 -34.834  -5.778  0.00  0.00     0.081 H 
ATOM     39  H14 GMY d          26.173 -37.048  -6.254  0.00  0.00     0.083 H 
ATOM     40  H15 GMY d          23.986 -35.002  -7.495  0.00  0.00     0.084 H 
ATOM     41  H16 GMY d          20.659 -35.962  -8.725  0.00  0.00     0.169 HD
ENDROOT
BRANCH  15  42
ATOM     42  O33 GMY d          26.416 -31.277  -7.459  0.00  0.00    -0.291 OA
BRANCH  42  43
ATOM     43  C34 GMY d          27.600 -30.538  -7.778  0.00  0.00     0.359 C 
ATOM     44  O35 GMY d          27.875 -30.200  -8.901  0.00  0.00    -0.239 OA
ATOM     45  N36 GMY d          28.502 -30.232  -6.671  0.00  0.00    -0.346 N 
ATOM     46  H33 GMY d          29.343 -29.718  -6.839  0.00  0.00     0.161 HD
ATOM     47  H34 GMY d          28.278 -30.536  -5.745  0.00  0.00     0.161 HD
ENDBRANCH  42  43
ENDBRANCH  15  42
BRANCH  14  48
ATOM     48  C32 GMY d          24.180 -31.909  -5.702  0.00  0.00    -0.052 C 
ATOM     49  H30 GMY d          23.995 -31.939  -6.786  0.00  0.00     0.033 H 
ATOM     50  H31 GMY d          23.915 -30.915  -5.312  0.00  0.00     0.033 H 
ATOM     51  H32 GMY d          23.565 -32.673  -5.205  0.00  0.00     0.033 H 
ENDBRANCH  14  48
BRANCH  16  52
ATOM     52  O37 GMY d          26.953 -33.726  -8.584  0.00  0.00    -0.384 OA
BRANCH  52  53
ATOM     53  C38 GMY d          28.309 -34.127  -8.379  0.00  0.00     0.005 C 
ATOM     54  H35 GMY d          28.399 -34.635  -7.407  0.00  0.00     0.066 H 
ATOM     55  H36 GMY d          28.959 -33.240  -8.391  0.00  0.00     0.066 H 
ATOM     56  H37 GMY d          28.614 -34.815  -9.181  0.00  0.00     0.066 H 
ENDBRANCH  52  53
ENDBRANCH  16  52
BRANCH  12  57
ATOM     57  C31 GMY d          25.381 -30.570  -2.481  0.00  0.00    -0.067 C 
ATOM     58  H27 GMY d          25.401 -29.963  -3.398  0.00  0.00     0.028 H 
ATOM     59  H28 GMY d          26.303 -30.397  -1.906  0.00  0.00     0.028 H 
ATOM     60  H29 GMY d          24.510 -30.286  -1.871  0.00  0.00     0.028 H 
ENDBRANCH  12  57
BRANCH  11  61
ATOM     61  O30 GMY d          25.191 -32.465  -0.466  0.00  0.00    -0.392 OA
ATOM     62  H26 GMY d          25.723 -32.738   0.273  0.00  0.00     0.210 HD
ENDBRANCH  11  61
BRANCH  10  63
ATOM     63  O28 GMY d          25.878 -35.201  -0.820  0.00  0.00    -0.388 OA
BRANCH  63  64
ATOM     64  C29 GMY d          24.778 -35.522   0.045  0.00  0.00     0.005 C 
ATOM     65  H23 GMY d          25.154 -35.721   1.060  0.00  0.00     0.066 H 
ATOM     66  H24 GMY d          24.262 -36.416  -0.335  0.00  0.00     0.066 H 
ATOM     67  H25 GMY d          24.075 -34.677   0.074  0.00  0.00     0.066 H 
ENDBRANCH  63  64
ENDBRANCH  10  63
BRANCH  20  68
ATOM     68  C39 GMY d          24.282 -38.570  -7.222  0.00  0.00    -0.046 C 
ATOM     69  H38 GMY d          23.839 -39.110  -6.372  0.00  0.00     0.033 H 
ATOM     70  H39 GMY d          25.358 -38.428  -7.045  0.00  0.00     0.033 H 
ATOM     71  H40 GMY d          24.135 -39.151  -8.143  0.00  0.00     0.033 H 
ENDBRANCH  20  68
BRANCH   8  72
ATOM     72  C27 GMY d          24.523 -36.767  -3.227  0.00  0.00    -0.073 C 
ATOM     73  H20 GMY d          25.035 -36.752  -4.200  0.00  0.00     0.028 H 
ATOM     74  H21 GMY d          23.954 -37.703  -3.126  0.00  0.00     0.028 H 
ATOM     75  H22 GMY d          25.268 -36.702  -2.420  0.00  0.00     0.028 H 
ENDBRANCH   8  72
BRANCH   6  76
ATOM     76  O25 GMY d          21.030 -33.281  -2.864  0.00  0.00    -0.351 OA
BRANCH  76  77
ATOM     77  C26 GMY d          19.684 -33.381  -2.378  0.00  0.00     0.011 C 
ATOM     78  H17 GMY d          19.019 -32.779  -3.015  0.00  0.00     0.067 H 
ATOM     79  H18 GMY d          19.638 -33.007  -1.344  0.00  0.00     0.067 H 
ATOM     80  H19 GMY d          19.362 -34.433  -2.403  0.00  0.00     0.067 H 
ENDBRANCH  76  77
ENDBRANCH   6  76
TORSDOF 13
ENDMDL
