MODEL 1
REMARK VINA RESULT:      -6.7      0.000      0.000
REMARK  5 active torsions:
REMARK  status: ('A' for Active; 'I' for Inactive)
REMARK    1  A    between atoms: C1_1  and  C14_14 
REMARK    2  A    between atoms: C2_2  and  C15_15 
REMARK    3  A    between atoms: C3_3  and  C13_13 
REMARK    4  A    between atoms: C8_8  and  C10_10 
REMARK       I    between atoms: C10_10  and  N12_12 
REMARK    5  A    between atoms: C15_15  and  N16_16 
ROOT
ATOM      1  C1  MOL d          48.127  50.400  34.781  0.00  0.00     0.078 A 
ATOM      2  C2  MOL d          47.157  51.077  34.082  0.00  0.00     0.021 A 
ATOM      3  C3  MOL d          47.505  51.646  32.828  0.00  0.00     0.060 A 
ATOM      4  N4  MOL d          48.706  51.619  32.264  0.00  0.00    -0.067 NA
ATOM      5  N5  MOL d          49.376  50.384  34.248  0.00  0.00    -0.150 N 
ATOM      6  C6  MOL d          49.694  50.965  32.988  0.00  0.00     0.734 A 
ATOM      7  N7  MOL d          51.005  50.774  32.669  0.00  0.00    -0.055 NA
ATOM      8  C8  MOL d          51.498  50.060  33.769  0.00  0.00     0.160 A 
ATOM      9  C9  MOL d          50.543  49.809  34.733  0.00  0.00     0.037 A 
ATOM     10  H1  MOL d          50.676  49.274  35.672  0.00  0.00     0.117 H 
ENDROOT
BRANCH   8  11
ATOM     11  C10 MOL d          52.908  49.613  33.840  0.00  0.00     0.274 C 
ATOM     12  O11 MOL d          53.367  48.882  32.938  0.00  0.00    -0.266 OA
ATOM     13  N12 MOL d          53.537  49.729  35.090  0.00  0.00    -0.343 N 
ATOM     14  C24 MOL d          53.480  50.935  35.946  0.00  0.00     0.018 C 
ATOM     15  C28 MOL d          54.711  48.885  35.395  0.00  0.00     0.018 C 
ATOM     16  C25 MOL d          54.799  51.782  35.757  0.00  0.00     0.034 C 
ATOM     17  H13 MOL d          53.386  50.631  36.999  0.00  0.00     0.067 H 
ATOM     18  H14 MOL d          52.609  51.544  35.661  0.00  0.00     0.067 H 
ATOM     19  O26 MOL d          56.006  50.995  35.861  0.00  0.00    -0.388 OA
ATOM     20  H15 MOL d          54.825  52.564  36.531  0.00  0.00     0.076 H 
ATOM     21  H16 MOL d          54.774  52.251  34.763  0.00  0.00     0.076 H 
ATOM     22  C27 MOL d          55.998  49.725  35.160  0.00  0.00     0.034 C 
ATOM     23  H17 MOL d          56.863  49.137  35.500  0.00  0.00     0.076 H 
ATOM     24  H18 MOL d          56.089  49.924  34.082  0.00  0.00     0.076 H 
ATOM     25  H19 MOL d          54.717  48.005  34.736  0.00  0.00     0.067 H 
ATOM     26  H20 MOL d          54.669  48.557  36.444  0.00  0.00     0.067 H 
ENDBRANCH   8  11
BRANCH   1  27
ATOM     27  C14 MOL d          47.944  49.801  36.113  0.00  0.00     0.014 A 
ATOM     28  C17 MOL d          47.432  48.520  36.219  0.00  0.00    -0.068 A 
ATOM     29  C18 MOL d          47.291  47.953  37.481  0.00  0.00    -0.061 A 
ATOM     30  H10 MOL d          47.145  47.967  35.332  0.00  0.00     0.085 H 
ATOM     31  C19 MOL d          47.678  48.689  38.603  0.00  0.00     0.035 A 
ATOM     32  H11 MOL d          46.887  46.953  37.592  0.00  0.00     0.086 H 
ATOM     33  C20 MOL d          48.181  49.952  38.531  0.00  0.00    -0.040 A 
ATOM     34 CL23 MOL d          47.570  47.987  40.146  0.00  0.00    -0.084 Cl
ATOM     35  C21 MOL d          48.318  50.488  37.280  0.00  0.00     0.048 A 
ATOM     36  H12 MOL d          48.460  50.504  39.420  0.00  0.00     0.088 H 
ATOM     37 CL22 MOL d          48.965  52.052  37.179  0.00  0.00    -0.083 Cl
ENDBRANCH   1  27
BRANCH   3  38
ATOM     38  C13 MOL d          46.489  52.387  32.031  0.00  0.00    -0.034 C 
ATOM     39  H2  MOL d          46.378  51.910  31.045  0.00  0.00     0.035 H 
ATOM     40  H3  MOL d          46.815  53.430  31.899  0.00  0.00     0.035 H 
ATOM     41  H4  MOL d          45.524  52.368  32.559  0.00  0.00     0.035 H 
ENDBRANCH   3  38
BRANCH   2  42
ATOM     42  C15 MOL d          45.736  51.134  34.570  0.00  0.00     0.107 C 
ATOM     43  H5  MOL d          45.266  52.073  34.243  0.00  0.00     0.083 H 
ATOM     44  H6  MOL d          45.716  51.077  35.669  0.00  0.00     0.083 H 
BRANCH  42  45
ATOM     45  N16 MOL d          45.030  50.016  34.012  0.00  0.00    -0.075 N 
ATOM     46  H7  MOL d          44.139  50.325  33.655  0.00  0.00     0.274 HD
ATOM     47  H8  MOL d          44.881  49.321  34.727  0.00  0.00     0.274 HD
ATOM     48  H9  MOL d          45.572  49.617  33.262  0.00  0.00     0.274 HD
ENDBRANCH  42  45
ENDBRANCH   2  42
TORSDOF 5
ENDMDL
MODEL 2
REMARK VINA RESULT:      -6.1      1.809      2.130
REMARK  5 active torsions:
REMARK  status: ('A' for Active; 'I' for Inactive)
REMARK    1  A    between atoms: C1_1  and  C14_14 
REMARK    2  A    between atoms: C2_2  and  C15_15 
REMARK    3  A    between atoms: C3_3  and  C13_13 
REMARK    4  A    between atoms: C8_8  and  C10_10 
REMARK       I    between atoms: C10_10  and  N12_12 
REMARK    5  A    between atoms: C15_15  and  N16_16 
ROOT
ATOM      1  C1  MOL d          47.900  50.996  33.567  0.00  0.00     0.078 A 
ATOM      2  C2  MOL d          46.926  51.725  32.930  0.00  0.00     0.021 A 
ATOM      3  C3  MOL d          47.216  52.258  31.646  0.00  0.00     0.060 A 
ATOM      4  N4  MOL d          48.368  52.149  30.997  0.00  0.00    -0.067 NA
ATOM      5  N5  MOL d          49.103  50.895  32.946  0.00  0.00    -0.150 N 
ATOM      6  C6  MOL d          49.363  51.441  31.658  0.00  0.00     0.734 A 
ATOM      7  N7  MOL d          50.634  51.164  31.247  0.00  0.00    -0.055 NA
ATOM      8  C8  MOL d          51.159  50.431  32.320  0.00  0.00     0.160 A 
ATOM      9  C9  MOL d          50.264  50.252  33.354  0.00  0.00     0.037 A 
ATOM     10  H1  MOL d          50.432  49.720  34.289  0.00  0.00     0.117 H 
ENDROOT
BRANCH   8  11
ATOM     11  C10 MOL d          52.540  49.896  32.295  0.00  0.00     0.274 C 
ATOM     12  O11 MOL d          52.799  48.894  31.596  0.00  0.00    -0.266 OA
ATOM     13  N12 MOL d          53.390  50.314  33.332  0.00  0.00    -0.343 N 
ATOM     14  C24 MOL d          53.536  51.717  33.778  0.00  0.00     0.018 C 
ATOM     15  C28 MOL d          54.565  49.492  33.687  0.00  0.00     0.018 C 
ATOM     16  C25 MOL d          54.832  52.347  33.131  0.00  0.00     0.034 C 
ATOM     17  H13 MOL d          53.624  51.745  34.874  0.00  0.00     0.067 H 
ATOM     18  H14 MOL d          52.653  52.295  33.466  0.00  0.00     0.067 H 
ATOM     19  O26 MOL d          56.006  51.516  33.274  0.00  0.00    -0.388 OA
ATOM     20  H15 MOL d          55.029  53.314  33.615  0.00  0.00     0.076 H 
ATOM     21  H16 MOL d          54.645  52.505  32.059  0.00  0.00     0.076 H 
ATOM     22  C27 MOL d          55.820  50.103  33.003  0.00  0.00     0.034 C 
ATOM     23  H17 MOL d          56.708  49.563  33.362  0.00  0.00     0.076 H 
ATOM     24  H18 MOL d          55.722  49.969  31.916  0.00  0.00     0.076 H 
ATOM     25  H19 MOL d          54.416  48.460  33.334  0.00  0.00     0.067 H 
ATOM     26  H20 MOL d          54.701  49.490  34.778  0.00  0.00     0.067 H 
ENDBRANCH   8  11
BRANCH   1  27
ATOM     27  C14 MOL d          47.777  50.424  34.918  0.00  0.00     0.014 A 
ATOM     28  C17 MOL d          48.128  51.188  36.016  0.00  0.00    -0.068 A 
ATOM     29  C18 MOL d          47.980  50.647  37.289  0.00  0.00    -0.061 A 
ATOM     30  H10 MOL d          48.513  52.193  35.887  0.00  0.00     0.085 H 
ATOM     31  C19 MOL d          47.474  49.352  37.422  0.00  0.00     0.035 A 
ATOM     32  H11 MOL d          48.254  51.223  38.166  0.00  0.00     0.086 H 
ATOM     33  C20 MOL d          47.123  48.575  36.361  0.00  0.00    -0.040 A 
ATOM     34 CL23 MOL d          47.229  48.702  38.971  0.00  0.00    -0.084 Cl
ATOM     35  C21 MOL d          47.270  49.128  35.119  0.00  0.00     0.048 A 
ATOM     36  H12 MOL d          46.746  47.568  36.494  0.00  0.00     0.088 H 
ATOM     37 CL22 MOL d          46.814  48.176  33.791  0.00  0.00    -0.083 Cl
ENDBRANCH   1  27
BRANCH   3  38
ATOM     38  C13 MOL d          46.193  53.053  30.913  0.00  0.00    -0.034 C 
ATOM     39  H2  MOL d          46.204  52.774  29.849  0.00  0.00     0.035 H 
ATOM     40  H3  MOL d          46.421  54.125  31.013  0.00  0.00     0.035 H 
ATOM     41  H4  MOL d          45.198  52.849  31.335  0.00  0.00     0.035 H 
ENDBRANCH   3  38
BRANCH   2  42
ATOM     42  C15 MOL d          45.550  51.878  33.519  0.00  0.00     0.107 C 
ATOM     43  H5  MOL d          45.113  52.835  33.202  0.00  0.00     0.083 H 
ATOM     44  H6  MOL d          45.609  51.848  34.617  0.00  0.00     0.083 H 
BRANCH  42  45
ATOM     45  N16 MOL d          44.741  50.792  33.044  0.00  0.00    -0.075 N 
ATOM     46  H7  MOL d          44.834  50.006  33.669  0.00  0.00     0.274 HD
ATOM     47  H8  MOL d          45.045  50.525  32.121  0.00  0.00     0.274 HD
ATOM     48  H9  MOL d          43.776  51.082  33.010  0.00  0.00     0.274 HD
ENDBRANCH  42  45
ENDBRANCH   2  42
TORSDOF 5
ENDMDL
MODEL 3
REMARK VINA RESULT:      -5.6      2.878      4.297
REMARK  5 active torsions:
REMARK  status: ('A' for Active; 'I' for Inactive)
REMARK    1  A    between atoms: C1_1  and  C14_14 
REMARK    2  A    between atoms: C2_2  and  C15_15 
REMARK    3  A    between atoms: C3_3  and  C13_13 
REMARK    4  A    between atoms: C8_8  and  C10_10 
REMARK       I    between atoms: C10_10  and  N12_12 
REMARK    5  A    between atoms: C15_15  and  N16_16 
ROOT
ATOM      1  C1  MOL d          48.465  50.353  34.717  0.00  0.00     0.078 A 
ATOM      2  C2  MOL d          48.171  50.663  36.023  0.00  0.00     0.021 A 
ATOM      3  C3  MOL d          49.234  51.061  36.876  0.00  0.00     0.060 A 
ATOM      4  N4  MOL d          50.516  51.135  36.543  0.00  0.00    -0.067 NA
ATOM      5  N5  MOL d          49.773  50.385  34.353  0.00  0.00    -0.150 N 
ATOM      6  C6  MOL d          50.817  50.788  35.233  0.00  0.00     0.734 A 
ATOM      7  N7  MOL d          52.029  50.770  34.609  0.00  0.00    -0.055 NA
ATOM      8  C8  MOL d          51.710  50.339  33.314  0.00  0.00     0.160 A 
ATOM      9  C9  MOL d          50.364  50.102  33.129  0.00  0.00     0.037 A 
ATOM     10  H1  MOL d          49.870  49.765  32.219  0.00  0.00     0.117 H 
ENDROOT
BRANCH   8  11
ATOM     11  C10 MOL d          52.746  50.192  32.265  0.00  0.00     0.274 C 
ATOM     12  O11 MOL d          52.867  51.076  31.392  0.00  0.00    -0.266 OA
ATOM     13  N12 MOL d          53.282  48.905  32.095  0.00  0.00    -0.343 N 
ATOM     14  C24 MOL d          53.739  48.036  33.202  0.00  0.00     0.018 C 
ATOM     15  C28 MOL d          53.911  48.543  30.808  0.00  0.00     0.018 C 
ATOM     16  C25 MOL d          55.309  48.134  33.339  0.00  0.00     0.034 C 
ATOM     17  H13 MOL d          53.453  46.995  32.992  0.00  0.00     0.067 H 
ATOM     18  H14 MOL d          53.268  48.363  34.142  0.00  0.00     0.067 H 
ATOM     19  O26 MOL d          56.006  47.970  32.084  0.00  0.00    -0.388 OA
ATOM     20  H15 MOL d          55.649  47.349  34.031  0.00  0.00     0.076 H 
ATOM     21  H16 MOL d          55.563  49.121  33.752  0.00  0.00     0.076 H 
ATOM     22  C27 MOL d          55.452  48.689  30.952  0.00  0.00     0.034 C 
ATOM     23  H17 MOL d          55.924  48.307  30.035  0.00  0.00     0.076 H 
ATOM     24  H18 MOL d          55.689  49.757  31.071  0.00  0.00     0.076 H 
ATOM     25  H19 MOL d          53.547  49.214  30.015  0.00  0.00     0.067 H 
ATOM     26  H20 MOL d          53.660  47.503  30.551  0.00  0.00     0.067 H 
ENDBRANCH   8  11
BRANCH   1  27
ATOM     27  C14 MOL d          47.490  49.875  33.723  0.00  0.00     0.014 A 
ATOM     28  C17 MOL d          47.094  48.549  33.742  0.00  0.00    -0.068 A 
ATOM     29  C18 MOL d          46.150  48.116  32.817  0.00  0.00    -0.061 A 
ATOM     30  H10 MOL d          47.512  47.860  34.466  0.00  0.00     0.085 H 
ATOM     31  C19 MOL d          45.625  49.031  31.902  0.00  0.00     0.035 A 
ATOM     32  H11 MOL d          45.827  47.081  32.806  0.00  0.00     0.086 H 
ATOM     33  C20 MOL d          45.998  50.340  31.857  0.00  0.00    -0.040 A 
ATOM     34 CL23 MOL d          44.426  48.532  30.808  0.00  0.00    -0.084 Cl
ATOM     35  C21 MOL d          46.922  50.747  32.780  0.00  0.00     0.048 A 
ATOM     36  H12 MOL d          45.584  51.025  31.127  0.00  0.00     0.088 H 
ATOM     37 CL22 MOL d          47.376  52.381  32.747  0.00  0.00    -0.083 Cl
ENDBRANCH   1  27
BRANCH   3  38
ATOM     38  C13 MOL d          48.967  51.410  38.298  0.00  0.00    -0.034 C 
ATOM     39  H2  MOL d          47.942  51.108  38.563  0.00  0.00     0.035 H 
ATOM     40  H3  MOL d          49.077  52.496  38.437  0.00  0.00     0.035 H 
ATOM     41  H4  MOL d          49.683  50.882  38.946  0.00  0.00     0.035 H 
ENDBRANCH   3  38
BRANCH   2  42
ATOM     42  C15 MOL d          46.752  50.683  36.522  0.00  0.00     0.107 C 
ATOM     43  H5  MOL d          46.743  50.643  37.620  0.00  0.00     0.083 H 
ATOM     44  H6  MOL d          46.202  49.820  36.118  0.00  0.00     0.083 H 
BRANCH  42  45
ATOM     45  N16 MOL d          46.141  51.903  36.074  0.00  0.00    -0.075 N 
ATOM     46  H7  MOL d          46.850  52.609  35.955  0.00  0.00     0.274 HD
ATOM     47  H8  MOL d          45.470  52.213  36.758  0.00  0.00     0.274 HD
ATOM     48  H9  MOL d          45.676  51.742  35.194  0.00  0.00     0.274 HD
ENDBRANCH  42  45
ENDBRANCH   2  42
TORSDOF 5
ENDMDL
MODEL 4
REMARK VINA RESULT:      -5.1      2.976      4.213
REMARK  5 active torsions:
REMARK  status: ('A' for Active; 'I' for Inactive)
REMARK    1  A    between atoms: C1_1  and  C14_14 
REMARK    2  A    between atoms: C2_2  and  C15_15 
REMARK    3  A    between atoms: C3_3  and  C13_13 
REMARK    4  A    between atoms: C8_8  and  C10_10 
REMARK       I    between atoms: C10_10  and  N12_12 
REMARK    5  A    between atoms: C15_15  and  N16_16 
ROOT
ATOM      1  C1  MOL d          48.566  50.360  34.817  0.00  0.00     0.078 A 
ATOM      2  C2  MOL d          48.235  50.665  36.114  0.00  0.00     0.021 A 
ATOM      3  C3  MOL d          49.270  51.078  36.994  0.00  0.00     0.060 A 
ATOM      4  N4  MOL d          50.559  51.171  36.694  0.00  0.00    -0.067 NA
ATOM      5  N5  MOL d          49.883  50.411  34.486  0.00  0.00    -0.150 N 
ATOM      6  C6  MOL d          50.898  50.828  35.392  0.00  0.00     0.734 A 
ATOM      7  N7  MOL d          52.125  50.828  34.798  0.00  0.00    -0.055 NA
ATOM      8  C8  MOL d          51.846  50.393  33.496  0.00  0.00     0.160 A 
ATOM      9  C9  MOL d          50.508  50.137  33.277  0.00  0.00     0.037 A 
ATOM     10  H1  MOL d          50.043  49.794  32.355  0.00  0.00     0.117 H 
ENDROOT
BRANCH   8  11
ATOM     11  C10 MOL d          52.910  50.261  32.474  0.00  0.00     0.274 C 
ATOM     12  O11 MOL d          52.847  49.338  31.636  0.00  0.00    -0.266 OA
ATOM     13  N12 MOL d          54.107  50.950  32.728  0.00  0.00    -0.343 N 
ATOM     14  C24 MOL d          54.183  52.359  33.174  0.00  0.00     0.018 C 
ATOM     15  C28 MOL d          55.356  50.504  32.075  0.00  0.00     0.018 C 
ATOM     16  C25 MOL d          54.490  53.290  31.936  0.00  0.00     0.034 C 
ATOM     17  H13 MOL d          54.986  52.464  33.919  0.00  0.00     0.067 H 
ATOM     18  H14 MOL d          53.223  52.652  33.625  0.00  0.00     0.067 H 
ATOM     19  O26 MOL d          55.594  52.827  31.128  0.00  0.00    -0.388 OA
ATOM     20  H15 MOL d          54.729  54.297  32.308  0.00  0.00     0.076 H 
ATOM     21  H16 MOL d          53.591  53.337  31.304  0.00  0.00     0.076 H 
ATOM     22  C27 MOL d          55.613  51.406  30.835  0.00  0.00     0.034 C 
ATOM     23  H17 MOL d          56.599  51.152  30.420  0.00  0.00     0.076 H 
ATOM     24  H18 MOL d          54.834  51.196  30.087  0.00  0.00     0.076 H 
ATOM     25  H19 MOL d          55.254  49.456  31.757  0.00  0.00     0.067 H 
ATOM     26  H20 MOL d          56.195  50.594  32.779  0.00  0.00     0.067 H 
ENDBRANCH   8  11
BRANCH   1  27
ATOM     27  C14 MOL d          47.624  49.868  33.798  0.00  0.00     0.014 A 
ATOM     28  C17 MOL d          47.283  48.528  33.777  0.00  0.00    -0.068 A 
ATOM     29  C18 MOL d          46.369  48.080  32.829  0.00  0.00    -0.061 A 
ATOM     30  H10 MOL d          47.720  47.837  34.489  0.00  0.00     0.085 H 
ATOM     31  C19 MOL d          45.816  48.997  31.932  0.00  0.00     0.035 A 
ATOM     32  H11 MOL d          46.089  47.033  32.788  0.00  0.00     0.086 H 
ATOM     33  C20 MOL d          46.135  50.320  31.926  0.00  0.00    -0.040 A 
ATOM     34 CL23 MOL d          44.653  48.477  30.810  0.00  0.00    -0.084 Cl
ATOM     35  C21 MOL d          47.031  50.741  32.870  0.00  0.00     0.048 A 
ATOM     36  H12 MOL d          45.702  51.006  31.209  0.00  0.00     0.088 H 
ATOM     37 CL22 MOL d          47.417  52.393  32.885  0.00  0.00    -0.083 Cl
ENDBRANCH   1  27
BRANCH   3  38
ATOM     38  C13 MOL d          48.962  51.422  38.409  0.00  0.00    -0.034 C 
ATOM     39  H2  MOL d          49.089  52.504  38.560  0.00  0.00     0.035 H 
ATOM     40  H3  MOL d          49.645  50.876  39.077  0.00  0.00     0.035 H 
ATOM     41  H4  MOL d          47.922  51.140  38.637  0.00  0.00     0.035 H 
ENDBRANCH   3  38
BRANCH   2  42
ATOM     42  C15 MOL d          46.803  50.665  36.577  0.00  0.00     0.107 C 
ATOM     43  H5  MOL d          46.766  50.570  37.672  0.00  0.00     0.083 H 
ATOM     44  H6  MOL d          46.263  49.824  36.117  0.00  0.00     0.083 H 
BRANCH  42  45
ATOM     45  N16 MOL d          46.206  51.906  36.175  0.00  0.00    -0.075 N 
ATOM     46  H7  MOL d          46.611  52.662  36.706  0.00  0.00     0.274 HD
ATOM     47  H8  MOL d          45.213  51.872  36.344  0.00  0.00     0.274 HD
ATOM     48  H9  MOL d          46.376  52.058  35.193  0.00  0.00     0.274 HD
ENDBRANCH  42  45
ENDBRANCH   2  42
TORSDOF 5
ENDMDL
