MODEL 1
REMARK VINA RESULT:      -5.8      0.000      0.000
REMARK  2 active torsions:
REMARK  status: ('A' for Active; 'I' for Inactive)
REMARK    1  A    between atoms: C4_4  and  S_7 
REMARK    2  A    between atoms: S_7  and  N2_8 
ROOT
ATOM      1  C1  FBV d          14.947   6.848  15.412  0.00  0.00    -0.080 A 
ATOM      2  C2  FBV d          14.334   5.877  16.198  0.00  0.00    -0.081 A 
ATOM      3  C3  FBV d          14.856   4.577  16.312  0.00  0.00    -0.057 A 
ATOM      4  C4  FBV d          16.022   4.230  15.570  0.00  0.00     0.117 A 
ATOM      5  C5  FBV d          16.590   5.296  14.793  0.00  0.00     0.139 A 
ATOM      6  C6  FBV d          16.081   6.562  14.711  0.00  0.00    -0.044 A 
ATOM      7  F   FBV d          17.734   4.982  14.144  0.00  0.00    -0.204 F 
ATOM      8  H1  FBV d          14.518   7.842  15.356  0.00  0.00     0.083 H 
ATOM      9  H2  FBV d          13.429   6.131  16.738  0.00  0.00     0.083 H 
ATOM     10  H3  FBV d          14.377   3.848  16.955  0.00  0.00     0.086 H 
ATOM     11  H4  FBV d          16.566   7.319  14.106  0.00  0.00     0.088 H 
ENDROOT
BRANCH   4  12
ATOM     12  S   FBV d          16.739   2.626  15.648  0.00  0.00     0.259 S 
ATOM     13  O1  FBV d          18.092   2.847  16.193  0.00  0.00    -0.201 OA
ATOM     14  O2  FBV d          15.805   1.854  16.394  0.00  0.00    -0.201 OA
BRANCH  12  15
ATOM     15  N2  FBV d          16.816   2.058  14.152  0.00  0.00    -0.324 N 
ATOM     16  H5  FBV d          17.692   1.756  13.776  0.00  0.00     0.169 HD
ATOM     17  H6  FBV d          15.988   2.005  13.594  0.00  0.00     0.169 HD
ENDBRANCH  12  15
ENDBRANCH   4  12
TORSDOF 2
ENDMDL
MODEL 2
REMARK VINA RESULT:      -5.7      1.709      2.270
REMARK  2 active torsions:
REMARK  status: ('A' for Active; 'I' for Inactive)
REMARK    1  A    between atoms: C4_4  and  S_7 
REMARK    2  A    between atoms: S_7  and  N2_8 
ROOT
ATOM      1  C1  FBV d          14.007   5.903  16.711  0.00  0.00    -0.080 A 
ATOM      2  C2  FBV d          14.695   6.116  15.521  0.00  0.00    -0.081 A 
ATOM      3  C3  FBV d          15.656   5.208  15.046  0.00  0.00    -0.057 A 
ATOM      4  C4  FBV d          15.965   4.055  15.826  0.00  0.00     0.117 A 
ATOM      5  C5  FBV d          15.202   3.913  17.034  0.00  0.00     0.139 A 
ATOM      6  C6  FBV d          14.254   4.797  17.468  0.00  0.00    -0.044 A 
ATOM      7  F   FBV d          15.450   2.785  17.736  0.00  0.00    -0.204 F 
ATOM      8  H1  FBV d          13.267   6.624  17.039  0.00  0.00     0.083 H 
ATOM      9  H2  FBV d          14.483   7.009  14.943  0.00  0.00     0.083 H 
ATOM     10  H3  FBV d          16.156   5.381  14.101  0.00  0.00     0.086 H 
ATOM     11  H4  FBV d          13.712   4.623  18.392  0.00  0.00     0.088 H 
ENDROOT
BRANCH   4  12
ATOM     12  S   FBV d          17.158   2.869  15.312  0.00  0.00     0.259 S 
ATOM     13  O1  FBV d          18.316   3.094  16.197  0.00  0.00    -0.201 OA
ATOM     14  O2  FBV d          16.469   1.625  15.367  0.00  0.00    -0.201 OA
BRANCH  12  15
ATOM     15  N2  FBV d          17.536   3.193  13.789  0.00  0.00    -0.324 N 
ATOM     16  H5  FBV d          18.404   2.871  13.410  0.00  0.00     0.169 HD
ATOM     17  H6  FBV d          16.905   3.717  13.217  0.00  0.00     0.169 HD
ENDBRANCH  12  15
ENDBRANCH   4  12
TORSDOF 2
ENDMDL
MODEL 3
REMARK VINA RESULT:      -5.7      2.307      3.156
REMARK  2 active torsions:
REMARK  status: ('A' for Active; 'I' for Inactive)
REMARK    1  A    between atoms: C4_4  and  S_7 
REMARK    2  A    between atoms: S_7  and  N2_8 
ROOT
ATOM      1  C1  FBV d          14.233   3.071  17.254  0.00  0.00    -0.080 A 
ATOM      2  C2  FBV d          14.068   4.328  16.680  0.00  0.00    -0.081 A 
ATOM      3  C3  FBV d          15.054   4.905  15.863  0.00  0.00    -0.057 A 
ATOM      4  C4  FBV d          16.276   4.204  15.648  0.00  0.00     0.117 A 
ATOM      5  C5  FBV d          16.356   2.913  16.273  0.00  0.00     0.139 A 
ATOM      6  C6  FBV d          15.376   2.357  17.047  0.00  0.00    -0.044 A 
ATOM      7  F   FBV d          17.488   2.222  16.012  0.00  0.00    -0.204 F 
ATOM      8  H1  FBV d          13.446   2.656  17.873  0.00  0.00     0.083 H 
ATOM      9  H2  FBV d          13.152   4.877  16.869  0.00  0.00     0.083 H 
ATOM     10  H3  FBV d          14.889   5.873  15.402  0.00  0.00     0.086 H 
ATOM     11  H4  FBV d          15.504   1.374  17.486  0.00  0.00     0.088 H 
ENDROOT
BRANCH   4  12
ATOM     12  S   FBV d          17.566   4.854  14.645  0.00  0.00     0.259 S 
ATOM     13  O1  FBV d          17.052   6.152  14.168  0.00  0.00    -0.201 OA
ATOM     14  O2  FBV d          18.716   4.824  15.482  0.00  0.00    -0.201 OA
BRANCH  12  15
ATOM     15  N2  FBV d          17.781   3.844  13.420  0.00  0.00    -0.324 N 
ATOM     16  H5  FBV d          18.666   3.803  12.955  0.00  0.00     0.169 HD
ATOM     17  H6  FBV d          17.031   3.254  13.120  0.00  0.00     0.169 HD
ENDBRANCH  12  15
ENDBRANCH   4  12
TORSDOF 2
ENDMDL
MODEL 4
REMARK VINA RESULT:      -5.6      1.545      2.109
REMARK  2 active torsions:
REMARK  status: ('A' for Active; 'I' for Inactive)
REMARK    1  A    between atoms: C4_4  and  S_7 
REMARK    2  A    between atoms: S_7  and  N2_8 
ROOT
ATOM      1  C1  FBV d          15.614   7.228  14.210  0.00  0.00    -0.080 A 
ATOM      2  C2  FBV d          16.970   6.918  14.254  0.00  0.00    -0.081 A 
ATOM      3  C3  FBV d          17.438   5.713  14.803  0.00  0.00    -0.057 A 
ATOM      4  C4  FBV d          16.502   4.799  15.369  0.00  0.00     0.117 A 
ATOM      5  C5  FBV d          15.126   5.197  15.273  0.00  0.00     0.139 A 
ATOM      6  C6  FBV d          14.687   6.365  14.714  0.00  0.00    -0.044 A 
ATOM      7  F   FBV d          14.237   4.297  15.749  0.00  0.00    -0.204 F 
ATOM      8  H1  FBV d          15.292   8.165  13.771  0.00  0.00     0.083 H 
ATOM      9  H2  FBV d          17.685   7.628  13.853  0.00  0.00     0.083 H 
ATOM     10  H3  FBV d          18.497   5.481  14.798  0.00  0.00     0.086 H 
ATOM     11  H4  FBV d          13.629   6.599  14.672  0.00  0.00     0.088 H 
ENDROOT
BRANCH   4  12
ATOM     12  S   FBV d          17.000   3.270  16.082  0.00  0.00     0.259 S 
ATOM     13  O1  FBV d          18.468   3.367  16.189  0.00  0.00    -0.201 OA
ATOM     14  O2  FBV d          16.220   3.160  17.267  0.00  0.00    -0.201 OA
BRANCH  12  15
ATOM     15  N2  FBV d          16.581   2.103  15.067  0.00  0.00    -0.324 N 
ATOM     16  H5  FBV d          15.665   2.095  14.666  0.00  0.00     0.169 HD
ATOM     17  H6  FBV d          17.234   1.383  14.835  0.00  0.00     0.169 HD
ENDBRANCH  12  15
ENDBRANCH   4  12
TORSDOF 2
ENDMDL
MODEL 5
REMARK VINA RESULT:      -5.4      2.107      2.595
REMARK  2 active torsions:
REMARK  status: ('A' for Active; 'I' for Inactive)
REMARK    1  A    between atoms: C4_4  and  S_7 
REMARK    2  A    between atoms: S_7  and  N2_8 
ROOT
ATOM      1  C1  FBV d          15.790   6.754  14.023  0.00  0.00    -0.080 A 
ATOM      2  C2  FBV d          16.493   5.618  13.633  0.00  0.00    -0.081 A 
ATOM      3  C3  FBV d          16.405   4.411  14.346  0.00  0.00    -0.057 A 
ATOM      4  C4  FBV d          15.606   4.358  15.525  0.00  0.00     0.117 A 
ATOM      5  C5  FBV d          14.912   5.574  15.847  0.00  0.00     0.139 A 
ATOM      6  C6  FBV d          14.993   6.734  15.128  0.00  0.00    -0.044 A 
ATOM      7  F   FBV d          14.103   5.500  16.928  0.00  0.00    -0.204 F 
ATOM      8  H1  FBV d          15.878   7.665  13.441  0.00  0.00     0.083 H 
ATOM      9  H2  FBV d          17.126   5.666  12.754  0.00  0.00     0.083 H 
ATOM     10  H3  FBV d          16.938   3.531  14.005  0.00  0.00     0.086 H 
ATOM     11  H4  FBV d          14.436   7.615  15.428  0.00  0.00     0.088 H 
ENDROOT
BRANCH   4  12
ATOM     12  S   FBV d          15.444   2.891  16.482  0.00  0.00     0.259 S 
ATOM     13  O1  FBV d          16.048   1.833  15.652  0.00  0.00    -0.201 OA
ATOM     14  O2  FBV d          16.034   3.217  17.736  0.00  0.00    -0.201 OA
BRANCH  12  15
ATOM     15  N2  FBV d          13.878   2.623  16.693  0.00  0.00    -0.324 N 
ATOM     16  H5  FBV d          13.207   3.114  16.137  0.00  0.00     0.169 HD
ATOM     17  H6  FBV d          13.571   1.964  17.380  0.00  0.00     0.169 HD
ENDBRANCH  12  15
ENDBRANCH   4  12
TORSDOF 2
ENDMDL
MODEL 6
REMARK VINA RESULT:      -5.1      2.953      3.538
REMARK  2 active torsions:
REMARK  status: ('A' for Active; 'I' for Inactive)
REMARK    1  A    between atoms: C4_4  and  S_7 
REMARK    2  A    between atoms: S_7  and  N2_8 
ROOT
ATOM      1  C1  FBV d          14.983   2.391  17.359  0.00  0.00    -0.080 A 
ATOM      2  C2  FBV d          14.096   3.454  17.222  0.00  0.00    -0.081 A 
ATOM      3  C3  FBV d          14.356   4.531  16.358  0.00  0.00    -0.057 A 
ATOM      4  C4  FBV d          15.582   4.558  15.633  0.00  0.00     0.117 A 
ATOM      5  C5  FBV d          16.433   3.418  15.830  0.00  0.00     0.139 A 
ATOM      6  C6  FBV d          16.152   2.367  16.658  0.00  0.00    -0.044 A 
ATOM      7  F   FBV d          17.563   3.414  15.089  0.00  0.00    -0.204 F 
ATOM      8  H1  FBV d          14.743   1.575  18.030  0.00  0.00     0.083 H 
ATOM      9  H2  FBV d          13.177   3.450  17.798  0.00  0.00     0.083 H 
ATOM     10  H3  FBV d          13.634   5.332  16.246  0.00  0.00     0.086 H 
ATOM     11  H4  FBV d          16.842   1.536  16.756  0.00  0.00     0.088 H 
ENDROOT
BRANCH   4  12
ATOM     12  S   FBV d          15.993   5.869  14.534  0.00  0.00     0.259 S 
ATOM     13  O1  FBV d          17.333   6.311  14.963  0.00  0.00    -0.201 OA
ATOM     14  O2  FBV d          15.824   5.312  13.236  0.00  0.00    -0.201 OA
BRANCH  12  15
ATOM     15  N2  FBV d          14.915   7.035  14.750  0.00  0.00    -0.324 N 
ATOM     16  H5  FBV d          14.147   7.129  14.117  0.00  0.00     0.169 HD
ATOM     17  H6  FBV d          15.011   7.670  15.517  0.00  0.00     0.169 HD
ENDBRANCH  12  15
ENDBRANCH   4  12
TORSDOF 2
ENDMDL
MODEL 7
REMARK VINA RESULT:      -4.0      1.571      1.915
REMARK  2 active torsions:
REMARK  status: ('A' for Active; 'I' for Inactive)
REMARK    1  A    between atoms: C4_4  and  S_7 
REMARK    2  A    between atoms: S_7  and  N2_8 
ROOT
ATOM      1  C1  FBV d          15.855   7.055  14.278  0.00  0.00    -0.080 A 
ATOM      2  C2  FBV d          14.883   6.832  15.248  0.00  0.00    -0.081 A 
ATOM      3  C3  FBV d          14.838   5.641  15.993  0.00  0.00    -0.057 A 
ATOM      4  C4  FBV d          15.789   4.616  15.719  0.00  0.00     0.117 A 
ATOM      5  C5  FBV d          16.758   4.936  14.709  0.00  0.00     0.139 A 
ATOM      6  C6  FBV d          16.800   6.110  14.010  0.00  0.00    -0.044 A 
ATOM      7  F   FBV d          17.699   3.988  14.500  0.00  0.00    -0.204 F 
ATOM      8  H1  FBV d          15.862   7.990  13.731  0.00  0.00     0.083 H 
ATOM      9  H2  FBV d          14.139   7.599  15.435  0.00  0.00     0.083 H 
ATOM     10  H3  FBV d          14.089   5.504  16.765  0.00  0.00     0.086 H 
ATOM     11  H4  FBV d          17.564   6.285  13.261  0.00  0.00     0.088 H 
ENDROOT
BRANCH   4  12
ATOM     12  S   FBV d          15.803   3.092  16.598  0.00  0.00     0.259 S 
ATOM     13  O1  FBV d          15.487   2.070  15.581  0.00  0.00    -0.201 OA
ATOM     14  O2  FBV d          17.070   3.065  17.244  0.00  0.00    -0.201 OA
BRANCH  12  15
ATOM     15  N2  FBV d          14.648   3.163  17.707  0.00  0.00    -0.324 N 
ATOM     16  H5  FBV d          13.688   3.169  17.430  0.00  0.00     0.169 HD
ATOM     17  H6  FBV d          14.888   3.202  18.677  0.00  0.00     0.169 HD
ENDBRANCH  12  15
ENDBRANCH   4  12
TORSDOF 2
ENDMDL
MODEL 8
REMARK VINA RESULT:      -3.6      3.051      3.744
REMARK  2 active torsions:
REMARK  status: ('A' for Active; 'I' for Inactive)
REMARK    1  A    between atoms: C4_4  and  S_7 
REMARK    2  A    between atoms: S_7  and  N2_8 
ROOT
ATOM      1  C1  FBV d          16.294   2.092  15.888  0.00  0.00    -0.080 A 
ATOM      2  C2  FBV d          15.516   2.962  16.645  0.00  0.00    -0.081 A 
ATOM      3  C3  FBV d          15.427   4.331  16.343  0.00  0.00    -0.057 A 
ATOM      4  C4  FBV d          16.185   4.852  15.255  0.00  0.00     0.117 A 
ATOM      5  C5  FBV d          16.953   3.881  14.526  0.00  0.00     0.139 A 
ATOM      6  C6  FBV d          17.011   2.548  14.822  0.00  0.00    -0.044 A 
ATOM      7  F   FBV d          17.618   4.368  13.454  0.00  0.00    -0.204 F 
ATOM      8  H1  FBV d          16.331   1.040  16.149  0.00  0.00     0.083 H 
ATOM      9  H2  FBV d          14.963   2.572  17.493  0.00  0.00     0.083 H 
ATOM     10  H3  FBV d          14.789   4.983  16.929  0.00  0.00     0.086 H 
ATOM     11  H4  FBV d          17.610   1.871  14.224  0.00  0.00     0.088 H 
ENDROOT
BRANCH   4  12
ATOM     12  S   FBV d          16.138   6.553  14.809  0.00  0.00     0.259 S 
ATOM     13  O1  FBV d          15.012   7.111  15.581  0.00  0.00    -0.201 OA
ATOM     14  O2  FBV d          17.457   7.024  15.061  0.00  0.00    -0.201 OA
BRANCH  12  15
ATOM     15  N2  FBV d          15.843   6.632  13.236  0.00  0.00    -0.324 N 
ATOM     16  H5  FBV d          15.028   7.108  12.904  0.00  0.00     0.169 HD
ATOM     17  H6  FBV d          16.472   6.206  12.587  0.00  0.00     0.169 HD
ENDBRANCH  12  15
ENDBRANCH   4  12
TORSDOF 2
ENDMDL
MODEL 9
REMARK VINA RESULT:      -3.6      1.811      2.343
REMARK  2 active torsions:
REMARK  status: ('A' for Active; 'I' for Inactive)
REMARK    1  A    between atoms: C4_4  and  S_7 
REMARK    2  A    between atoms: S_7  and  N2_8 
ROOT
ATOM      1  C1  FBV d          15.019   6.951  14.326  0.00  0.00    -0.080 A 
ATOM      2  C2  FBV d          15.890   6.213  13.531  0.00  0.00    -0.081 A 
ATOM      3  C3  FBV d          16.377   4.957  13.932  0.00  0.00    -0.057 A 
ATOM      4  C4  FBV d          16.002   4.442  15.207  0.00  0.00     0.117 A 
ATOM      5  C5  FBV d          15.096   5.268  15.956  0.00  0.00     0.139 A 
ATOM      6  C6  FBV d          14.615   6.478  15.539  0.00  0.00    -0.044 A 
ATOM      7  F   FBV d          14.690   4.745  17.134  0.00  0.00    -0.204 F 
ATOM      8  H1  FBV d          14.659   7.912  13.978  0.00  0.00     0.083 H 
ATOM      9  H2  FBV d          16.201   6.618  12.574  0.00  0.00     0.083 H 
ATOM     10  H3  FBV d          17.030   4.387  13.280  0.00  0.00     0.086 H 
ATOM     11  H4  FBV d          13.929   7.047  16.157  0.00  0.00     0.088 H 
ENDROOT
BRANCH   4  12
ATOM     12  S   FBV d          16.568   2.883  15.791  0.00  0.00     0.259 S 
ATOM     13  O1  FBV d          15.751   2.612  16.989  0.00  0.00    -0.201 OA
ATOM     14  O2  FBV d          16.462   2.021  14.665  0.00  0.00    -0.201 OA
BRANCH  12  15
ATOM     15  N2  FBV d          18.113   3.047  16.184  0.00  0.00    -0.324 N 
ATOM     16  H5  FBV d          18.571   2.337  16.719  0.00  0.00     0.169 HD
ATOM     17  H6  FBV d          18.620   3.859  15.895  0.00  0.00     0.169 HD
ENDBRANCH  12  15
ENDBRANCH   4  12
TORSDOF 2
ENDMDL
