MODEL 1
REMARK VINA RESULT:      -8.3      0.000      0.000
REMARK  13 active torsions:
REMARK  status: ('A' for Active; 'I' for Inactive)
REMARK    1  A    between atoms: C6_6  and  O25_25 
REMARK    2  A    between atoms: C8_8  and  C27_27 
REMARK    3  A    between atoms: C10_10  and  O28_28 
REMARK    4  A    between atoms: C11_11  and  O30_30 
REMARK    5  A    between atoms: C12_12  and  C31_31 
REMARK    6  A    between atoms: C14_14  and  C32_32 
REMARK    7  A    between atoms: C15_15  and  O33_33 
REMARK    8  A    between atoms: C16_16  and  O37_37 
REMARK    9  A    between atoms: C20_20  and  C39_39 
REMARK   10  A    between atoms: O25_25  and  C26_26 
REMARK   11  A    between atoms: O28_28  and  C29_29 
REMARK   12  A    between atoms: O33_33  and  C34_34 
REMARK       I    between atoms: C34_34  and  N36_36 
REMARK   13  A    between atoms: O37_37  and  C38_38 
ROOT
ATOM      1  C1  GMY d          25.993 -34.404  -5.318  0.00  0.00     0.032 A 
ATOM      2  C2  GMY d          26.064 -34.098  -3.824  0.00  0.00     0.207 A 
ATOM      3  C3  GMY d          25.650 -32.716  -3.299  0.00  0.00     0.090 A 
ATOM      4  C4  GMY d          25.174 -31.691  -4.228  0.00  0.00    -0.002 A 
ATOM      5  C5  GMY d          25.116 -31.989  -5.731  0.00  0.00     0.208 A 
ATOM      6  C6  GMY d          25.519 -33.373  -6.246  0.00  0.00     0.128 A 
ATOM      7  C7  GMY d          25.839 -35.882  -5.712  0.00  0.00    -0.031 C 
ATOM      8  C8  GMY d          24.325 -36.100  -5.562  0.00  0.00    -0.051 C 
ATOM      9  C9  GMY d          23.710 -36.295  -6.956  0.00  0.00    -0.035 C 
ATOM     10  C10 GMY d          22.343 -36.985  -6.850  0.00  0.00     0.063 C 
ATOM     11  C11 GMY d          21.360 -36.364  -7.864  0.00  0.00     0.067 C 
ATOM     12  C12 GMY d          21.202 -34.855  -7.577  0.00  0.00    -0.014 C 
ATOM     13  C13 GMY d          20.315 -34.668  -6.341  0.00  0.00    -0.092 C 
ATOM     14  C14 GMY d          20.513 -33.535  -5.439  0.00  0.00    -0.055 C 
ATOM     15  C15 GMY d          19.582 -33.390  -4.241  0.00  0.00     0.099 C 
ATOM     16  C16 GMY d          20.410 -33.561  -2.959  0.00  0.00     0.083 C 
ATOM     17  C17 GMY d          20.815 -35.041  -2.827  0.00  0.00    -0.073 C 
ATOM     18  C18 GMY d          22.088 -35.346  -2.156  0.00  0.00    -0.083 C 
ATOM     19  C19 GMY d          23.144 -34.241  -2.027  0.00  0.00    -0.072 C 
ATOM     20  C20 GMY d          24.385 -34.546  -1.302  0.00  0.00     0.006 C 
ATOM     21  C21 GMY d          25.241 -33.357  -0.872  0.00  0.00     0.251 C 
ATOM     22  N22 GMY d          25.719 -32.420  -1.870  0.00  0.00    -0.320 N 
ATOM     23  O23 GMY d          26.444 -34.957  -3.074  0.00  0.00    -0.285 OA
ATOM     24  O24 GMY d          24.736 -31.164  -6.508  0.00  0.00    -0.285 OA
ATOM     25  O40 GMY d          25.512 -33.210   0.283  0.00  0.00    -0.268 OA
ATOM     26  H1  GMY d          24.863 -30.717  -3.853  0.00  0.00     0.093 H 
ATOM     27  H2  GMY d          26.405 -36.537  -5.034  0.00  0.00     0.041 H 
ATOM     28  H3  GMY d          26.167 -36.056  -6.748  0.00  0.00     0.041 H 
ATOM     29  H4  GMY d          23.883 -35.190  -5.129  0.00  0.00     0.040 H 
ATOM     30  H5  GMY d          24.383 -36.917  -7.564  0.00  0.00     0.037 H 
ATOM     31  H6  GMY d          23.583 -35.313  -7.436  0.00  0.00     0.037 H 
ATOM     32  H7  GMY d          21.943 -36.859  -5.833  0.00  0.00     0.087 H 
ATOM     33  H8  GMY d          20.382 -36.860  -7.774  0.00  0.00     0.087 H 
ATOM     34  H9  GMY d          22.188 -34.391  -7.425  0.00  0.00     0.049 H 
ATOM     35  H10 GMY d          19.527 -35.390  -6.132  0.00  0.00     0.078 H 
ATOM     36  H11 GMY d          18.759 -34.118  -4.279  0.00  0.00     0.096 H 
ATOM     37  H12 GMY d          21.313 -32.935  -3.016  0.00  0.00     0.094 H 
ATOM     38  H13 GMY d          20.182 -35.835  -3.219  0.00  0.00     0.081 H 
ATOM     39  H14 GMY d          22.277 -36.341  -1.756  0.00  0.00     0.083 H 
ATOM     40  H15 GMY d          22.978 -33.256  -2.462  0.00  0.00     0.084 H 
ATOM     41  H16 GMY d          26.108 -31.547  -1.572  0.00  0.00     0.169 HD
ENDROOT
BRANCH  15  42
ATOM     42  O33 GMY d          19.101 -32.058  -4.281  0.00  0.00    -0.291 OA
BRANCH  42  43
ATOM     43  C34 GMY d          17.674 -31.950  -4.346  0.00  0.00     0.359 C 
ATOM     44  O35 GMY d          17.068 -31.028  -3.863  0.00  0.00    -0.239 OA
ATOM     45  N36 GMY d          16.962 -33.043  -5.002  0.00  0.00    -0.346 N 
ATOM     46  H33 GMY d          15.965 -33.018  -5.074  0.00  0.00     0.161 HD
ATOM     47  H34 GMY d          17.472 -33.817  -5.379  0.00  0.00     0.161 HD
ENDBRANCH  42  43
ENDBRANCH  15  42
BRANCH  14  48
ATOM     48  C32 GMY d          21.617 -32.490  -5.684  0.00  0.00    -0.052 C 
ATOM     49  H30 GMY d          21.248 -31.493  -5.401  0.00  0.00     0.033 H 
ATOM     50  H31 GMY d          21.893 -32.491  -6.748  0.00  0.00     0.033 H 
ATOM     51  H32 GMY d          22.499 -32.740  -5.076  0.00  0.00     0.033 H 
ENDBRANCH  14  48
BRANCH  16  52
ATOM     52  O37 GMY d          19.631 -33.168  -1.825  0.00  0.00    -0.384 OA
BRANCH  52  53
ATOM     53  C38 GMY d          18.626 -34.143  -1.534  0.00  0.00     0.005 C 
ATOM     54  H35 GMY d          19.017 -35.148  -1.750  0.00  0.00     0.066 H 
ATOM     55  H36 GMY d          17.741 -33.952  -2.158  0.00  0.00     0.066 H 
ATOM     56  H37 GMY d          18.348 -34.078  -0.472  0.00  0.00     0.066 H 
ENDBRANCH  52  53
ENDBRANCH  16  52
BRANCH  12  57
ATOM     57  C31 GMY d          20.462 -34.188  -8.749  0.00  0.00    -0.067 C 
ATOM     58  H27 GMY d          20.184 -33.161  -8.470  0.00  0.00     0.028 H 
ATOM     59  H28 GMY d          19.553 -34.763  -8.984  0.00  0.00     0.028 H 
ATOM     60  H29 GMY d          21.119 -34.164  -9.631  0.00  0.00     0.028 H 
ENDBRANCH  12  57
BRANCH  11  61
ATOM     61  O30 GMY d          21.862 -36.540  -9.190  0.00  0.00    -0.392 OA
ATOM     62  H26 GMY d          22.191 -35.710  -9.515  0.00  0.00     0.210 HD
ENDBRANCH  11  61
BRANCH  10  63
ATOM     63  O28 GMY d          22.526 -38.377  -7.125  0.00  0.00    -0.388 OA
BRANCH  63  64
ATOM     64  C29 GMY d          21.503 -39.156  -6.485  0.00  0.00     0.005 C 
ATOM     65  H23 GMY d          20.534 -38.954  -6.965  0.00  0.00     0.066 H 
ATOM     66  H24 GMY d          21.448 -38.886  -5.421  0.00  0.00     0.066 H 
ATOM     67  H25 GMY d          21.742 -40.226  -6.581  0.00  0.00     0.066 H 
ENDBRANCH  63  64
ENDBRANCH  10  63
BRANCH  20  68
ATOM     68  C39 GMY d          24.481 -35.823  -0.452  0.00  0.00    -0.046 C 
ATOM     69  H38 GMY d          23.614 -35.879   0.224  0.00  0.00     0.033 H 
ATOM     70  H39 GMY d          25.407 -35.800   0.141  0.00  0.00     0.033 H 
ATOM     71  H40 GMY d          24.489 -36.703  -1.111  0.00  0.00     0.033 H 
ENDBRANCH  20  68
BRANCH   8  72
ATOM     72  C27 GMY d          24.056 -37.253  -4.580  0.00  0.00    -0.073 C 
ATOM     73  H20 GMY d          24.004 -38.202  -5.133  0.00  0.00     0.028 H 
ATOM     74  H21 GMY d          23.102 -37.078  -4.061  0.00  0.00     0.028 H 
ATOM     75  H22 GMY d          24.870 -37.303  -3.842  0.00  0.00     0.028 H 
ENDBRANCH   8  72
BRANCH   6  76
ATOM     76  O25 GMY d          25.452 -33.630  -7.647  0.00  0.00    -0.351 OA
BRANCH  76  77
ATOM     77  C26 GMY d          26.742 -33.372  -8.219  0.00  0.00     0.011 C 
ATOM     78  H17 GMY d          27.524 -33.642  -7.495  0.00  0.00     0.067 H 
ATOM     79  H18 GMY d          26.826 -32.303  -8.466  0.00  0.00     0.067 H 
ATOM     80  H19 GMY d          26.864 -33.971  -9.133  0.00  0.00     0.067 H 
ENDBRANCH  76  77
ENDBRANCH   6  76
TORSDOF 13
ENDMDL
MODEL 2
REMARK VINA RESULT:      -5.9      2.281      6.119
REMARK  13 active torsions:
REMARK  status: ('A' for Active; 'I' for Inactive)
REMARK    1  A    between atoms: C6_6  and  O25_25 
REMARK    2  A    between atoms: C8_8  and  C27_27 
REMARK    3  A    between atoms: C10_10  and  O28_28 
REMARK    4  A    between atoms: C11_11  and  O30_30 
REMARK    5  A    between atoms: C12_12  and  C31_31 
REMARK    6  A    between atoms: C14_14  and  C32_32 
REMARK    7  A    between atoms: C15_15  and  O33_33 
REMARK    8  A    between atoms: C16_16  and  O37_37 
REMARK    9  A    between atoms: C20_20  and  C39_39 
REMARK   10  A    between atoms: O25_25  and  C26_26 
REMARK   11  A    between atoms: O28_28  and  C29_29 
REMARK   12  A    between atoms: O33_33  and  C34_34 
REMARK       I    between atoms: C34_34  and  N36_36 
REMARK   13  A    between atoms: O37_37  and  C38_38 
ROOT
ATOM      1  C1  GMY d          24.679 -37.109  -6.534  0.00  0.00     0.032 A 
ATOM      2  C2  GMY d          23.497 -37.626  -7.351  0.00  0.00     0.207 A 
ATOM      3  C3  GMY d          22.268 -38.215  -6.643  0.00  0.00     0.090 A 
ATOM      4  C4  GMY d          22.222 -38.271  -5.182  0.00  0.00    -0.002 A 
ATOM      5  C5  GMY d          23.412 -37.766  -4.358  0.00  0.00     0.208 A 
ATOM      6  C6  GMY d          24.629 -37.170  -5.070  0.00  0.00     0.128 A 
ATOM      7  C7  GMY d          25.563 -36.041  -7.201  0.00  0.00    -0.031 C 
ATOM      8  C8  GMY d          24.771 -34.752  -6.932  0.00  0.00    -0.051 C 
ATOM      9  C9  GMY d          25.547 -33.892  -5.924  0.00  0.00    -0.035 C 
ATOM     10  C10 GMY d          25.080 -32.432  -5.990  0.00  0.00     0.063 C 
ATOM     11  C11 GMY d          25.017 -31.835  -4.568  0.00  0.00     0.067 C 
ATOM     12  C12 GMY d          24.034 -32.655  -3.703  0.00  0.00    -0.014 C 
ATOM     13  C13 GMY d          22.597 -32.301  -4.103  0.00  0.00    -0.092 C 
ATOM     14  C14 GMY d          21.528 -33.295  -4.018  0.00  0.00    -0.055 C 
ATOM     15  C15 GMY d          20.115 -32.875  -4.406  0.00  0.00     0.099 C 
ATOM     16  C16 GMY d          19.698 -33.665  -5.654  0.00  0.00     0.083 C 
ATOM     17  C17 GMY d          20.493 -33.135  -6.862  0.00  0.00    -0.073 C 
ATOM     18  C18 GMY d          20.808 -34.081  -7.944  0.00  0.00    -0.083 C 
ATOM     19  C19 GMY d          20.754 -35.586  -7.654  0.00  0.00    -0.072 C 
ATOM     20  C20 GMY d          21.014 -36.517  -8.760  0.00  0.00     0.006 C 
ATOM     21  C21 GMY d          20.601 -37.972  -8.548  0.00  0.00     0.251 C 
ATOM     22  N22 GMY d          21.138 -38.713  -7.423  0.00  0.00    -0.320 N 
ATOM     23  O23 GMY d          23.548 -37.558  -8.550  0.00  0.00    -0.285 OA
ATOM     24  O24 GMY d          23.397 -37.809  -3.164  0.00  0.00    -0.285 OA
ATOM     25  O40 GMY d          19.840 -38.489  -9.312  0.00  0.00    -0.268 OA
ATOM     26  H1  GMY d          21.342 -38.671  -4.680  0.00  0.00     0.093 H 
ATOM     27  H2  GMY d          25.668 -36.227  -8.280  0.00  0.00     0.041 H 
ATOM     28  H3  GMY d          26.559 -36.002  -6.737  0.00  0.00     0.041 H 
ATOM     29  H4  GMY d          23.811 -35.024  -6.467  0.00  0.00     0.040 H 
ATOM     30  H5  GMY d          26.621 -33.940  -6.160  0.00  0.00     0.037 H 
ATOM     31  H6  GMY d          25.376 -34.281  -4.909  0.00  0.00     0.037 H 
ATOM     32  H7  GMY d          24.081 -32.383  -6.448  0.00  0.00     0.087 H 
ATOM     33  H8  GMY d          24.672 -30.792  -4.626  0.00  0.00     0.087 H 
ATOM     34  H9  GMY d          24.222 -33.732  -3.831  0.00  0.00     0.049 H 
ATOM     35  H10 GMY d          22.370 -31.296  -4.454  0.00  0.00     0.078 H 
ATOM     36  H11 GMY d          20.051 -31.792  -4.585  0.00  0.00     0.096 H 
ATOM     37  H12 GMY d          19.919 -34.733  -5.507  0.00  0.00     0.094 H 
ATOM     38  H13 GMY d          20.812 -32.095  -6.913  0.00  0.00     0.081 H 
ATOM     39  H14 GMY d          21.075 -33.717  -8.935  0.00  0.00     0.083 H 
ATOM     40  H15 GMY d          20.529 -35.955  -6.654  0.00  0.00     0.084 H 
ATOM     41  H16 GMY d          20.723 -39.588  -7.174  0.00  0.00     0.169 HD
ENDROOT
BRANCH  15  42
ATOM     42  O33 GMY d          19.282 -33.275  -3.331  0.00  0.00    -0.291 OA
BRANCH  42  43
ATOM     43  C34 GMY d          18.539 -32.207  -2.734  0.00  0.00     0.359 C 
ATOM     44  O35 GMY d          18.749 -31.811  -1.616  0.00  0.00    -0.239 OA
ATOM     45  N36 GMY d          17.468 -31.623  -3.537  0.00  0.00    -0.346 N 
ATOM     46  H33 GMY d          16.917 -30.874  -3.168  0.00  0.00     0.161 HD
ATOM     47  H34 GMY d          17.285 -31.973  -4.456  0.00  0.00     0.161 HD
ENDBRANCH  42  43
ENDBRANCH  15  42
BRANCH  14  48
ATOM     48  C32 GMY d          21.796 -34.732  -3.537  0.00  0.00    -0.052 C 
ATOM     49  H30 GMY d          22.190 -35.332  -4.371  0.00  0.00     0.033 H 
ATOM     50  H31 GMY d          20.859 -35.178  -3.174  0.00  0.00     0.033 H 
ATOM     51  H32 GMY d          22.533 -34.713  -2.720  0.00  0.00     0.033 H 
ENDBRANCH  14  48
BRANCH  16  52
ATOM     52  O37 GMY d          18.296 -33.499  -5.886  0.00  0.00    -0.384 OA
BRANCH  52  53
ATOM     53  C38 GMY d          17.646 -34.765  -6.017  0.00  0.00     0.005 C 
ATOM     54  H35 GMY d          17.284 -35.095  -5.032  0.00  0.00     0.066 H 
ATOM     55  H36 GMY d          18.360 -35.504  -6.411  0.00  0.00     0.066 H 
ATOM     56  H37 GMY d          16.795 -34.672  -6.707  0.00  0.00     0.066 H 
ENDBRANCH  52  53
ENDBRANCH  16  52
BRANCH  12  57
ATOM     57  C31 GMY d          24.189 -32.247  -2.229  0.00  0.00    -0.067 C 
ATOM     58  H27 GMY d          23.195 -32.142  -1.771  0.00  0.00     0.028 H 
ATOM     59  H28 GMY d          24.724 -31.287  -2.168  0.00  0.00     0.028 H 
ATOM     60  H29 GMY d          24.760 -33.019  -1.692  0.00  0.00     0.028 H 
ENDBRANCH  12  57
BRANCH  11  61
ATOM     61  O30 GMY d          26.314 -31.877  -3.971  0.00  0.00    -0.392 OA
ATOM     62  H26 GMY d          26.258 -32.306  -3.126  0.00  0.00     0.210 HD
ENDBRANCH  11  61
BRANCH  10  63
ATOM     63  O28 GMY d          26.013 -31.702  -6.792  0.00  0.00    -0.388 OA
BRANCH  63  64
ATOM     64  C29 GMY d          25.641 -30.317  -6.864  0.00  0.00     0.005 C 
ATOM     65  H23 GMY d          24.576 -30.235  -7.128  0.00  0.00     0.066 H 
ATOM     66  H24 GMY d          26.248 -29.814  -7.631  0.00  0.00     0.066 H 
ATOM     67  H25 GMY d          25.814 -29.840  -5.888  0.00  0.00     0.066 H 
ENDBRANCH  63  64
ENDBRANCH  10  63
BRANCH  20  68
ATOM     68  C39 GMY d          21.037 -35.999 -10.207  0.00  0.00    -0.046 C 
ATOM     69  H38 GMY d          21.748 -35.163 -10.286  0.00  0.00     0.033 H 
ATOM     70  H39 GMY d          20.032 -35.654 -10.489  0.00  0.00     0.033 H 
ATOM     71  H40 GMY d          21.349 -36.810 -10.882  0.00  0.00     0.033 H 
ENDBRANCH  20  68
BRANCH   8  72
ATOM     72  C27 GMY d          24.452 -34.046  -8.261  0.00  0.00    -0.073 C 
ATOM     73  H20 GMY d          25.159 -33.217  -8.414  0.00  0.00     0.028 H 
ATOM     74  H21 GMY d          23.426 -33.652  -8.230  0.00  0.00     0.028 H 
ATOM     75  H22 GMY d          24.545 -34.764  -9.089  0.00  0.00     0.028 H 
ENDBRANCH   8  72
BRANCH   6  76
ATOM     76  O25 GMY d          25.723 -36.702  -4.285  0.00  0.00    -0.351 OA
BRANCH  76  77
ATOM     77  C26 GMY d          26.750 -37.704  -4.294  0.00  0.00     0.011 C 
ATOM     78  H17 GMY d          26.421 -38.571  -3.703  0.00  0.00     0.067 H 
ATOM     79  H18 GMY d          27.670 -37.289  -3.855  0.00  0.00     0.067 H 
ATOM     80  H19 GMY d          26.946 -38.019  -5.330  0.00  0.00     0.067 H 
ENDBRANCH  76  77
ENDBRANCH   6  76
TORSDOF 13
ENDMDL
MODEL 3
REMARK VINA RESULT:      -5.7      2.099      7.481
REMARK  13 active torsions:
REMARK  status: ('A' for Active; 'I' for Inactive)
REMARK    1  A    between atoms: C6_6  and  O25_25 
REMARK    2  A    between atoms: C8_8  and  C27_27 
REMARK    3  A    between atoms: C10_10  and  O28_28 
REMARK    4  A    between atoms: C11_11  and  O30_30 
REMARK    5  A    between atoms: C12_12  and  C31_31 
REMARK    6  A    between atoms: C14_14  and  C32_32 
REMARK    7  A    between atoms: C15_15  and  O33_33 
REMARK    8  A    between atoms: C16_16  and  O37_37 
REMARK    9  A    between atoms: C20_20  and  C39_39 
REMARK   10  A    between atoms: O25_25  and  C26_26 
REMARK   11  A    between atoms: O28_28  and  C29_29 
REMARK   12  A    between atoms: O33_33  and  C34_34 
REMARK       I    between atoms: C34_34  and  N36_36 
REMARK   13  A    between atoms: O37_37  and  C38_38 
ROOT
ATOM      1  C1  GMY d          21.372 -35.445  -4.094  0.00  0.00     0.032 A 
ATOM      2  C2  GMY d          21.457 -36.195  -5.423  0.00  0.00     0.207 A 
ATOM      3  C3  GMY d          21.266 -35.441  -6.747  0.00  0.00     0.090 A 
ATOM      4  C4  GMY d          21.015 -34.000  -6.740  0.00  0.00    -0.002 A 
ATOM      5  C5  GMY d          20.915 -33.246  -5.408  0.00  0.00     0.208 A 
ATOM      6  C6  GMY d          21.118 -34.002  -4.093  0.00  0.00     0.128 A 
ATOM      7  C7  GMY d          22.123 -36.067  -2.905  0.00  0.00    -0.031 C 
ATOM      8  C8  GMY d          23.558 -35.568  -3.133  0.00  0.00    -0.051 C 
ATOM      9  C9  GMY d          23.911 -34.549  -2.040  0.00  0.00    -0.035 C 
ATOM     10  C10 GMY d          25.433 -34.393  -1.918  0.00  0.00     0.063 C 
ATOM     11  C11 GMY d          25.793 -32.911  -1.680  0.00  0.00     0.067 C 
ATOM     12  C12 GMY d          25.276 -32.055  -2.858  0.00  0.00    -0.014 C 
ATOM     13  C13 GMY d          26.191 -32.262  -4.069  0.00  0.00    -0.092 C 
ATOM     14  C14 GMY d          25.663 -32.189  -5.431  0.00  0.00    -0.055 C 
ATOM     15  C15 GMY d          26.629 -32.379  -6.595  0.00  0.00     0.099 C 
ATOM     16  C16 GMY d          26.243 -33.664  -7.342  0.00  0.00     0.083 C 
ATOM     17  C17 GMY d          26.614 -34.874  -6.465  0.00  0.00    -0.073 C 
ATOM     18  C18 GMY d          25.791 -36.086  -6.586  0.00  0.00    -0.083 C 
ATOM     19  C19 GMY d          24.387 -35.974  -7.194  0.00  0.00    -0.072 C 
ATOM     20  C20 GMY d          23.601 -37.204  -7.362  0.00  0.00     0.006 C 
ATOM     21  C21 GMY d          22.388 -37.125  -8.287  0.00  0.00     0.251 C 
ATOM     22  N22 GMY d          21.343 -36.156  -8.019  0.00  0.00    -0.320 N 
ATOM     23  O23 GMY d          21.677 -37.376  -5.408  0.00  0.00    -0.285 OA
ATOM     24  O24 GMY d          20.705 -32.071  -5.381  0.00  0.00    -0.285 OA
ATOM     25  O40 GMY d          22.309 -37.864  -9.223  0.00  0.00    -0.268 OA
ATOM     26  H1  GMY d          20.899 -33.462  -7.680  0.00  0.00     0.093 H 
ATOM     27  H2  GMY d          22.074 -37.165  -2.931  0.00  0.00     0.041 H 
ATOM     28  H3  GMY d          21.722 -35.704  -1.947  0.00  0.00     0.041 H 
ATOM     29  H4  GMY d          23.596 -35.044  -4.099  0.00  0.00     0.040 H 
ATOM     30  H5  GMY d          23.505 -34.895  -1.077  0.00  0.00     0.037 H 
ATOM     31  H6  GMY d          23.466 -33.575  -2.296  0.00  0.00     0.037 H 
ATOM     32  H7  GMY d          25.915 -34.739  -2.845  0.00  0.00     0.087 H 
ATOM     33  H8  GMY d          26.885 -32.809  -1.604  0.00  0.00     0.087 H 
ATOM     34  H9  GMY d          24.238 -32.328  -3.100  0.00  0.00     0.049 H 
ATOM     35  H10 GMY d          27.250 -32.467  -3.914  0.00  0.00     0.078 H 
ATOM     36  H11 GMY d          27.672 -32.420  -6.251  0.00  0.00     0.096 H 
ATOM     37  H12 GMY d          25.160 -33.667  -7.536  0.00  0.00     0.094 H 
ATOM     38  H13 GMY d          27.457 -34.833  -5.777  0.00  0.00     0.081 H 
ATOM     39  H14 GMY d          26.172 -37.049  -6.250  0.00  0.00     0.083 H 
ATOM     40  H15 GMY d          23.983 -35.007  -7.494  0.00  0.00     0.084 H 
ATOM     41  H16 GMY d          20.657 -35.972  -8.723  0.00  0.00     0.169 HD
ENDROOT
BRANCH  15  42
ATOM     42  O33 GMY d          26.410 -31.280  -7.464  0.00  0.00    -0.291 OA
BRANCH  42  43
ATOM     43  C34 GMY d          27.590 -30.530  -7.771  0.00  0.00     0.359 C 
ATOM     44  O35 GMY d          27.880 -30.199  -8.892  0.00  0.00    -0.239 OA
ATOM     45  N36 GMY d          28.471 -30.203  -6.651  0.00  0.00    -0.346 N 
ATOM     46  H33 GMY d          29.309 -29.681  -6.810  0.00  0.00     0.161 HD
ATOM     47  H34 GMY d          28.235 -30.502  -5.727  0.00  0.00     0.161 HD
ENDBRANCH  42  43
ENDBRANCH  15  42
BRANCH  14  48
ATOM     48  C32 GMY d          24.174 -31.911  -5.706  0.00  0.00    -0.052 C 
ATOM     49  H30 GMY d          23.853 -32.477  -6.593  0.00  0.00     0.033 H 
ATOM     50  H31 GMY d          24.029 -30.835  -5.886  0.00  0.00     0.033 H 
ATOM     51  H32 GMY d          23.576 -32.221  -4.837  0.00  0.00     0.033 H 
ENDBRANCH  14  48
BRANCH  16  52
ATOM     52  O37 GMY d          26.949 -33.731  -8.585  0.00  0.00    -0.384 OA
BRANCH  52  53
ATOM     53  C38 GMY d          28.305 -34.134  -8.380  0.00  0.00     0.005 C 
ATOM     54  H35 GMY d          28.407 -35.206  -8.606  0.00  0.00     0.066 H 
ATOM     55  H36 GMY d          28.587 -33.952  -7.332  0.00  0.00     0.066 H 
ATOM     56  H37 GMY d          28.964 -33.556  -9.043  0.00  0.00     0.066 H 
ENDBRANCH  52  53
ENDBRANCH  16  52
BRANCH  12  57
ATOM     57  C31 GMY d          25.374 -30.566  -2.487  0.00  0.00    -0.067 C 
ATOM     58  H27 GMY d          25.652 -29.984  -3.379  0.00  0.00     0.028 H 
ATOM     59  H28 GMY d          26.140 -30.431  -1.708  0.00  0.00     0.028 H 
ATOM     60  H29 GMY d          24.402 -30.217  -2.109  0.00  0.00     0.028 H 
ENDBRANCH  12  57
BRANCH  11  61
ATOM     61  O30 GMY d          25.186 -32.458  -0.469  0.00  0.00    -0.392 OA
ATOM     62  H26 GMY d          25.616 -32.869   0.272  0.00  0.00     0.210 HD
ENDBRANCH  11  61
BRANCH  10  63
ATOM     63  O28 GMY d          25.875 -35.193  -0.819  0.00  0.00    -0.388 OA
BRANCH  63  64
ATOM     64  C29 GMY d          24.779 -35.497   0.058  0.00  0.00     0.005 C 
ATOM     65  H23 GMY d          25.049 -36.347   0.702  0.00  0.00     0.066 H 
ATOM     66  H24 GMY d          23.893 -35.757  -0.540  0.00  0.00     0.066 H 
ATOM     67  H25 GMY d          24.555 -34.620   0.683  0.00  0.00     0.066 H 
ENDBRANCH  63  64
ENDBRANCH  10  63
BRANCH  20  68
ATOM     68  C39 GMY d          24.282 -38.574  -7.215  0.00  0.00    -0.046 C 
ATOM     69  H38 GMY d          23.798 -39.138  -6.403  0.00  0.00     0.033 H 
ATOM     70  H39 GMY d          25.346 -38.430  -6.978  0.00  0.00     0.033 H 
ATOM     71  H40 GMY d          24.188 -39.133  -8.156  0.00  0.00     0.033 H 
ENDBRANCH  20  68
BRANCH   8  72
ATOM     72  C27 GMY d          24.521 -36.764  -3.223  0.00  0.00    -0.073 C 
ATOM     73  H20 GMY d          24.202 -37.546  -2.518  0.00  0.00     0.028 H 
ATOM     74  H21 GMY d          25.540 -36.436  -2.969  0.00  0.00     0.028 H 
ATOM     75  H22 GMY d          24.510 -37.167  -4.246  0.00  0.00     0.028 H 
ENDBRANCH   8  72
BRANCH   6  76
ATOM     76  O25 GMY d          21.026 -33.281  -2.866  0.00  0.00    -0.351 OA
BRANCH  76  77
ATOM     77  C26 GMY d          19.680 -33.384  -2.378  0.00  0.00     0.011 C 
ATOM     78  H17 GMY d          19.551 -34.345  -1.859  0.00  0.00     0.067 H 
ATOM     79  H18 GMY d          18.979 -33.327  -3.224  0.00  0.00     0.067 H 
ATOM     80  H19 GMY d          19.480 -32.559  -1.679  0.00  0.00     0.067 H 
ENDBRANCH  76  77
ENDBRANCH   6  76
TORSDOF 13
ENDMDL
