MODEL 1
REMARK VINA RESULT:      -7.6      0.000      0.000
REMARK  0 active torsions:
REMARK  status: ('A' for Active; 'I' for Inactive)
ROOT
ATOM      1  C1  MOL d          22.963  36.339  41.480  0.00  0.00     0.096 A 
ATOM      2  C2  MOL d          24.381  36.760  41.308  0.00  0.00    -0.012 A 
ATOM      3  C3  MOL d          22.912  36.113  42.976  0.00  0.00     0.237 A 
ATOM      4  C4  MOL d          22.014  37.458  41.137  0.00  0.00    -0.021 C 
ATOM      5  C5  MOL d          22.532  35.124  40.685  0.00  0.00     0.101 C 
ATOM      6  C6  MOL d          25.020  36.813  42.510  0.00  0.00     0.042 A 
ATOM      7  C7  MOL d          25.051  37.076  40.163  0.00  0.00    -0.073 A 
ATOM      8  N1  MOL d          24.150  36.435  43.527  0.00  0.00    -0.326 N 
ATOM      9  O1  MOL d          21.865  35.870  43.566  0.00  0.00    -0.272 OA
ATOM     10  C8  MOL d          20.798  36.804  40.517  0.00  0.00     0.083 C 
ATOM     11  N2  MOL d          21.343  35.576  39.895  0.00  0.00    -0.074 N 
ATOM     12  C9  MOL d          26.331  37.208  42.626  0.00  0.00    -0.057 A 
ATOM     13  C10 MOL d          26.372  37.472  40.250  0.00  0.00    -0.082 A 
ATOM     14  C11 MOL d          27.006  37.524  41.472  0.00  0.00    -0.081 A 
ATOM     15  H1  MOL d          22.483  38.150  40.420  0.00  0.00     0.037 H 
ATOM     16  H2  MOL d          21.729  38.010  42.045  0.00  0.00     0.037 H 
ATOM     17  H3  MOL d          22.256  34.300  41.360  0.00  0.00     0.078 H 
ATOM     18  H4  MOL d          23.339  34.794  40.014  0.00  0.00     0.078 H 
ATOM     19  H5  MOL d          24.555  37.018  39.200  0.00  0.00     0.084 H 
ATOM     20  H6  MOL d          24.377  36.399  44.500  0.00  0.00     0.169 HD
ATOM     21  H7  MOL d          20.344  37.459  39.760  0.00  0.00     0.075 H 
ATOM     22  H8  MOL d          20.051  36.557  41.285  0.00  0.00     0.075 H 
ATOM     23  H9  MOL d          20.640  34.855  39.897  0.00  0.00     0.277 HD
ATOM     24  H10 MOL d          21.621  35.771  38.946  0.00  0.00     0.277 HD
ATOM     25  H11 MOL d          26.815  37.269  43.595  0.00  0.00     0.086 H 
ATOM     26  H12 MOL d          26.913  37.743  39.351  0.00  0.00     0.083 H 
ATOM     27  H13 MOL d          28.048  37.818  41.524  0.00  0.00     0.083 H 
ENDROOT
TORSDOF 0
ENDMDL
MODEL 2
REMARK VINA RESULT:      -6.9      2.378      4.727
REMARK  0 active torsions:
REMARK  status: ('A' for Active; 'I' for Inactive)
ROOT
ATOM      1  C1  MOL d          25.636  36.663  41.918  0.00  0.00     0.096 A 
ATOM      2  C2  MOL d          24.158  36.592  42.082  0.00  0.00    -0.012 A 
ATOM      3  C3  MOL d          25.741  37.312  40.555  0.00  0.00     0.237 A 
ATOM      4  C4  MOL d          26.256  37.588  42.933  0.00  0.00    -0.021 C 
ATOM      5  C5  MOL d          26.375  35.343  42.001  0.00  0.00     0.101 C 
ATOM      6  C6  MOL d          23.524  37.151  41.014  0.00  0.00     0.042 A 
ATOM      7  C7  MOL d          23.432  36.070  43.112  0.00  0.00    -0.073 A 
ATOM      8  N1  MOL d          24.460  37.597  40.087  0.00  0.00    -0.326 N 
ATOM      9  O1  MOL d          26.813  37.672  40.082  0.00  0.00    -0.272 OA
ATOM     10  C8  MOL d          27.603  36.992  43.278  0.00  0.00     0.083 C 
ATOM     11  N2  MOL d          27.404  35.540  43.071  0.00  0.00    -0.074 N 
ATOM     12  C9  MOL d          22.155  37.242  40.939  0.00  0.00    -0.057 A 
ATOM     13  C10 MOL d          22.052  36.143  43.060  0.00  0.00    -0.082 A 
ATOM     14  C11 MOL d          21.423  36.714  41.976  0.00  0.00    -0.081 A 
ATOM     15  H1  MOL d          25.624  37.649  43.831  0.00  0.00     0.037 H 
ATOM     16  H2  MOL d          26.383  38.594  42.506  0.00  0.00     0.037 H 
ATOM     17  H3  MOL d          26.857  35.110  41.040  0.00  0.00     0.078 H 
ATOM     18  H4  MOL d          25.686  34.530  42.273  0.00  0.00     0.078 H 
ATOM     19  H5  MOL d          23.928  35.606  43.957  0.00  0.00     0.084 H 
ATOM     20  H6  MOL d          24.248  38.051  39.222  0.00  0.00     0.169 HD
ATOM     21  H7  MOL d          27.871  37.207  44.323  0.00  0.00     0.075 H 
ATOM     22  H8  MOL d          28.387  37.380  42.611  0.00  0.00     0.075 H 
ATOM     23  H9  MOL d          28.273  35.116  42.788  0.00  0.00     0.277 HD
ATOM     24  H10 MOL d          27.087  35.115  43.928  0.00  0.00     0.277 HD
ATOM     25  H11 MOL d          21.669  37.714  40.092  0.00  0.00     0.086 H 
ATOM     26  H12 MOL d          21.462  35.749  43.878  0.00  0.00     0.083 H 
ATOM     27  H13 MOL d          20.341  36.747  41.939  0.00  0.00     0.083 H 
ENDROOT
TORSDOF 0
ENDMDL
MODEL 3
REMARK VINA RESULT:      -6.6      2.096      4.232
REMARK  0 active torsions:
REMARK  status: ('A' for Active; 'I' for Inactive)
ROOT
ATOM      1  C1  MOL d          25.588  36.390  41.928  0.00  0.00     0.096 A 
ATOM      2  C2  MOL d          24.145  36.699  41.730  0.00  0.00    -0.012 A 
ATOM      3  C3  MOL d          25.512  35.377  43.049  0.00  0.00     0.237 A 
ATOM      4  C4  MOL d          26.174  35.713  40.716  0.00  0.00    -0.021 C 
ATOM      5  C5  MOL d          26.478  37.570  42.258  0.00  0.00     0.101 C 
ATOM      6  C6  MOL d          23.370  35.952  42.565  0.00  0.00     0.042 A 
ATOM      7  C7  MOL d          23.565  37.580  40.865  0.00  0.00    -0.073 A 
ATOM      8  N1  MOL d          24.175  35.144  43.362  0.00  0.00    -0.326 N 
ATOM      9  O1  MOL d          26.496  34.760  43.442  0.00  0.00    -0.272 OA
ATOM     10  C8  MOL d          27.603  36.198  40.612  0.00  0.00     0.083 C 
ATOM     11  N2  MOL d          27.557  37.547  41.220  0.00  0.00    -0.074 N 
ATOM     12  C9  MOL d          21.998  36.025  42.554  0.00  0.00    -0.057 A 
ATOM     13  C10 MOL d          22.187  37.678  40.837  0.00  0.00    -0.082 A 
ATOM     14  C11 MOL d          21.414  36.915  41.684  0.00  0.00    -0.081 A 
ATOM     15  H1  MOL d          25.610  35.991  39.813  0.00  0.00     0.037 H 
ATOM     16  H2  MOL d          26.151  34.620  40.840  0.00  0.00     0.037 H 
ATOM     17  H3  MOL d          26.908  37.459  43.265  0.00  0.00     0.078 H 
ATOM     18  H4  MOL d          25.910  38.510  42.204  0.00  0.00     0.078 H 
ATOM     19  H5  MOL d          24.175  38.192  40.211  0.00  0.00     0.084 H 
ATOM     20  H6  MOL d          23.845  34.498  44.050  0.00  0.00     0.169 HD
ATOM     21  H7  MOL d          27.925  36.252  39.562  0.00  0.00     0.075 H 
ATOM     22  H8  MOL d          28.283  35.539  41.171  0.00  0.00     0.075 H 
ATOM     23  H9  MOL d          28.445  37.756  41.649  0.00  0.00     0.277 HD
ATOM     24  H10 MOL d          27.358  38.233  40.510  0.00  0.00     0.277 HD
ATOM     25  H11 MOL d          21.397  35.404  43.208  0.00  0.00     0.086 H 
ATOM     26  H12 MOL d          21.710  38.361  40.143  0.00  0.00     0.083 H 
ATOM     27  H13 MOL d          20.336  37.016  41.665  0.00  0.00     0.083 H 
ENDROOT
TORSDOF 0
ENDMDL
MODEL 4
REMARK VINA RESULT:      -6.0      1.767      2.509
REMARK  0 active torsions:
REMARK  status: ('A' for Active; 'I' for Inactive)
ROOT
ATOM      1  C1  MOL d          23.428  36.264  41.781  0.00  0.00     0.096 A 
ATOM      2  C2  MOL d          24.899  36.338  41.560  0.00  0.00    -0.012 A 
ATOM      3  C3  MOL d          22.961  37.471  40.996  0.00  0.00     0.237 A 
ATOM      4  C4  MOL d          22.840  35.030  41.148  0.00  0.00    -0.021 C 
ATOM      5  C5  MOL d          22.974  36.289  43.226  0.00  0.00     0.101 C 
ATOM      6  C6  MOL d          25.215  37.383  40.745  0.00  0.00     0.042 A 
ATOM      7  C7  MOL d          25.883  35.528  42.047  0.00  0.00    -0.073 A 
ATOM      8  N1  MOL d          24.061  38.072  40.389  0.00  0.00    -0.326 N 
ATOM      9  O1  MOL d          21.773  37.712  40.812  0.00  0.00    -0.272 OA
ATOM     10  C8  MOL d          21.712  34.589  42.054  0.00  0.00     0.083 C 
ATOM     11  N2  MOL d          22.136  35.059  43.392  0.00  0.00    -0.074 N 
ATOM     12  C9  MOL d          26.507  37.647  40.359  0.00  0.00    -0.057 A 
ATOM     13  C10 MOL d          27.192  35.774  41.679  0.00  0.00    -0.082 A 
ATOM     14  C11 MOL d          27.499  36.832  40.852  0.00  0.00    -0.081 A 
ATOM     15  H1  MOL d          23.602  34.239  41.074  0.00  0.00     0.037 H 
ATOM     16  H2  MOL d          22.454  35.262  40.145  0.00  0.00     0.037 H 
ATOM     17  H3  MOL d          22.379  37.192  43.428  0.00  0.00     0.078 H 
ATOM     18  H4  MOL d          23.840  36.261  43.904  0.00  0.00     0.078 H 
ATOM     19  H5  MOL d          25.641  34.707  42.712  0.00  0.00     0.084 H 
ATOM     20  H6  MOL d          24.026  38.873  39.791  0.00  0.00     0.169 HD
ATOM     21  H7  MOL d          21.601  33.495  42.040  0.00  0.00     0.075 H 
ATOM     22  H8  MOL d          20.763  35.057  41.757  0.00  0.00     0.075 H 
ATOM     23  H9  MOL d          21.325  35.274  43.949  0.00  0.00     0.277 HD
ATOM     24  H10 MOL d          22.676  34.341  43.849  0.00  0.00     0.277 HD
ATOM     25  H11 MOL d          26.737  38.467  39.689  0.00  0.00     0.086 H 
ATOM     26  H12 MOL d          27.983  35.130  42.044  0.00  0.00     0.083 H 
ATOM     27  H13 MOL d          28.532  37.025  40.587  0.00  0.00     0.083 H 
ENDROOT
TORSDOF 0
ENDMDL
MODEL 5
REMARK VINA RESULT:      -5.4      2.137      4.275
REMARK  0 active torsions:
REMARK  status: ('A' for Active; 'I' for Inactive)
ROOT
ATOM      1  C1  MOL d          24.404  36.681  41.377  0.00  0.00     0.096 A 
ATOM      2  C2  MOL d          23.559  36.003  42.398  0.00  0.00    -0.012 A 
ATOM      3  C3  MOL d          23.379  37.565  40.700  0.00  0.00     0.237 A 
ATOM      4  C4  MOL d          25.440  37.565  42.022  0.00  0.00    -0.021 C 
ATOM      5  C5  MOL d          25.129  35.771  40.407  0.00  0.00     0.101 C 
ATOM      6  C6  MOL d          22.276  36.459  42.347  0.00  0.00     0.042 A 
ATOM      7  C7  MOL d          23.910  35.052  43.310  0.00  0.00    -0.073 A 
ATOM      8  N1  MOL d          22.150  37.406  41.335  0.00  0.00    -0.326 N 
ATOM      9  O1  MOL d          23.689  38.402  39.859  0.00  0.00    -0.272 OA
ATOM     10  C8  MOL d          26.664  37.494  41.135  0.00  0.00     0.083 C 
ATOM     11  N2  MOL d          26.573  36.150  40.523  0.00  0.00    -0.074 N 
ATOM     12  C9  MOL d          21.305  36.016  43.211  0.00  0.00    -0.057 A 
ATOM     13  C10 MOL d          22.951  34.584  44.189  0.00  0.00    -0.082 A 
ATOM     14  C11 MOL d          21.659  35.055  44.128  0.00  0.00    -0.081 A 
ATOM     15  H1  MOL d          25.679  37.199  43.031  0.00  0.00     0.037 H 
ATOM     16  H2  MOL d          25.074  38.600  42.084  0.00  0.00     0.037 H 
ATOM     17  H3  MOL d          24.768  35.933  39.381  0.00  0.00     0.078 H 
ATOM     18  H4  MOL d          24.983  34.716  40.685  0.00  0.00     0.078 H 
ATOM     19  H5  MOL d          24.924  34.670  43.345  0.00  0.00     0.084 H 
ATOM     20  H6  MOL d          21.310  37.895  41.102  0.00  0.00     0.169 HD
ATOM     21  H7  MOL d          27.585  37.594  41.728  0.00  0.00     0.075 H 
ATOM     22  H8  MOL d          26.637  38.279  40.365  0.00  0.00     0.075 H 
ATOM     23  H9  MOL d          26.994  36.165  39.607  0.00  0.00     0.277 HD
ATOM     24  H10 MOL d          27.054  35.480  41.102  0.00  0.00     0.277 HD
ATOM     25  H11 MOL d          20.295  36.409  43.172  0.00  0.00     0.086 H 
ATOM     26  H12 MOL d          23.219  33.841  44.931  0.00  0.00     0.083 H 
ATOM     27  H13 MOL d          20.913  34.665  44.811  0.00  0.00     0.083 H 
ENDROOT
TORSDOF 0
ENDMDL
MODEL 6
REMARK VINA RESULT:      -5.1      2.496      4.368
REMARK  0 active torsions:
REMARK  status: ('A' for Active; 'I' for Inactive)
ROOT
ATOM      1  C1  MOL d          25.653  35.821  41.390  0.00  0.00     0.096 A 
ATOM      2  C2  MOL d          24.228  35.566  41.739  0.00  0.00    -0.012 A 
ATOM      3  C3  MOL d          25.978  36.958  42.335  0.00  0.00     0.237 A 
ATOM      4  C4  MOL d          26.523  34.644  41.747  0.00  0.00    -0.021 C 
ATOM      5  C5  MOL d          25.929  36.162  39.940  0.00  0.00     0.101 C 
ATOM      6  C6  MOL d          23.821  36.387  42.748  0.00  0.00     0.042 A 
ATOM      7  C7  MOL d          23.359  34.664  41.198  0.00  0.00    -0.073 A 
ATOM      8  N1  MOL d          24.864  37.226  43.125  0.00  0.00    -0.326 N 
ATOM      9  O1  MOL d          27.116  37.397  42.462  0.00  0.00    -0.272 OA
ATOM     10  C8  MOL d          27.603  34.583  40.689  0.00  0.00     0.083 C 
ATOM     11  N2  MOL d          26.952  35.164  39.493  0.00  0.00    -0.074 N 
ATOM     12  C9  MOL d          22.554  36.325  43.277  0.00  0.00    -0.057 A 
ATOM     13  C10 MOL d          22.077  34.585  41.708  0.00  0.00    -0.082 A 
ATOM     14  C11 MOL d          21.678  35.418  42.730  0.00  0.00    -0.081 A 
ATOM     15  H1  MOL d          25.931  33.716  41.742  0.00  0.00     0.037 H 
ATOM     16  H2  MOL d          26.971  34.787  42.741  0.00  0.00     0.037 H 
ATOM     17  H3  MOL d          26.324  37.185  39.852  0.00  0.00     0.078 H 
ATOM     18  H4  MOL d          25.012  36.069  39.340  0.00  0.00     0.078 H 
ATOM     19  H5  MOL d          23.669  34.021  40.382  0.00  0.00     0.084 H 
ATOM     20  H6  MOL d          24.819  37.914  43.849  0.00  0.00     0.169 HD
ATOM     21  H7  MOL d          27.912  33.544  40.502  0.00  0.00     0.075 H 
ATOM     22  H8  MOL d          28.479  35.177  40.987  0.00  0.00     0.075 H 
ATOM     23  H9  MOL d          27.643  35.620  38.920  0.00  0.00     0.277 HD
ATOM     24  H10 MOL d          26.504  34.434  38.963  0.00  0.00     0.277 HD
ATOM     25  H11 MOL d          22.257  36.968  44.097  0.00  0.00     0.086 H 
ATOM     26  H12 MOL d          21.380  33.862  41.301  0.00  0.00     0.083 H 
ATOM     27  H13 MOL d          20.664  35.358  43.107  0.00  0.00     0.083 H 
ENDROOT
TORSDOF 0
ENDMDL
MODEL 7
REMARK VINA RESULT:      -5.0      1.813      2.309
REMARK  0 active torsions:
REMARK  status: ('A' for Active; 'I' for Inactive)
ROOT
ATOM      1  C1  MOL d          23.892  36.646  41.348  0.00  0.00     0.096 A 
ATOM      2  C2  MOL d          25.174  36.792  42.090  0.00  0.00    -0.012 A 
ATOM      3  C3  MOL d          23.888  35.157  41.076  0.00  0.00     0.237 A 
ATOM      4  C4  MOL d          22.711  36.971  42.225  0.00  0.00    -0.021 C 
ATOM      5  C5  MOL d          23.758  37.475  40.088  0.00  0.00     0.101 C 
ATOM      6  C6  MOL d          25.779  35.582  42.257  0.00  0.00     0.042 A 
ATOM      7  C7  MOL d          25.758  37.922  42.584  0.00  0.00    -0.073 A 
ATOM      8  N1  MOL d          25.015  34.585  41.660  0.00  0.00    -0.326 N 
ATOM      9  O1  MOL d          22.924  34.584  40.580  0.00  0.00    -0.272 OA
ATOM     10  C8  MOL d          21.683  37.619  41.325  0.00  0.00     0.083 C 
ATOM     11  N2  MOL d          22.500  38.267  40.274  0.00  0.00    -0.074 N 
ATOM     12  C9  MOL d          26.962  35.442  42.943  0.00  0.00    -0.057 A 
ATOM     13  C10 MOL d          26.951  37.810  43.273  0.00  0.00    -0.082 A 
ATOM     14  C11 MOL d          27.550  36.581  43.438  0.00  0.00    -0.081 A 
ATOM     15  H1  MOL d          23.009  37.664  43.026  0.00  0.00     0.037 H 
ATOM     16  H2  MOL d          22.302  36.052  42.671  0.00  0.00     0.037 H 
ATOM     17  H3  MOL d          23.678  36.825  39.204  0.00  0.00     0.078 H 
ATOM     18  H4  MOL d          24.622  38.146  39.973  0.00  0.00     0.078 H 
ATOM     19  H5  MOL d          25.293  38.890  42.438  0.00  0.00     0.084 H 
ATOM     20  H6  MOL d          25.240  33.611  41.652  0.00  0.00     0.169 HD
ATOM     21  H7  MOL d          21.092  38.364  41.876  0.00  0.00     0.075 H 
ATOM     22  H8  MOL d          21.010  36.866  40.890  0.00  0.00     0.075 H 
ATOM     23  H9  MOL d          21.984  38.290  39.409  0.00  0.00     0.277 HD
ATOM     24  H10 MOL d          22.730  39.207  40.554  0.00  0.00     0.277 HD
ATOM     25  H11 MOL d          27.414  34.468  43.088  0.00  0.00     0.086 H 
ATOM     26  H12 MOL d          27.418  38.696  43.686  0.00  0.00     0.083 H 
ATOM     27  H13 MOL d          28.495  36.511  43.963  0.00  0.00     0.083 H 
ENDROOT
TORSDOF 0
ENDMDL
MODEL 8
REMARK VINA RESULT:      -4.8      1.991      2.714
REMARK  0 active torsions:
REMARK  status: ('A' for Active; 'I' for Inactive)
ROOT
ATOM      1  C1  MOL d          22.265  36.436  41.679  0.00  0.00     0.096 A 
ATOM      2  C2  MOL d          23.562  35.953  42.231  0.00  0.00    -0.012 A 
ATOM      3  C3  MOL d          22.732  37.600  40.832  0.00  0.00     0.237 A 
ATOM      4  C4  MOL d          21.640  35.409  40.771  0.00  0.00    -0.021 C 
ATOM      5  C5  MOL d          21.218  36.832  42.699  0.00  0.00     0.101 C 
ATOM      6  C6  MOL d          24.600  36.688  41.742  0.00  0.00     0.042 A 
ATOM      7  C7  MOL d          23.797  34.931  43.102  0.00  0.00    -0.073 A 
ATOM      8  N1  MOL d          24.121  37.678  40.892  0.00  0.00    -0.326 N 
ATOM      9  O1  MOL d          21.974  38.214  40.089  0.00  0.00    -0.272 OA
ATOM     10  C8  MOL d          20.144  35.533  40.963  0.00  0.00     0.083 C 
ATOM     11  N2  MOL d          20.011  36.015  42.356  0.00  0.00    -0.074 N 
ATOM     12  C9  MOL d          25.907  36.419  42.072  0.00  0.00    -0.057 A 
ATOM     13  C10 MOL d          25.102  34.642  43.455  0.00  0.00    -0.082 A 
ATOM     14  C11 MOL d          26.144  35.390  42.952  0.00  0.00    -0.081 A 
ATOM     15  H1  MOL d          21.978  34.399  41.047  0.00  0.00     0.037 H 
ATOM     16  H2  MOL d          21.908  35.611  39.724  0.00  0.00     0.037 H 
ATOM     17  H3  MOL d          20.992  37.906  42.623  0.00  0.00     0.078 H 
ATOM     18  H4  MOL d          21.564  36.601  43.718  0.00  0.00     0.078 H 
ATOM     19  H5  MOL d          22.975  34.354  43.511  0.00  0.00     0.084 H 
ATOM     20  H6  MOL d          24.685  38.343  40.402  0.00  0.00     0.169 HD
ATOM     21  H7  MOL d          19.650  34.558  40.837  0.00  0.00     0.075 H 
ATOM     22  H8  MOL d          19.716  36.256  40.255  0.00  0.00     0.075 H 
ATOM     23  H9  MOL d          19.183  36.583  42.441  0.00  0.00     0.277 HD
ATOM     24  H10 MOL d          19.945  35.229  42.983  0.00  0.00     0.277 HD
ATOM     25  H11 MOL d          26.722  36.998  41.653  0.00  0.00     0.086 H 
ATOM     26  H12 MOL d          25.307  33.822  44.133  0.00  0.00     0.083 H 
ATOM     27  H13 MOL d          27.160  35.165  43.253  0.00  0.00     0.083 H 
ENDROOT
TORSDOF 0
ENDMDL
