MODEL 1
REMARK VINA RESULT:      -8.6      0.000      0.000
REMARK  8 active torsions:
REMARK  status: ('A' for Active; 'I' for Inactive)
REMARK    1  A    between atoms: O6B_1  and  C6B_2 
REMARK    2  A    between atoms: C6B_2  and  C5B_3 
REMARK    3  A    between atoms: C4B_4  and  O4B_5 
REMARK    4  A    between atoms: C3B_6  and  O3B_7 
REMARK    5  A    between atoms: C20_22  and  O2B_8 
REMARK    6  A    between atoms: C7B_11  and  C7_14 
REMARK    7  A    between atoms: C7_14  and  N1_15 
REMARK    8  A    between atoms: N1_15  and  C1_16 
ROOT
ATOM      1  C5B NHV d          26.780  48.401  -1.988  0.00  0.00     0.065 C 
ATOM      2  C4B NHV d          27.886  48.586  -0.918  0.00  0.00     0.085 C 
ATOM      3  C3B NHV d          28.292  47.260  -0.221  0.00  0.00     0.093 C 
ATOM      4  N1B NHV d          27.438  47.516  -2.975  0.00  0.00    -0.332 N 
ATOM      5  C8B NHV d          27.699  47.687  -4.285  0.00  0.00     0.007 A 
ATOM      6  C7B NHV d          28.508  46.625  -4.644  0.00  0.00     0.069 A 
ATOM      7  N2B NHV d          28.646  45.793  -3.574  0.00  0.00    -0.234 NA
ATOM      8  C1B NHV d          28.019  46.413  -2.551  0.00  0.00     0.138 A 
ATOM      9  C20 NHV d          27.959  46.032  -1.088  0.00  0.00     0.119 C 
ATOM     10  H4  NHV d          25.918  47.876  -1.550  0.00  0.00     0.080 H 
ATOM     11  H5  NHV d          28.779  48.986  -1.421  0.00  0.00     0.090 H 
ATOM     12  H7  NHV d          27.718  47.177   0.714  0.00  0.00     0.091 H 
ATOM     13  H10 NHV d          27.347  48.493  -4.927  0.00  0.00     0.114 H 
ATOM     14  H19 NHV d          26.921  45.762  -0.846  0.00  0.00     0.099 H 
ENDROOT
BRANCH   6  15
ATOM     15  C7  NHV d          29.027  46.375  -6.023  0.00  0.00     0.034 C 
ATOM     16  H11 NHV d          28.182  46.138  -6.685  0.00  0.00     0.073 H 
ATOM     17  H12 NHV d          29.722  45.523  -5.994  0.00  0.00     0.073 H 
BRANCH  15  18
ATOM     18  N1  NHV d          29.728  47.541  -6.547  0.00  0.00    -0.384 N 
ATOM     19  H13 NHV d          29.314  48.021  -7.360  0.00  0.00     0.160 HD
BRANCH  18  20
ATOM     20  C1  NHV d          30.904  48.049  -6.036  0.00  0.00     0.028 A 
ATOM     21  C6  NHV d          30.941  49.256  -5.321  0.00  0.00    -0.058 A 
ATOM     22  C5  NHV d          32.178  49.736  -4.816  0.00  0.00    -0.081 A 
ATOM     23  H14 NHV d          30.030  49.819  -5.156  0.00  0.00     0.086 H 
ATOM     24  C4  NHV d          33.384  49.031  -5.007  0.00  0.00    -0.083 A 
ATOM     25  H15 NHV d          32.197  50.672  -4.269  0.00  0.00     0.083 H 
ATOM     26  C3  NHV d          33.358  47.820  -5.730  0.00  0.00    -0.081 A 
ATOM     27  H16 NHV d          34.315  49.413  -4.605  0.00  0.00     0.083 H 
ATOM     28  C2  NHV d          32.121  47.352  -6.234  0.00  0.00    -0.058 A 
ATOM     29  H17 NHV d          34.270  47.257  -5.896  0.00  0.00     0.083 H 
ATOM     30  H18 NHV d          32.104  46.423  -6.794  0.00  0.00     0.086 H 
ENDBRANCH  18  20
ENDBRANCH  15  18
ENDBRANCH   6  15
BRANCH   1  31
ATOM     31  C6B NHV d          26.265  49.750  -2.534  0.00  0.00     0.038 C 
ATOM     32  H2  NHV d          25.372  49.575  -3.151  0.00  0.00     0.077 H 
ATOM     33  H3  NHV d          26.005  50.407  -1.691  0.00  0.00     0.077 H 
BRANCH  31  34
ATOM     34  O6B NHV d          27.263  50.377  -3.324  0.00  0.00    -0.399 OA
ATOM     35  H1  NHV d          27.876  49.721  -3.637  0.00  0.00     0.209 HD
ENDBRANCH  31  34
ENDBRANCH   1  31
BRANCH   9  36
ATOM     36  O2B NHV d          28.741  44.831  -0.915  0.00  0.00    -0.385 OA
ATOM     37  H9  NHV d          28.782  44.612   0.009  0.00  0.00     0.210 HD
ENDBRANCH   9  36
BRANCH   2  38
ATOM     38  O4B NHV d          27.447  49.539   0.052  0.00  0.00    -0.391 OA
ATOM     39  H6  NHV d          27.695  50.412  -0.228  0.00  0.00     0.210 HD
ENDBRANCH   2  38
BRANCH   3  40
ATOM     40  O3B NHV d          29.685  47.294   0.110  0.00  0.00    -0.390 OA
ATOM     41  H8  NHV d          29.794  47.653   0.982  0.00  0.00     0.210 HD
ENDBRANCH   3  40
TORSDOF 8
ENDMDL
MODEL 2
REMARK VINA RESULT:      -6.7      3.070      6.044
REMARK  8 active torsions:
REMARK  status: ('A' for Active; 'I' for Inactive)
REMARK    1  A    between atoms: O6B_1  and  C6B_2 
REMARK    2  A    between atoms: C6B_2  and  C5B_3 
REMARK    3  A    between atoms: C4B_4  and  O4B_5 
REMARK    4  A    between atoms: C3B_6  and  O3B_7 
REMARK    5  A    between atoms: C20_22  and  O2B_8 
REMARK    6  A    between atoms: C7B_11  and  C7_14 
REMARK    7  A    between atoms: C7_14  and  N1_15 
REMARK    8  A    between atoms: N1_15  and  C1_16 
ROOT
ATOM      1  C5B NHV d          32.378  49.398  -5.057  0.00  0.00     0.065 C 
ATOM      2  C4B NHV d          31.377  49.396  -6.241  0.00  0.00     0.085 C 
ATOM      3  C3B NHV d          31.308  48.036  -6.984  0.00  0.00     0.093 C 
ATOM      4  N1B NHV d          31.800  48.379  -4.152  0.00  0.00    -0.332 N 
ATOM      5  C8B NHV d          31.373  48.465  -2.878  0.00  0.00     0.007 A 
ATOM      6  C7B NHV d          30.748  47.259  -2.615  0.00  0.00     0.069 A 
ATOM      7  N2B NHV d          30.887  46.444  -3.697  0.00  0.00    -0.234 NA
ATOM      8  C1B NHV d          31.489  47.197  -4.643  0.00  0.00     0.138 A 
ATOM      9  C20 NHV d          31.775  46.871  -6.092  0.00  0.00     0.119 C 
ATOM     10  H4  NHV d          33.365  49.057  -5.401  0.00  0.00     0.080 H 
ATOM     11  H5  NHV d          30.376  49.607  -5.836  0.00  0.00     0.090 H 
ATOM     12  H7  NHV d          31.983  48.087  -7.851  0.00  0.00     0.091 H 
ATOM     13  H10 NHV d          31.495  49.306  -2.198  0.00  0.00     0.114 H 
ATOM     14  H19 NHV d          32.866  46.810  -6.220  0.00  0.00     0.099 H 
ENDROOT
BRANCH   6  15
ATOM     15  C7  NHV d          30.143  46.881  -1.302  0.00  0.00     0.034 C 
ATOM     16  H11 NHV d          30.378  47.660  -0.562  0.00  0.00     0.073 H 
ATOM     17  H12 NHV d          30.571  45.922  -0.974  0.00  0.00     0.073 H 
BRANCH  15  18
ATOM     18  N1  NHV d          28.695  46.745  -1.402  0.00  0.00    -0.384 N 
ATOM     19  H13 NHV d          28.272  45.876  -1.046  0.00  0.00     0.160 HD
BRANCH  18  20
ATOM     20  C1  NHV d          27.850  47.694  -1.937  0.00  0.00     0.028 A 
ATOM     21  C6  NHV d          27.518  47.709  -3.300  0.00  0.00    -0.058 A 
ATOM     22  C5  NHV d          26.643  48.709  -3.801  0.00  0.00    -0.081 A 
ATOM     23  H14 NHV d          27.929  46.959  -3.967  0.00  0.00     0.086 H 
ATOM     24  C4  NHV d          26.086  49.696  -2.964  0.00  0.00    -0.083 A 
ATOM     25  H15 NHV d          26.397  48.713  -4.857  0.00  0.00     0.083 H 
ATOM     26  C3  NHV d          26.418  49.695  -1.593  0.00  0.00    -0.081 A 
ATOM     27  H16 NHV d          25.414  50.445  -3.368  0.00  0.00     0.083 H 
ATOM     28  C2  NHV d          27.295  48.698  -1.104  0.00  0.00    -0.058 A 
ATOM     29  H17 NHV d          26.009  50.445  -0.926  0.00  0.00     0.083 H 
ATOM     30  H18 NHV d          27.553  48.701  -0.051  0.00  0.00     0.086 H 
ENDBRANCH  18  20
ENDBRANCH  15  18
ENDBRANCH   6  15
BRANCH   1  31
ATOM     31  C6B NHV d          32.564  50.805  -4.452  0.00  0.00     0.038 C 
ATOM     32  H2  NHV d          32.949  51.485  -5.226  0.00  0.00     0.077 H 
ATOM     33  H3  NHV d          31.593  51.175  -4.088  0.00  0.00     0.077 H 
BRANCH  31  34
ATOM     34  O6B NHV d          33.482  50.762  -3.371  0.00  0.00    -0.399 OA
ATOM     35  H1  NHV d          33.238  50.060  -2.779  0.00  0.00     0.209 HD
ENDBRANCH  31  34
ENDBRANCH   1  31
BRANCH   9  36
ATOM     36  O2B NHV d          31.260  45.549  -6.355  0.00  0.00    -0.385 OA
ATOM     37  H9  NHV d          31.926  45.033  -6.793  0.00  0.00     0.210 HD
ENDBRANCH   9  36
BRANCH   2  38
ATOM     38  O4B NHV d          31.727  50.440  -7.153  0.00  0.00    -0.391 OA
ATOM     39  H6  NHV d          31.774  51.265  -6.685  0.00  0.00     0.210 HD
ENDBRANCH   2  38
BRANCH   3  40
ATOM     40  O3B NHV d          29.977  47.814  -7.465  0.00  0.00    -0.390 OA
ATOM     41  H8  NHV d          29.605  48.638  -7.754  0.00  0.00     0.210 HD
ENDBRANCH   3  40
TORSDOF 8
ENDMDL
MODEL 3
REMARK VINA RESULT:      -6.0      1.632      2.715
REMARK  8 active torsions:
REMARK  status: ('A' for Active; 'I' for Inactive)
REMARK    1  A    between atoms: O6B_1  and  C6B_2 
REMARK    2  A    between atoms: C6B_2  and  C5B_3 
REMARK    3  A    between atoms: C4B_4  and  O4B_5 
REMARK    4  A    between atoms: C3B_6  and  O3B_7 
REMARK    5  A    between atoms: C20_22  and  O2B_8 
REMARK    6  A    between atoms: C7B_11  and  C7_14 
REMARK    7  A    between atoms: C7_14  and  N1_15 
REMARK    8  A    between atoms: N1_15  and  C1_16 
ROOT
ATOM      1  C5B NHV d          27.549  48.402  -2.651  0.00  0.00     0.065 C 
ATOM      2  C4B NHV d          27.772  48.608  -1.131  0.00  0.00     0.085 C 
ATOM      3  C3B NHV d          28.330  47.348  -0.417  0.00  0.00     0.093 C 
ATOM      4  N1B NHV d          28.920  48.134  -3.139  0.00  0.00    -0.332 N 
ATOM      5  C8B NHV d          29.679  48.774  -4.049  0.00  0.00     0.007 A 
ATOM      6  C7B NHV d          30.936  48.207  -3.949  0.00  0.00     0.069 A 
ATOM      7  N2B NHV d          30.889  47.183  -3.051  0.00  0.00    -0.234 NA
ATOM      8  C1B NHV d          29.642  47.214  -2.533  0.00  0.00     0.138 A 
ATOM      9  C20 NHV d          29.054  46.407  -1.397  0.00  0.00     0.119 C 
ATOM     10  H4  NHV d          26.925  47.512  -2.821  0.00  0.00     0.080 H 
ATOM     11  H5  NHV d          28.507  49.416  -1.004  0.00  0.00     0.090 H 
ATOM     12  H7  NHV d          27.480  46.796   0.013  0.00  0.00     0.091 H 
ATOM     13  H10 NHV d          29.367  49.572  -4.722  0.00  0.00     0.114 H 
ATOM     14  H19 NHV d          28.279  45.746  -1.811  0.00  0.00     0.099 H 
ENDROOT
BRANCH   6  15
ATOM     15  C7  NHV d          32.110  48.579  -4.795  0.00  0.00     0.034 C 
ATOM     16  H11 NHV d          33.026  48.493  -4.194  0.00  0.00     0.073 H 
ATOM     17  H12 NHV d          31.990  49.619  -5.135  0.00  0.00     0.073 H 
BRANCH  15  18
ATOM     18  N1  NHV d          32.225  47.710  -5.960  0.00  0.00    -0.384 N 
ATOM     19  H13 NHV d          33.094  47.761  -6.509  0.00  0.00     0.160 HD
BRANCH  18  20
ATOM     20  C1  NHV d          31.255  46.824  -6.380  0.00  0.00     0.028 A 
ATOM     21  C6  NHV d          30.110  47.250  -7.071  0.00  0.00    -0.058 A 
ATOM     22  C5  NHV d          29.140  46.298  -7.481  0.00  0.00    -0.081 A 
ATOM     23  H14 NHV d          29.967  48.303  -7.289  0.00  0.00     0.086 H 
ATOM     24  C4  NHV d          29.293  44.921  -7.220  0.00  0.00    -0.083 A 
ATOM     25  H15 NHV d          28.258  46.638  -8.011  0.00  0.00     0.083 H 
ATOM     26  C3  NHV d          30.437  44.483  -6.520  0.00  0.00    -0.081 A 
ATOM     27  H16 NHV d          28.543  44.211  -7.551  0.00  0.00     0.083 H 
ATOM     28  C2  NHV d          31.396  45.440  -6.110  0.00  0.00    -0.058 A 
ATOM     29  H17 NHV d          30.580  43.431  -6.301  0.00  0.00     0.083 H 
ATOM     30  H18 NHV d          32.272  45.102  -5.569  0.00  0.00     0.086 H 
ENDBRANCH  18  20
ENDBRANCH  15  18
ENDBRANCH   6  15
BRANCH   1  31
ATOM     31  C6B NHV d          26.826  49.600  -3.303  0.00  0.00     0.038 C 
ATOM     32  H2  NHV d          27.346  50.529  -3.029  0.00  0.00     0.077 H 
ATOM     33  H3  NHV d          26.841  49.480  -4.397  0.00  0.00     0.077 H 
BRANCH  31  34
ATOM     34  O6B NHV d          25.481  49.668  -2.857  0.00  0.00    -0.399 OA
ATOM     35  H1  NHV d          25.306  50.537  -2.516  0.00  0.00     0.209 HD
ENDBRANCH  31  34
ENDBRANCH   1  31
BRANCH   9  36
ATOM     36  O2B NHV d          30.093  45.544  -0.887  0.00  0.00    -0.385 OA
ATOM     37  H9  NHV d          30.759  45.424  -1.553  0.00  0.00     0.210 HD
ENDBRANCH   9  36
BRANCH   2  38
ATOM     38  O4B NHV d          26.542  49.014  -0.526  0.00  0.00    -0.391 OA
ATOM     39  H6  NHV d          25.817  48.590  -0.970  0.00  0.00     0.210 HD
ENDBRANCH   2  38
BRANCH   3  40
ATOM     40  O3B NHV d          29.196  47.742   0.654  0.00  0.00    -0.390 OA
ATOM     41  H8  NHV d          29.154  47.095   1.348  0.00  0.00     0.210 HD
ENDBRANCH   3  40
TORSDOF 8
ENDMDL
MODEL 4
REMARK VINA RESULT:      -6.0      2.796      5.692
REMARK  8 active torsions:
REMARK  status: ('A' for Active; 'I' for Inactive)
REMARK    1  A    between atoms: O6B_1  and  C6B_2 
REMARK    2  A    between atoms: C6B_2  and  C5B_3 
REMARK    3  A    between atoms: C4B_4  and  O4B_5 
REMARK    4  A    between atoms: C3B_6  and  O3B_7 
REMARK    5  A    between atoms: C20_22  and  O2B_8 
REMARK    6  A    between atoms: C7B_11  and  C7_14 
REMARK    7  A    between atoms: C7_14  and  N1_15 
REMARK    8  A    between atoms: N1_15  and  C1_16 
ROOT
ATOM      1  C5B NHV d          31.637  48.212  -4.291  0.00  0.00     0.065 C 
ATOM      2  C4B NHV d          31.890  47.844  -5.776  0.00  0.00     0.085 C 
ATOM      3  C3B NHV d          31.477  46.389  -6.126  0.00  0.00     0.093 C 
ATOM      4  N1B NHV d          30.166  48.085  -4.181  0.00  0.00    -0.332 N 
ATOM      5  C8B NHV d          29.223  48.981  -3.836  0.00  0.00     0.007 A 
ATOM      6  C7B NHV d          28.013  48.367  -4.102  0.00  0.00     0.069 A 
ATOM      7  N2B NHV d          28.247  47.090  -4.516  0.00  0.00    -0.234 NA
ATOM      8  C1B NHV d          29.590  46.981  -4.607  0.00  0.00     0.138 A 
ATOM      9  C20 NHV d          30.427  45.840  -5.144  0.00  0.00     0.119 C 
ATOM     10  H4  NHV d          32.114  47.470  -3.635  0.00  0.00     0.080 H 
ATOM     11  H5  NHV d          31.289  48.522  -6.399  0.00  0.00     0.090 H 
ATOM     12  H7  NHV d          32.372  45.753  -6.052  0.00  0.00     0.091 H 
ATOM     13  H10 NHV d          29.379  49.980  -3.431  0.00  0.00     0.114 H 
ATOM     14  H19 NHV d          30.992  45.406  -4.306  0.00  0.00     0.099 H 
ENDROOT
BRANCH   6  15
ATOM     15  C7  NHV d          26.672  48.974  -3.844  0.00  0.00     0.034 C 
ATOM     16  H11 NHV d          25.925  48.473  -4.476  0.00  0.00     0.073 H 
ATOM     17  H12 NHV d          26.710  50.044  -4.096  0.00  0.00     0.073 H 
BRANCH  15  18
ATOM     18  N1  NHV d          26.283  48.830  -2.446  0.00  0.00    -0.384 N 
ATOM     19  H13 NHV d          25.400  49.270  -2.149  0.00  0.00     0.160 HD
BRANCH  18  20
ATOM     20  C1  NHV d          27.009  48.148  -1.492  0.00  0.00     0.028 A 
ATOM     21  C6  NHV d          27.816  48.814  -0.558  0.00  0.00    -0.058 A 
ATOM     22  C5  NHV d          28.544  48.065   0.403  0.00  0.00    -0.081 A 
ATOM     23  H14 NHV d          27.884  49.896  -0.571  0.00  0.00     0.086 H 
ATOM     24  C4  NHV d          28.479  46.658   0.455  0.00  0.00    -0.083 A 
ATOM     25  H15 NHV d          29.168  48.589   1.118  0.00  0.00     0.083 H 
ATOM     26  C3  NHV d          27.675  45.978  -0.485  0.00  0.00    -0.081 A 
ATOM     27  H16 NHV d          29.038  46.108   1.203  0.00  0.00     0.083 H 
ATOM     28  C2  NHV d          26.957  46.733  -1.443  0.00  0.00    -0.058 A 
ATOM     29  H17 NHV d          27.609  44.896  -0.472  0.00  0.00     0.083 H 
ATOM     30  H18 NHV d          26.344  46.208  -2.166  0.00  0.00     0.086 H 
ENDBRANCH  18  20
ENDBRANCH  15  18
ENDBRANCH   6  15
BRANCH   1  31
ATOM     31  C6B NHV d          32.222  49.592  -3.925  0.00  0.00     0.038 C 
ATOM     32  H2  NHV d          33.311  49.578  -4.078  0.00  0.00     0.077 H 
ATOM     33  H3  NHV d          31.770  50.360  -4.571  0.00  0.00     0.077 H 
BRANCH  31  34
ATOM     34  O6B NHV d          31.945  49.902  -2.568  0.00  0.00    -0.399 OA
ATOM     35  H1  NHV d          32.665  49.604  -2.024  0.00  0.00     0.209 HD
ENDBRANCH  31  34
ENDBRANCH   1  31
BRANCH   9  36
ATOM     36  O2B NHV d          29.524  44.810  -5.601  0.00  0.00    -0.385 OA
ATOM     37  H9  NHV d          28.697  45.204  -5.851  0.00  0.00     0.210 HD
ENDBRANCH   9  36
BRANCH   2  38
ATOM     38  O4B NHV d          33.271  48.052  -6.082  0.00  0.00    -0.391 OA
ATOM     39  H6  NHV d          33.413  48.966  -6.298  0.00  0.00     0.210 HD
ENDBRANCH   2  38
BRANCH   3  40
ATOM     40  O3B NHV d          30.999  46.333  -7.475  0.00  0.00    -0.390 OA
ATOM     41  H8  NHV d          30.320  46.987  -7.597  0.00  0.00     0.210 HD
ENDBRANCH   3  40
TORSDOF 8
ENDMDL
MODEL 5
REMARK VINA RESULT:      -5.9      1.603      3.031
REMARK  8 active torsions:
REMARK  status: ('A' for Active; 'I' for Inactive)
REMARK    1  A    between atoms: O6B_1  and  C6B_2 
REMARK    2  A    between atoms: C6B_2  and  C5B_3 
REMARK    3  A    between atoms: C4B_4  and  O4B_5 
REMARK    4  A    between atoms: C3B_6  and  O3B_7 
REMARK    5  A    between atoms: C20_22  and  O2B_8 
REMARK    6  A    between atoms: C7B_11  and  C7_14 
REMARK    7  A    between atoms: C7_14  and  N1_15 
REMARK    8  A    between atoms: N1_15  and  C1_16 
ROOT
ATOM      1  C5B NHV d          29.552  48.214  -1.545  0.00  0.00     0.065 C 
ATOM      2  C4B NHV d          28.127  48.003  -0.971  0.00  0.00     0.085 C 
ATOM      3  C3B NHV d          27.036  48.809  -1.726  0.00  0.00     0.093 C 
ATOM      4  N1B NHV d          29.421  47.683  -2.921  0.00  0.00    -0.332 N 
ATOM      5  C8B NHV d          30.072  46.690  -3.554  0.00  0.00     0.007 A 
ATOM      6  C7B NHV d          29.397  46.505  -4.747  0.00  0.00     0.069 A 
ATOM      7  N2B NHV d          28.415  47.442  -4.849  0.00  0.00    -0.234 NA
ATOM      8  C1B NHV d          28.427  48.108  -3.674  0.00  0.00     0.138 A 
ATOM      9  C20 NHV d          27.475  49.165  -3.158  0.00  0.00     0.119 C 
ATOM     10  H4  NHV d          29.781  49.289  -1.593  0.00  0.00     0.080 H 
ATOM     11  H5  NHV d          27.880  46.935  -1.067  0.00  0.00     0.090 H 
ATOM     12  H7  NHV d          26.870  49.750  -1.181  0.00  0.00     0.091 H 
ATOM     13  H10 NHV d          30.947  46.146  -3.200  0.00  0.00     0.114 H 
ATOM     14  H19 NHV d          28.026  50.113  -3.079  0.00  0.00     0.099 H 
ENDROOT
BRANCH   6  15
ATOM     15  C7  NHV d          29.784  45.519  -5.802  0.00  0.00     0.034 C 
ATOM     16  H11 NHV d          28.993  45.484  -6.565  0.00  0.00     0.073 H 
ATOM     17  H12 NHV d          29.893  44.526  -5.340  0.00  0.00     0.073 H 
BRANCH  15  18
ATOM     18  N1  NHV d          31.042  45.887  -6.439  0.00  0.00    -0.384 N 
ATOM     19  H13 NHV d          31.599  45.133  -6.867  0.00  0.00     0.160 HD
BRANCH  18  20
ATOM     20  C1  NHV d          31.542  47.170  -6.513  0.00  0.00     0.028 A 
ATOM     21  C6  NHV d          32.650  47.579  -5.756  0.00  0.00    -0.058 A 
ATOM     22  C5  NHV d          33.126  48.912  -5.868  0.00  0.00    -0.081 A 
ATOM     23  H14 NHV d          33.141  46.880  -5.088  0.00  0.00     0.086 H 
ATOM     24  C4  NHV d          32.518  49.849  -6.728  0.00  0.00    -0.083 A 
ATOM     25  H15 NHV d          33.980  49.219  -5.275  0.00  0.00     0.083 H 
ATOM     26  C3  NHV d          31.398  49.450  -7.489  0.00  0.00    -0.081 A 
ATOM     27  H16 NHV d          32.904  50.859  -6.803  0.00  0.00     0.083 H 
ATOM     28  C2  NHV d          30.928  48.120  -7.367  0.00  0.00    -0.058 A 
ATOM     29  H17 NHV d          30.907  50.149  -8.156  0.00  0.00     0.083 H 
ATOM     30  H18 NHV d          30.066  47.817  -7.948  0.00  0.00     0.086 H 
ENDBRANCH  18  20
ENDBRANCH  15  18
ENDBRANCH   6  15
BRANCH   1  31
ATOM     31  C6B NHV d          30.637  47.552  -0.671  0.00  0.00     0.038 C 
ATOM     32  H2  NHV d          31.415  47.123  -1.320  0.00  0.00     0.077 H 
ATOM     33  H3  NHV d          31.086  48.312  -0.014  0.00  0.00     0.077 H 
BRANCH  31  34
ATOM     34  O6B NHV d          30.072  46.522   0.124  0.00  0.00    -0.399 OA
ATOM     35  H1  NHV d          30.649  46.335   0.855  0.00  0.00     0.209 HD
ENDBRANCH  31  34
ENDBRANCH   1  31
BRANCH   9  36
ATOM     36  O2B NHV d          26.458  49.368  -4.162  0.00  0.00    -0.385 OA
ATOM     37  H9  NHV d          26.005  50.185  -3.991  0.00  0.00     0.210 HD
ENDBRANCH   9  36
BRANCH   2  38
ATOM     38  O4B NHV d          28.124  48.347   0.416  0.00  0.00    -0.391 OA
ATOM     39  H6  NHV d          27.276  48.704   0.651  0.00  0.00     0.210 HD
ENDBRANCH   2  38
BRANCH   3  40
ATOM     40  O3B NHV d          25.808  48.072  -1.733  0.00  0.00    -0.390 OA
ATOM     41  H8  NHV d          25.093  48.648  -1.489  0.00  0.00     0.210 HD
ENDBRANCH   3  40
TORSDOF 8
ENDMDL
MODEL 6
REMARK VINA RESULT:      -5.9      1.915      2.951
REMARK  8 active torsions:
REMARK  status: ('A' for Active; 'I' for Inactive)
REMARK    1  A    between atoms: O6B_1  and  C6B_2 
REMARK    2  A    between atoms: C6B_2  and  C5B_3 
REMARK    3  A    between atoms: C4B_4  and  O4B_5 
REMARK    4  A    between atoms: C3B_6  and  O3B_7 
REMARK    5  A    between atoms: C20_22  and  O2B_8 
REMARK    6  A    between atoms: C7B_11  and  C7_14 
REMARK    7  A    between atoms: C7_14  and  N1_15 
REMARK    8  A    between atoms: N1_15  and  C1_16 
ROOT
ATOM      1  C5B NHV d          28.106  47.610  -2.930  0.00  0.00     0.065 C 
ATOM      2  C4B NHV d          27.457  48.130  -1.622  0.00  0.00     0.085 C 
ATOM      3  C3B NHV d          28.100  47.536  -0.340  0.00  0.00     0.093 C 
ATOM      4  N1B NHV d          29.496  48.103  -2.812  0.00  0.00    -0.332 N 
ATOM      5  C8B NHV d          30.219  48.918  -3.603  0.00  0.00     0.007 A 
ATOM      6  C7B NHV d          31.376  49.191  -2.897  0.00  0.00     0.069 A 
ATOM      7  N2B NHV d          31.368  48.472  -1.740  0.00  0.00    -0.234 NA
ATOM      8  C1B NHV d          30.163  47.862  -1.702  0.00  0.00     0.138 A 
ATOM      9  C20 NHV d          29.536  47.044  -0.595  0.00  0.00     0.119 C 
ATOM     10  H4  NHV d          28.112  46.510  -2.934  0.00  0.00     0.080 H 
ATOM     11  H5  NHV d          27.591  49.221  -1.589  0.00  0.00     0.090 H 
ATOM     12  H7  NHV d          27.498  46.670  -0.027  0.00  0.00     0.091 H 
ATOM     13  H10 NHV d          29.949  49.284  -4.593  0.00  0.00     0.114 H 
ATOM     14  H19 NHV d          29.442  46.006  -0.948  0.00  0.00     0.099 H 
ENDROOT
BRANCH   6  15
ATOM     15  C7  NHV d          32.502  50.036  -3.398  0.00  0.00     0.034 C 
ATOM     16  H11 NHV d          33.454  49.594  -3.070  0.00  0.00     0.073 H 
ATOM     17  H12 NHV d          32.403  51.049  -2.980  0.00  0.00     0.073 H 
BRANCH  15  18
ATOM     18  N1  NHV d          32.497  50.122  -4.853  0.00  0.00    -0.384 N 
ATOM     19  H13 NHV d          32.576  51.058  -5.277  0.00  0.00     0.160 HD
BRANCH  18  20
ATOM     20  C1  NHV d          32.394  49.043  -5.706  0.00  0.00     0.028 A 
ATOM     21  C6  NHV d          33.443  48.126  -5.872  0.00  0.00    -0.058 A 
ATOM     22  C5  NHV d          33.286  47.031  -6.763  0.00  0.00    -0.081 A 
ATOM     23  H14 NHV d          34.369  48.253  -5.323  0.00  0.00     0.086 H 
ATOM     24  C4  NHV d          32.096  46.829  -7.491  0.00  0.00    -0.083 A 
ATOM     25  H15 NHV d          34.104  46.331  -6.887  0.00  0.00     0.083 H 
ATOM     26  C3  NHV d          31.037  47.749  -7.336  0.00  0.00    -0.081 A 
ATOM     27  H16 NHV d          31.996  45.981  -8.159  0.00  0.00     0.083 H 
ATOM     28  C2  NHV d          31.205  48.840  -6.450  0.00  0.00    -0.058 A 
ATOM     29  H17 NHV d          30.112  47.622  -7.886  0.00  0.00     0.083 H 
ATOM     30  H18 NHV d          30.392  49.548  -6.336  0.00  0.00     0.086 H 
ENDBRANCH  18  20
ENDBRANCH  15  18
ENDBRANCH   6  15
BRANCH   1  31
ATOM     31  C6B NHV d          27.336  48.068  -4.187  0.00  0.00     0.038 C 
ATOM     32  H2  NHV d          28.050  48.253  -5.003  0.00  0.00     0.077 H 
ATOM     33  H3  NHV d          26.631  47.279  -4.488  0.00  0.00     0.077 H 
BRANCH  31  34
ATOM     34  O6B NHV d          26.615  49.260  -3.918  0.00  0.00    -0.399 OA
ATOM     35  H1  NHV d          26.675  49.841  -4.667  0.00  0.00     0.209 HD
ENDBRANCH  31  34
ENDBRANCH   1  31
BRANCH   9  36
ATOM     36  O2B NHV d          30.463  47.015   0.510  0.00  0.00    -0.385 OA
ATOM     37  H9  NHV d          29.985  47.108   1.326  0.00  0.00     0.210 HD
ENDBRANCH   9  36
BRANCH   2  38
ATOM     38  O4B NHV d          26.056  47.846  -1.648  0.00  0.00    -0.391 OA
ATOM     39  H6  NHV d          25.874  47.215  -2.334  0.00  0.00     0.210 HD
ENDBRANCH   2  38
BRANCH   3  40
ATOM     40  O3B NHV d          28.068  48.508   0.711  0.00  0.00    -0.390 OA
ATOM     41  H8  NHV d          27.236  48.966   0.693  0.00  0.00     0.210 HD
ENDBRANCH   3  40
TORSDOF 8
ENDMDL
MODEL 7
REMARK VINA RESULT:      -5.7      3.225      6.398
REMARK  8 active torsions:
REMARK  status: ('A' for Active; 'I' for Inactive)
REMARK    1  A    between atoms: O6B_1  and  C6B_2 
REMARK    2  A    between atoms: C6B_2  and  C5B_3 
REMARK    3  A    between atoms: C4B_4  and  O4B_5 
REMARK    4  A    between atoms: C3B_6  and  O3B_7 
REMARK    5  A    between atoms: C20_22  and  O2B_8 
REMARK    6  A    between atoms: C7B_11  and  C7_14 
REMARK    7  A    between atoms: C7_14  and  N1_15 
REMARK    8  A    between atoms: N1_15  and  C1_16 
ROOT
ATOM      1  C5B NHV d          29.933  46.390  -5.850  0.00  0.00     0.065 C 
ATOM      2  C4B NHV d          31.236  45.972  -6.580  0.00  0.00     0.085 C 
ATOM      3  C3B NHV d          31.924  47.145  -7.327  0.00  0.00     0.093 C 
ATOM      4  N1B NHV d          30.426  47.373  -4.860  0.00  0.00    -0.332 N 
ATOM      5  C8B NHV d          30.355  47.390  -3.516  0.00  0.00     0.007 A 
ATOM      6  C7B NHV d          31.158  48.442  -3.115  0.00  0.00     0.069 A 
ATOM      7  N2B NHV d          31.625  49.088  -4.220  0.00  0.00    -0.234 NA
ATOM      8  C1B NHV d          31.197  48.358  -5.273  0.00  0.00     0.138 A 
ATOM      9  C20 NHV d          31.521  48.511  -6.743  0.00  0.00     0.119 C 
ATOM     10  H4  NHV d          29.256  46.894  -6.554  0.00  0.00     0.080 H 
ATOM     11  H5  NHV d          31.941  45.598  -5.823  0.00  0.00     0.090 H 
ATOM     12  H7  NHV d          31.597  47.119  -8.377  0.00  0.00     0.091 H 
ATOM     13  H10 NHV d          29.783  46.718  -2.878  0.00  0.00     0.114 H 
ATOM     14  H19 NHV d          30.600  48.806  -7.267  0.00  0.00     0.099 H 
ENDROOT
BRANCH   6  15
ATOM     15  C7  NHV d          31.361  48.868  -1.697  0.00  0.00     0.034 C 
ATOM     16  H11 NHV d          31.965  49.787  -1.683  0.00  0.00     0.073 H 
ATOM     17  H12 NHV d          31.893  48.071  -1.157  0.00  0.00     0.073 H 
BRANCH  15  18
ATOM     18  N1  NHV d          30.091  49.126  -1.031  0.00  0.00    -0.384 N 
ATOM     19  H13 NHV d          29.995  50.009  -0.510  0.00  0.00     0.160 HD
BRANCH  18  20
ATOM     20  C1  NHV d          29.006  48.274  -1.048  0.00  0.00     0.028 A 
ATOM     21  C6  NHV d          28.998  47.068  -0.331  0.00  0.00    -0.058 A 
ATOM     22  C5  NHV d          27.856  46.226  -0.382  0.00  0.00    -0.081 A 
ATOM     23  H14 NHV d          29.861  46.781   0.260  0.00  0.00     0.086 H 
ATOM     24  C4  NHV d          26.714  46.567  -1.134  0.00  0.00    -0.083 A 
ATOM     25  H15 NHV d          27.862  45.295   0.173  0.00  0.00     0.083 H 
ATOM     26  C3  NHV d          26.713  47.775  -1.864  0.00  0.00    -0.081 A 
ATOM     27  H16 NHV d          25.850  45.912  -1.151  0.00  0.00     0.083 H 
ATOM     28  C2  NHV d          27.859  48.605  -1.811  0.00  0.00    -0.058 A 
ATOM     29  H17 NHV d          25.851  48.061  -2.455  0.00  0.00     0.083 H 
ATOM     30  H18 NHV d          27.858  49.529  -2.377  0.00  0.00     0.086 H 
ENDBRANCH  18  20
ENDBRANCH  15  18
ENDBRANCH   6  15
BRANCH   1  31
ATOM     31  C6B NHV d          29.174  45.177  -5.272  0.00  0.00     0.038 C 
ATOM     32  H2  NHV d          28.589  44.700  -6.072  0.00  0.00     0.077 H 
ATOM     33  H3  NHV d          29.899  44.455  -4.867  0.00  0.00     0.077 H 
BRANCH  31  34
ATOM     34  O6B NHV d          28.298  45.591  -4.236  0.00  0.00    -0.399 OA
ATOM     35  H1  NHV d          28.724  46.257  -3.709  0.00  0.00     0.209 HD
ENDBRANCH  31  34
ENDBRANCH   1  31
BRANCH   9  36
ATOM     36  O2B NHV d          32.437  49.619  -6.878  0.00  0.00    -0.385 OA
ATOM     37  H9  NHV d          32.859  49.577  -7.728  0.00  0.00     0.210 HD
ENDBRANCH   9  36
BRANCH   2  38
ATOM     38  O4B NHV d          30.944  44.910  -7.491  0.00  0.00    -0.391 OA
ATOM     39  H6  NHV d          30.677  45.275  -8.326  0.00  0.00     0.210 HD
ENDBRANCH   2  38
BRANCH   3  40
ATOM     40  O3B NHV d          33.346  46.972  -7.296  0.00  0.00    -0.390 OA
ATOM     41  H8  NHV d          33.732  47.397  -8.053  0.00  0.00     0.210 HD
ENDBRANCH   3  40
TORSDOF 8
ENDMDL
