MODEL 1
REMARK VINA RESULT:      -8.1      0.000      0.000
REMARK  6 active torsions:
REMARK  status: ('A' for Active; 'I' for Inactive)
REMARK    1  A    between atoms: C10_2  and  C11_3 
REMARK    2  A    between atoms: C4_18  and  N9_17 
REMARK    3  A    between atoms: N9_17  and  C8_24 
REMARK    4  A    between atoms: C1_21  and  C18_22 
REMARK    5  A    between atoms: C8_24  and  C23_23 
REMARK    6  A    between atoms: C23_23  and  O24_25 
ROOT
ATOM      1  C2  PFQ d          13.329  -0.178   9.962  0.00  0.00     0.091 A 
ATOM      2  C10 PFQ d          17.434  -1.930   9.590  0.00  0.00     0.100 A 
ATOM      3  N1  PFQ d          14.521   0.047   9.432  0.00  0.00    -0.217 NA
ATOM      4  C6  PFQ d          15.518  -0.834   9.601  0.00  0.00     0.186 A 
ATOM      5  O6  PFQ d          16.804  -0.807   9.160  0.00  0.00    -0.289 OA
ATOM      6  C5  PFQ d          15.319  -2.000  10.339  0.00  0.00     0.077 A 
ATOM      7  C4  PFQ d          14.045  -2.201  10.882  0.00  0.00     0.140 A 
ATOM      8  N3  PFQ d          13.097  -1.271  10.666  0.00  0.00    -0.224 NA
ATOM      9  C1  PFQ d          16.533  -2.698  10.337  0.00  0.00     0.027 A 
ATOM     10  H1  PFQ d          12.534   0.544   9.817  0.00  0.00     0.146 H 
ENDROOT
BRANCH   2  11
ATOM     11  C11 PFQ d          18.769  -2.114   9.241  0.00  0.00    -0.001 A 
ATOM     12  C12 PFQ d          19.586  -3.115   9.761  0.00  0.00    -0.070 A 
ATOM     13  C13 PFQ d          20.910  -3.201   9.323  0.00  0.00    -0.082 A 
ATOM     14  H2  PFQ d          19.201  -3.816  10.493  0.00  0.00     0.084 H 
ATOM     15  C14 PFQ d          21.403  -2.306   8.373  0.00  0.00    -0.083 A 
ATOM     16  H3  PFQ d          21.560  -3.970   9.725  0.00  0.00     0.083 H 
ATOM     17  C15 PFQ d          20.586  -1.300   7.855  0.00  0.00    -0.082 A 
ATOM     18  H4  PFQ d          22.430  -2.392   8.035  0.00  0.00     0.083 H 
ATOM     19  C16 PFQ d          19.270  -1.235   8.284  0.00  0.00    -0.070 A 
ATOM     20  H5  PFQ d          20.971  -0.587   7.134  0.00  0.00     0.083 H 
ATOM     21  H6  PFQ d          18.615  -0.481   7.865  0.00  0.00     0.084 H 
ENDBRANCH   2  11
BRANCH   9  22
ATOM     22  C18 PFQ d          16.720  -3.932  10.982  0.00  0.00    -0.022 A 
ATOM     23  C19 PFQ d          17.020  -3.960  12.349  0.00  0.00    -0.072 A 
ATOM     24  C20 PFQ d          17.246  -5.158  13.032  0.00  0.00    -0.082 A 
ATOM     25  H7  PFQ d          17.078  -3.024  12.894  0.00  0.00     0.084 H 
ATOM     26  C21 PFQ d          17.175  -6.361  12.327  0.00  0.00    -0.083 A 
ATOM     27  H8  PFQ d          17.473  -5.153  14.092  0.00  0.00     0.083 H 
ATOM     28  C22 PFQ d          16.882  -6.337  10.951  0.00  0.00    -0.082 A 
ATOM     29  H9  PFQ d          17.346  -7.304  12.835  0.00  0.00     0.083 H 
ATOM     30  C17 PFQ d          16.658  -5.134  10.274  0.00  0.00    -0.072 A 
ATOM     31  H10 PFQ d          16.828  -7.272  10.404  0.00  0.00     0.083 H 
ATOM     32  H12 PFQ d          16.439  -5.135   9.212  0.00  0.00     0.084 H 
ENDBRANCH   9  22
BRANCH   7  33
ATOM     33  N9  PFQ d          13.738  -3.278  11.612  0.00  0.00    -0.372 N 
ATOM     34  H11 PFQ d          14.455  -3.996  11.790  0.00  0.00     0.161 HD
BRANCH  33  35
ATOM     35  C8  PFQ d          12.379  -3.448  12.164  0.00  0.00     0.013 C 
ATOM     36  H15 PFQ d          12.125  -4.518  12.183  0.00  0.00     0.067 H 
ATOM     37  H16 PFQ d          11.660  -2.911  11.528  0.00  0.00     0.067 H 
BRANCH  35  38
ATOM     38  C23 PFQ d          12.312  -2.886  13.592  0.00  0.00     0.031 C 
ATOM     39  H13 PFQ d          13.333  -2.750  13.978  0.00  0.00     0.076 H 
ATOM     40  H14 PFQ d          11.767  -3.592  14.236  0.00  0.00     0.076 H 
BRANCH  38  41
ATOM     41  O24 PFQ d          11.632  -1.624  13.589  0.00  0.00    -0.399 OA
ATOM     42  H17 PFQ d          12.268  -0.923  13.508  0.00  0.00     0.209 HD
ENDBRANCH  38  41
ENDBRANCH  35  38
ENDBRANCH  33  35
ENDBRANCH   7  33
TORSDOF 6
ENDMDL
MODEL 2
REMARK VINA RESULT:      -8.0      2.797      5.739
REMARK  6 active torsions:
REMARK  status: ('A' for Active; 'I' for Inactive)
REMARK    1  A    between atoms: C10_2  and  C11_3 
REMARK    2  A    between atoms: C4_18  and  N9_17 
REMARK    3  A    between atoms: N9_17  and  C8_24 
REMARK    4  A    between atoms: C1_21  and  C18_22 
REMARK    5  A    between atoms: C8_24  and  C23_23 
REMARK    6  A    between atoms: C23_23  and  O24_25 
ROOT
ATOM      1  C2  PFQ d          20.576  -1.434   7.978  0.00  0.00     0.091 A 
ATOM      2  C10 PFQ d          16.519  -1.951   9.803  0.00  0.00     0.100 A 
ATOM      3  N1  PFQ d          19.369  -0.892   8.023  0.00  0.00    -0.217 NA
ATOM      4  C6  PFQ d          18.401  -1.445   8.768  0.00  0.00     0.186 A 
ATOM      5  O6  PFQ d          17.109  -1.069   8.956  0.00  0.00    -0.289 OA
ATOM      6  C5  PFQ d          18.647  -2.601   9.507  0.00  0.00     0.077 A 
ATOM      7  C4  PFQ d          19.935  -3.143   9.434  0.00  0.00     0.140 A 
ATOM      8  N3  PFQ d          20.851  -2.527   8.664  0.00  0.00    -0.224 NA
ATOM      9  C1  PFQ d          17.454  -2.928  10.164  0.00  0.00     0.027 A 
ATOM     10  H1  PFQ d          21.346  -0.975   7.370  0.00  0.00     0.146 H 
ENDROOT
BRANCH   2  11
ATOM     11  C11 PFQ d          15.184  -1.750  10.144  0.00  0.00    -0.001 A 
ATOM     12  C12 PFQ d          14.381  -2.701  10.770  0.00  0.00    -0.070 A 
ATOM     13  C13 PFQ d          13.057  -2.374  11.069  0.00  0.00    -0.082 A 
ATOM     14  H2  PFQ d          14.778  -3.678  11.021  0.00  0.00     0.084 H 
ATOM     15  C14 PFQ d          12.548  -1.112  10.755  0.00  0.00    -0.083 A 
ATOM     16  H3  PFQ d          12.417  -3.106  11.549  0.00  0.00     0.083 H 
ATOM     17  C15 PFQ d          13.351  -0.160  10.124  0.00  0.00    -0.082 A 
ATOM     18  H4  PFQ d          11.521  -0.869  11.003  0.00  0.00     0.083 H 
ATOM     19  C16 PFQ d          14.668  -0.490   9.848  0.00  0.00    -0.070 A 
ATOM     20  H5  PFQ d          12.954   0.812   9.857  0.00  0.00     0.083 H 
ATOM     21  H6  PFQ d          15.313   0.250   9.390  0.00  0.00     0.084 H 
ENDBRANCH   2  11
BRANCH   9  22
ATOM     22  C18 PFQ d          17.314  -4.040  11.012  0.00  0.00    -0.022 A 
ATOM     23  C19 PFQ d          16.981  -5.286  10.469  0.00  0.00    -0.072 A 
ATOM     24  C20 PFQ d          16.799  -6.417  11.270  0.00  0.00    -0.082 A 
ATOM     25  H7  PFQ d          16.860  -5.377   9.395  0.00  0.00     0.084 H 
ATOM     26  C21 PFQ d          16.950  -6.296  12.653  0.00  0.00    -0.083 A 
ATOM     27  H8  PFQ d          16.544  -7.372  10.825  0.00  0.00     0.083 H 
ATOM     28  C22 PFQ d          17.278  -5.043  13.203  0.00  0.00    -0.082 A 
ATOM     29  H9  PFQ d          16.816  -7.159  13.295  0.00  0.00     0.083 H 
ATOM     30  C17 PFQ d          17.457  -3.916  12.395  0.00  0.00    -0.072 A 
ATOM     31  H10 PFQ d          17.395  -4.951  14.277  0.00  0.00     0.083 H 
ATOM     32  H12 PFQ d          17.704  -2.957  12.838  0.00  0.00     0.084 H 
ENDBRANCH   9  22
BRANCH   7  33
ATOM     33  N9  PFQ d          20.286  -4.251  10.094  0.00  0.00    -0.372 N 
ATOM     34  H11 PFQ d          20.027  -5.174   9.716  0.00  0.00     0.161 HD
BRANCH  33  35
ATOM     35  C8  PFQ d          21.042  -4.164  11.359  0.00  0.00     0.013 C 
ATOM     36  H15 PFQ d          20.551  -3.440  12.027  0.00  0.00     0.067 H 
ATOM     37  H16 PFQ d          22.068  -3.830  11.146  0.00  0.00     0.067 H 
BRANCH  35  38
ATOM     38  C23 PFQ d          21.087  -5.537  12.047  0.00  0.00     0.031 C 
ATOM     39  H13 PFQ d          20.718  -5.441  13.078  0.00  0.00     0.076 H 
ATOM     40  H14 PFQ d          22.125  -5.903  12.061  0.00  0.00     0.076 H 
BRANCH  38  41
ATOM     41  O24 PFQ d          20.265  -6.469  11.332  0.00  0.00    -0.399 OA
ATOM     42  H17 PFQ d          20.458  -7.351  11.627  0.00  0.00     0.209 HD
ENDBRANCH  38  41
ENDBRANCH  35  38
ENDBRANCH  33  35
ENDBRANCH   7  33
TORSDOF 6
ENDMDL
MODEL 3
REMARK VINA RESULT:      -7.7      2.364      5.806
REMARK  6 active torsions:
REMARK  status: ('A' for Active; 'I' for Inactive)
REMARK    1  A    between atoms: C10_2  and  C11_3 
REMARK    2  A    between atoms: C4_18  and  N9_17 
REMARK    3  A    between atoms: N9_17  and  C8_24 
REMARK    4  A    between atoms: C1_21  and  C18_22 
REMARK    5  A    between atoms: C8_24  and  C23_23 
REMARK    6  A    between atoms: C23_23  and  O24_25 
ROOT
ATOM      1  C2  PFQ d          18.518  -0.837   8.241  0.00  0.00     0.091 A 
ATOM      2  C10 PFQ d          15.162  -2.324  10.807  0.00  0.00     0.100 A 
ATOM      3  N1  PFQ d          17.277  -0.560   8.608  0.00  0.00    -0.217 NA
ATOM      4  C6  PFQ d          16.627  -1.359   9.467  0.00  0.00     0.186 A 
ATOM      5  O6  PFQ d          15.367  -1.274   9.970  0.00  0.00    -0.289 OA
ATOM      6  C5  PFQ d          17.245  -2.495   9.988  0.00  0.00     0.077 A 
ATOM      7  C4  PFQ d          18.557  -2.752   9.576  0.00  0.00     0.140 A 
ATOM      8  N3  PFQ d          19.141  -1.901   8.712  0.00  0.00    -0.224 NA
ATOM      9  C1  PFQ d          16.319  -3.113  10.837  0.00  0.00     0.027 A 
ATOM     10  H1  PFQ d          19.029  -0.182   7.545  0.00  0.00     0.146 H 
ENDROOT
BRANCH   2  11
ATOM     11  C11 PFQ d          13.930  -2.430  11.446  0.00  0.00    -0.001 A 
ATOM     12  C12 PFQ d          13.274  -3.634  11.693  0.00  0.00    -0.070 A 
ATOM     13  C13 PFQ d          12.043  -3.608  12.352  0.00  0.00    -0.082 A 
ATOM     14  H2  PFQ d          13.712  -4.575  11.380  0.00  0.00     0.084 H 
ATOM     15  C14 PFQ d          11.483  -2.398  12.765  0.00  0.00    -0.083 A 
ATOM     16  H3  PFQ d          11.517  -4.537  12.545  0.00  0.00     0.083 H 
ATOM     17  C15 PFQ d          12.138  -1.191  12.514  0.00  0.00    -0.082 A 
ATOM     18  H4  PFQ d          10.532  -2.395  13.285  0.00  0.00     0.083 H 
ATOM     19  C16 PFQ d          13.366  -1.230  11.875  0.00  0.00    -0.070 A 
ATOM     20  H5  PFQ d          11.696  -0.247  12.812  0.00  0.00     0.083 H 
ATOM     21  H6  PFQ d          13.902  -0.304  11.704  0.00  0.00     0.084 H 
ENDBRANCH   2  11
BRANCH   9  22
ATOM     22  C18 PFQ d          16.585  -4.294  11.550  0.00  0.00    -0.022 A 
ATOM     23  C19 PFQ d          16.519  -5.528  10.894  0.00  0.00    -0.072 A 
ATOM     24  C20 PFQ d          16.745  -6.734  11.563  0.00  0.00    -0.082 A 
ATOM     25  H7  PFQ d          16.286  -5.549   9.835  0.00  0.00     0.084 H 
ATOM     26  C21 PFQ d          17.040  -6.704  12.927  0.00  0.00    -0.083 A 
ATOM     27  H8  PFQ d          16.691  -7.677  11.032  0.00  0.00     0.083 H 
ATOM     28  C22 PFQ d          17.100  -5.466  13.592  0.00  0.00    -0.082 A 
ATOM     29  H9  PFQ d          17.220  -7.626  13.469  0.00  0.00     0.083 H 
ATOM     30  C17 PFQ d          16.872  -4.263  12.916  0.00  0.00    -0.072 A 
ATOM     31  H10 PFQ d          17.329  -5.444  14.652  0.00  0.00     0.083 H 
ATOM     32  H12 PFQ d          16.917  -3.318  13.447  0.00  0.00     0.084 H 
ENDBRANCH   9  22
BRANCH   7  33
ATOM     33  N9  PFQ d          19.249  -3.813  10.003  0.00  0.00    -0.372 N 
ATOM     34  H11 PFQ d          18.844  -4.756   9.915  0.00  0.00     0.161 HD
BRANCH  33  35
ATOM     35  C8  PFQ d          20.589  -3.645  10.600  0.00  0.00     0.013 C 
ATOM     36  H15 PFQ d          20.689  -2.620  10.985  0.00  0.00     0.067 H 
ATOM     37  H16 PFQ d          21.354  -3.825   9.831  0.00  0.00     0.067 H 
BRANCH  35  38
ATOM     38  C23 PFQ d          20.785  -4.641  11.753  0.00  0.00     0.031 C 
ATOM     39  H13 PFQ d          20.239  -4.285  12.639  0.00  0.00     0.076 H 
ATOM     40  H14 PFQ d          21.857  -4.719  11.990  0.00  0.00     0.076 H 
BRANCH  38  41
ATOM     41  O24 PFQ d          20.288  -5.931  11.375  0.00  0.00    -0.399 OA
ATOM     42  H17 PFQ d          20.328  -6.517  12.122  0.00  0.00     0.209 HD
ENDBRANCH  38  41
ENDBRANCH  35  38
ENDBRANCH  33  35
ENDBRANCH   7  33
TORSDOF 6
ENDMDL
MODEL 4
REMARK VINA RESULT:      -7.2      2.731      6.791
REMARK  6 active torsions:
REMARK  status: ('A' for Active; 'I' for Inactive)
REMARK    1  A    between atoms: C10_2  and  C11_3 
REMARK    2  A    between atoms: C4_18  and  N9_17 
REMARK    3  A    between atoms: N9_17  and  C8_24 
REMARK    4  A    between atoms: C1_21  and  C18_22 
REMARK    5  A    between atoms: C8_24  and  C23_23 
REMARK    6  A    between atoms: C23_23  and  O24_25 
ROOT
ATOM      1  C2  PFQ d          17.736  -6.834  12.661  0.00  0.00     0.091 A 
ATOM      2  C10 PFQ d          14.892  -3.404  12.209  0.00  0.00     0.100 A 
ATOM      3  N1  PFQ d          16.595  -6.350  13.125  0.00  0.00    -0.217 NA
ATOM      4  C6  PFQ d          16.098  -5.201  12.645  0.00  0.00     0.186 A 
ATOM      5  O6  PFQ d          14.965  -4.524  12.973  0.00  0.00    -0.289 OA
ATOM      6  C5  PFQ d          16.772  -4.494  11.651  0.00  0.00     0.077 A 
ATOM      7  C4  PFQ d          17.974  -5.040  11.186  0.00  0.00     0.140 A 
ATOM      8  N3  PFQ d          18.406  -6.198  11.717  0.00  0.00    -0.224 NA
ATOM      9  C1  PFQ d          16.012  -3.352  11.371  0.00  0.00     0.027 A 
ATOM     10  H1  PFQ d          18.125  -7.763  13.060  0.00  0.00     0.146 H 
ENDROOT
BRANCH   2  11
ATOM     11  C11 PFQ d          13.796  -2.562  12.374  0.00  0.00    -0.001 A 
ATOM     12  C12 PFQ d          12.765  -2.782  13.286  0.00  0.00    -0.070 A 
ATOM     13  C13 PFQ d          11.723  -1.856  13.362  0.00  0.00    -0.082 A 
ATOM     14  H2  PFQ d          12.774  -3.657  13.925  0.00  0.00     0.084 H 
ATOM     15  C14 PFQ d          11.717  -0.724  12.546  0.00  0.00    -0.083 A 
ATOM     16  H3  PFQ d          10.910  -2.018  14.061  0.00  0.00     0.083 H 
ATOM     17  C15 PFQ d          12.747  -0.505  11.629  0.00  0.00    -0.082 A 
ATOM     18  H4  PFQ d          10.906  -0.008  12.624  0.00  0.00     0.083 H 
ATOM     19  C16 PFQ d          13.784  -1.421  11.574  0.00  0.00    -0.070 A 
ATOM     20  H5  PFQ d          12.735   0.361  10.976  0.00  0.00     0.083 H 
ATOM     21  H6  PFQ d          14.608  -1.246  10.892  0.00  0.00     0.084 H 
ENDBRANCH   2  11
BRANCH   9  22
ATOM     22  C18 PFQ d          16.377  -2.391  10.413  0.00  0.00    -0.022 A 
ATOM     23  C19 PFQ d          17.351  -1.437  10.725  0.00  0.00    -0.072 A 
ATOM     24  C20 PFQ d          17.728  -0.441   9.820  0.00  0.00    -0.082 A 
ATOM     25  H7  PFQ d          17.828  -1.471  11.699  0.00  0.00     0.084 H 
ATOM     26  C21 PFQ d          17.109  -0.396   8.569  0.00  0.00    -0.083 A 
ATOM     27  H8  PFQ d          18.488   0.285  10.084  0.00  0.00     0.083 H 
ATOM     28  C22 PFQ d          16.123  -1.350   8.254  0.00  0.00    -0.082 A 
ATOM     29  H9  PFQ d          17.384   0.366   7.849  0.00  0.00     0.083 H 
ATOM     30  C17 PFQ d          15.750  -2.343   9.166  0.00  0.00    -0.072 A 
ATOM     31  H10 PFQ d          15.642  -1.314   7.283  0.00  0.00     0.083 H 
ATOM     32  H12 PFQ d          14.985  -3.066   8.908  0.00  0.00     0.084 H 
ENDBRANCH   9  22
BRANCH   7  33
ATOM     33  N9  PFQ d          18.712  -4.450  10.239  0.00  0.00    -0.372 N 
ATOM     34  H11 PFQ d          18.373  -4.432   9.266  0.00  0.00     0.161 HD
BRANCH  33  35
ATOM     35  C8  PFQ d          20.006  -3.825  10.576  0.00  0.00     0.013 C 
ATOM     36  H15 PFQ d          20.741  -4.611  10.805  0.00  0.00     0.067 H 
ATOM     37  H16 PFQ d          19.877  -3.175  11.454  0.00  0.00     0.067 H 
BRANCH  35  38
ATOM     38  C23 PFQ d          20.514  -2.985   9.394  0.00  0.00     0.031 C 
ATOM     39  H13 PFQ d          21.320  -2.321   9.739  0.00  0.00     0.076 H 
ATOM     40  H14 PFQ d          19.686  -2.380   8.994  0.00  0.00     0.076 H 
BRANCH  38  41
ATOM     41  O24 PFQ d          21.014  -3.845   8.362  0.00  0.00    -0.399 OA
ATOM     42  H17 PFQ d          20.676  -4.723   8.492  0.00  0.00     0.209 HD
ENDBRANCH  38  41
ENDBRANCH  35  38
ENDBRANCH  33  35
ENDBRANCH   7  33
TORSDOF 6
ENDMDL
MODEL 5
REMARK VINA RESULT:      -6.7      2.250      4.432
REMARK  6 active torsions:
REMARK  status: ('A' for Active; 'I' for Inactive)
REMARK    1  A    between atoms: C10_2  and  C11_3 
REMARK    2  A    between atoms: C4_18  and  N9_17 
REMARK    3  A    between atoms: N9_17  and  C8_24 
REMARK    4  A    between atoms: C1_21  and  C18_22 
REMARK    5  A    between atoms: C8_24  and  C23_23 
REMARK    6  A    between atoms: C23_23  and  O24_25 
ROOT
ATOM      1  C2  PFQ d          13.086  -4.873  13.350  0.00  0.00     0.091 A 
ATOM      2  C10 PFQ d          17.384  -4.755  12.097  0.00  0.00     0.100 A 
ATOM      3  N1  PFQ d          14.248  -5.480  13.531  0.00  0.00    -0.217 NA
ATOM      4  C6  PFQ d          15.346  -5.053  12.891  0.00  0.00     0.186 A 
ATOM      5  O6  PFQ d          16.622  -5.521  12.920  0.00  0.00    -0.289 OA
ATOM      6  C5  PFQ d          15.285  -3.965  12.022  0.00  0.00     0.077 A 
ATOM      7  C4  PFQ d          14.038  -3.350  11.858  0.00  0.00     0.140 A 
ATOM      8  N3  PFQ d          12.984  -3.837  12.538  0.00  0.00    -0.224 NA
ATOM      9  C1  PFQ d          16.575  -3.773  11.513  0.00  0.00     0.027 A 
ATOM     10  H1  PFQ d          12.208  -5.230  13.874  0.00  0.00     0.146 H 
ENDROOT
BRANCH   2  11
ATOM     11  C11 PFQ d          18.739  -5.054  11.982  0.00  0.00    -0.001 A 
ATOM     12  C12 PFQ d          19.733  -4.109  11.734  0.00  0.00    -0.070 A 
ATOM     13  C13 PFQ d          21.060  -4.534  11.649  0.00  0.00    -0.082 A 
ATOM     14  H2  PFQ d          19.480  -3.063  11.610  0.00  0.00     0.084 H 
ATOM     15  C14 PFQ d          21.388  -5.880  11.819  0.00  0.00    -0.083 A 
ATOM     16  H3  PFQ d          21.844  -3.812  11.449  0.00  0.00     0.083 H 
ATOM     17  C15 PFQ d          20.392  -6.828  12.062  0.00  0.00    -0.082 A 
ATOM     18  H4  PFQ d          22.424  -6.193  11.760  0.00  0.00     0.083 H 
ATOM     19  C16 PFQ d          19.081  -6.392  12.162  0.00  0.00    -0.070 A 
ATOM     20  H5  PFQ d          20.639  -7.878  12.171  0.00  0.00     0.083 H 
ATOM     21  H6  PFQ d          18.301  -7.111  12.385  0.00  0.00     0.084 H 
ENDBRANCH   2  11
BRANCH   9  22
ATOM     22  C18 PFQ d          16.907  -2.758  10.600  0.00  0.00    -0.022 A 
ATOM     23  C19 PFQ d          17.678  -1.670  11.024  0.00  0.00    -0.072 A 
ATOM     24  C20 PFQ d          18.011  -0.620  10.165  0.00  0.00    -0.082 A 
ATOM     25  H7  PFQ d          18.028  -1.641  12.051  0.00  0.00     0.084 H 
ATOM     26  C21 PFQ d          17.555  -0.657   8.845  0.00  0.00    -0.083 A 
ATOM     27  H8  PFQ d          18.612   0.211  10.516  0.00  0.00     0.083 H 
ATOM     28  C22 PFQ d          16.774  -1.746   8.416  0.00  0.00    -0.082 A 
ATOM     29  H9  PFQ d          17.801   0.146   8.158  0.00  0.00     0.083 H 
ATOM     30  C17 PFQ d          16.444  -2.793   9.283  0.00  0.00    -0.072 A 
ATOM     31  H10 PFQ d          16.420  -1.773   7.392  0.00  0.00     0.083 H 
ATOM     32  H12 PFQ d          15.836  -3.621   8.936  0.00  0.00     0.084 H 
ENDBRANCH   9  22
BRANCH   7  33
ATOM     33  N9  PFQ d          13.856  -2.302  11.047  0.00  0.00    -0.372 N 
ATOM     34  H11 PFQ d          14.396  -2.233  10.174  0.00  0.00     0.161 HD
BRANCH  33  35
ATOM     35  C8  PFQ d          12.886  -1.245  11.394  0.00  0.00     0.013 C 
ATOM     36  H15 PFQ d          13.164  -0.799  12.361  0.00  0.00     0.067 H 
ATOM     37  H16 PFQ d          11.880  -1.685  11.469  0.00  0.00     0.067 H 
BRANCH  35  38
ATOM     38  C23 PFQ d          12.882  -0.152  10.315  0.00  0.00     0.031 C 
ATOM     39  H13 PFQ d          12.441   0.767  10.728  0.00  0.00     0.076 H 
ATOM     40  H14 PFQ d          12.286  -0.490   9.455  0.00  0.00     0.076 H 
BRANCH  38  41
ATOM     41  O24 PFQ d          14.224   0.116   9.887  0.00  0.00    -0.399 OA
ATOM     42  H17 PFQ d          14.661  -0.704   9.688  0.00  0.00     0.209 HD
ENDBRANCH  38  41
ENDBRANCH  35  38
ENDBRANCH  33  35
ENDBRANCH   7  33
TORSDOF 6
ENDMDL
MODEL 6
REMARK VINA RESULT:      -6.7      2.155      4.103
REMARK  6 active torsions:
REMARK  status: ('A' for Active; 'I' for Inactive)
REMARK    1  A    between atoms: C10_2  and  C11_3 
REMARK    2  A    between atoms: C4_18  and  N9_17 
REMARK    3  A    between atoms: N9_17  and  C8_24 
REMARK    4  A    between atoms: C1_21  and  C18_22 
REMARK    5  A    between atoms: C8_24  and  C23_23 
REMARK    6  A    between atoms: C23_23  and  O24_25 
ROOT
ATOM      1  C2  PFQ d          15.818  -6.104  13.592  0.00  0.00     0.091 A 
ATOM      2  C10 PFQ d          19.027  -4.083  11.210  0.00  0.00     0.100 A 
ATOM      3  N1  PFQ d          17.118  -6.135  13.345  0.00  0.00    -0.217 NA
ATOM      4  C6  PFQ d          17.671  -5.260  12.493  0.00  0.00     0.186 A 
ATOM      5  O6  PFQ d          18.960  -5.115  12.090  0.00  0.00    -0.289 OA
ATOM      6  C5  PFQ d          16.887  -4.303  11.850  0.00  0.00     0.077 A 
ATOM      7  C4  PFQ d          15.518  -4.302  12.138  0.00  0.00     0.140 A 
ATOM      8  N3  PFQ d          15.040  -5.212  13.007  0.00  0.00    -0.224 NA
ATOM      9  C1  PFQ d          17.743  -3.554  11.032  0.00  0.00     0.027 A 
ATOM     10  H1  PFQ d          15.387  -6.818  14.284  0.00  0.00     0.146 H 
ENDROOT
BRANCH   2  11
ATOM     11  C11 PFQ d          20.268  -3.749  10.674  0.00  0.00    -0.001 A 
ATOM     12  C12 PFQ d          21.447  -3.669  11.413  0.00  0.00    -0.070 A 
ATOM     13  C13 PFQ d          22.632  -3.331  10.756  0.00  0.00    -0.082 A 
ATOM     14  H2  PFQ d          21.443  -3.865  12.479  0.00  0.00     0.084 H 
ATOM     15  C14 PFQ d          22.639  -3.088   9.382  0.00  0.00    -0.083 A 
ATOM     16  H3  PFQ d          23.556  -3.257  11.319  0.00  0.00     0.083 H 
ATOM     17  C15 PFQ d          21.458  -3.165   8.642  0.00  0.00    -0.082 A 
ATOM     18  H4  PFQ d          23.569  -2.838   8.884  0.00  0.00     0.083 H 
ATOM     19  C16 PFQ d          20.291  -3.517   9.301  0.00  0.00    -0.070 A 
ATOM     20  H5  PFQ d          21.453  -2.954   7.579  0.00  0.00     0.083 H 
ATOM     21  H6  PFQ d          19.373  -3.614   8.734  0.00  0.00     0.084 H 
ENDBRANCH   2  11
BRANCH   9  22
ATOM     22  C18 PFQ d          17.311  -2.489  10.225  0.00  0.00    -0.022 A 
ATOM     23  C19 PFQ d          17.760  -1.191  10.493  0.00  0.00    -0.072 A 
ATOM     24  C20 PFQ d          17.338  -0.092   9.741  0.00  0.00    -0.082 A 
ATOM     25  H7  PFQ d          18.457  -1.033  11.310  0.00  0.00     0.084 H 
ATOM     26  C21 PFQ d          16.437  -0.296   8.693  0.00  0.00    -0.083 A 
ATOM     27  H8  PFQ d          17.703   0.903   9.967  0.00  0.00     0.083 H 
ATOM     28  C22 PFQ d          15.978  -1.599   8.425  0.00  0.00    -0.082 A 
ATOM     29  H9  PFQ d          16.095   0.540   8.094  0.00  0.00     0.083 H 
ATOM     30  C17 PFQ d          16.404  -2.694   9.183  0.00  0.00    -0.072 A 
ATOM     31  H10 PFQ d          15.278  -1.757   7.611  0.00  0.00     0.083 H 
ATOM     32  H12 PFQ d          16.035  -3.690   8.965  0.00  0.00     0.084 H 
ENDBRANCH   9  22
BRANCH   7  33
ATOM     33  N9  PFQ d          14.667  -3.436  11.578  0.00  0.00    -0.372 N 
ATOM     34  H11 PFQ d          14.615  -3.362  10.552  0.00  0.00     0.161 HD
BRANCH  33  35
ATOM     35  C8  PFQ d          13.801  -2.584  12.418  0.00  0.00     0.013 C 
ATOM     36  H15 PFQ d          13.967  -1.528  12.159  0.00  0.00     0.067 H 
ATOM     37  H16 PFQ d          14.052  -2.746  13.477  0.00  0.00     0.067 H 
BRANCH  35  38
ATOM     38  C23 PFQ d          12.324  -2.937  12.188  0.00  0.00     0.031 C 
ATOM     39  H13 PFQ d          12.094  -2.861  11.115  0.00  0.00     0.076 H 
ATOM     40  H14 PFQ d          11.689  -2.236  12.750  0.00  0.00     0.076 H 
BRANCH  38  41
ATOM     41  O24 PFQ d          12.065  -4.275  12.635  0.00  0.00    -0.399 OA
ATOM     42  H17 PFQ d          11.181  -4.523  12.394  0.00  0.00     0.209 HD
ENDBRANCH  38  41
ENDBRANCH  35  38
ENDBRANCH  33  35
ENDBRANCH   7  33
TORSDOF 6
ENDMDL
MODEL 7
REMARK VINA RESULT:      -6.4      2.960      5.995
REMARK  6 active torsions:
REMARK  status: ('A' for Active; 'I' for Inactive)
REMARK    1  A    between atoms: C10_2  and  C11_3 
REMARK    2  A    between atoms: C4_18  and  N9_17 
REMARK    3  A    between atoms: N9_17  and  C8_24 
REMARK    4  A    between atoms: C1_21  and  C18_22 
REMARK    5  A    between atoms: C8_24  and  C23_23 
REMARK    6  A    between atoms: C23_23  and  O24_25 
ROOT
ATOM      1  C2  PFQ d          20.997  -1.865   9.047  0.00  0.00     0.091 A 
ATOM      2  C10 PFQ d          16.708  -2.251  10.277  0.00  0.00     0.100 A 
ATOM      3  N1  PFQ d          19.826  -1.253   8.973  0.00  0.00    -0.217 NA
ATOM      4  C6  PFQ d          18.738  -1.794   9.541  0.00  0.00     0.186 A 
ATOM      5  O6  PFQ d          17.453  -1.353   9.583  0.00  0.00    -0.289 OA
ATOM      6  C5  PFQ d          18.819  -3.010  10.218  0.00  0.00     0.077 A 
ATOM      7  C4  PFQ d          20.075  -3.624  10.275  0.00  0.00     0.140 A 
ATOM      8  N3  PFQ d          21.119  -3.017   9.681  0.00  0.00    -0.224 NA
ATOM      9  C1  PFQ d          17.533  -3.306  10.686  0.00  0.00     0.027 A 
ATOM     10  H1  PFQ d          21.866  -1.415   8.583  0.00  0.00     0.146 H 
ENDROOT
BRANCH   2  11
ATOM     11  C11 PFQ d          15.352  -1.990  10.453  0.00  0.00    -0.001 A 
ATOM     12  C12 PFQ d          14.578  -1.228   9.580  0.00  0.00    -0.070 A 
ATOM     13  C13 PFQ d          13.223  -1.046   9.864  0.00  0.00    -0.082 A 
ATOM     14  H2  PFQ d          15.021  -0.785   8.696  0.00  0.00     0.084 H 
ATOM     15  C14 PFQ d          12.651  -1.624  10.998  0.00  0.00    -0.083 A 
ATOM     16  H3  PFQ d          12.610  -0.449   9.198  0.00  0.00     0.083 H 
ATOM     17  C15 PFQ d          13.426  -2.384  11.875  0.00  0.00    -0.082 A 
ATOM     18  H4  PFQ d          11.595  -1.483  11.199  0.00  0.00     0.083 H 
ATOM     19  C16 PFQ d          14.765  -2.573  11.574  0.00  0.00    -0.070 A 
ATOM     20  H5  PFQ d          12.991  -2.816  12.770  0.00  0.00     0.083 H 
ATOM     21  H6  PFQ d          15.371  -3.188  12.228  0.00  0.00     0.084 H 
ENDBRANCH   2  11
BRANCH   9  22
ATOM     22  C18 PFQ d          17.221  -4.461  11.422  0.00  0.00    -0.022 A 
ATOM     23  C19 PFQ d          17.062  -4.375  12.810  0.00  0.00    -0.072 A 
ATOM     24  C20 PFQ d          16.782  -5.498  13.592  0.00  0.00    -0.082 A 
ATOM     25  H7  PFQ d          17.160  -3.409  13.292  0.00  0.00     0.084 H 
ATOM     26  C21 PFQ d          16.661  -6.742  12.970  0.00  0.00    -0.083 A 
ATOM     27  H8  PFQ d          16.661  -5.405  14.665  0.00  0.00     0.083 H 
ATOM     28  C22 PFQ d          16.827  -6.834  11.576  0.00  0.00    -0.082 A 
ATOM     29  H9  PFQ d          16.443  -7.629  13.555  0.00  0.00     0.083 H 
ATOM     30  C17 PFQ d          17.109  -5.706  10.799  0.00  0.00    -0.072 A 
ATOM     31  H10 PFQ d          16.734  -7.801  11.093  0.00  0.00     0.083 H 
ATOM     32  H12 PFQ d          17.239  -5.796   9.726  0.00  0.00     0.084 H 
ENDBRANCH   9  22
BRANCH   7  33
ATOM     33  N9  PFQ d          20.275  -4.794  10.891  0.00  0.00    -0.372 N 
ATOM     34  H11 PFQ d          19.488  -5.266  11.358  0.00  0.00     0.161 HD
BRANCH  33  35
ATOM     35  C8  PFQ d          21.614  -5.415  10.908  0.00  0.00     0.013 C 
ATOM     36  H15 PFQ d          22.195  -5.050  10.048  0.00  0.00     0.067 H 
ATOM     37  H16 PFQ d          21.508  -6.508  10.841  0.00  0.00     0.067 H 
BRANCH  35  38
ATOM     38  C23 PFQ d          22.351  -5.055  12.207  0.00  0.00     0.031 C 
ATOM     39  H13 PFQ d          23.203  -5.737  12.344  0.00  0.00     0.076 H 
ATOM     40  H14 PFQ d          21.661  -5.155  13.057  0.00  0.00     0.076 H 
BRANCH  38  41
ATOM     41  O24 PFQ d          22.829  -3.705  12.139  0.00  0.00    -0.399 OA
ATOM     42  H17 PFQ d          23.777  -3.708  12.074  0.00  0.00     0.209 HD
ENDBRANCH  38  41
ENDBRANCH  35  38
ENDBRANCH  33  35
ENDBRANCH   7  33
TORSDOF 6
ENDMDL
MODEL 8
REMARK VINA RESULT:      -5.4      2.038      5.579
REMARK  6 active torsions:
REMARK  status: ('A' for Active; 'I' for Inactive)
REMARK    1  A    between atoms: C10_2  and  C11_3 
REMARK    2  A    between atoms: C4_18  and  N9_17 
REMARK    3  A    between atoms: N9_17  and  C8_24 
REMARK    4  A    between atoms: C1_21  and  C18_22 
REMARK    5  A    between atoms: C8_24  and  C23_23 
REMARK    6  A    between atoms: C23_23  and  O24_25 
ROOT
ATOM      1  C2  PFQ d          15.252   0.417   8.907  0.00  0.00     0.091 A 
ATOM      2  C10 PFQ d          15.867  -3.344  11.259  0.00  0.00     0.100 A 
ATOM      3  N1  PFQ d          14.603  -0.500   9.606  0.00  0.00    -0.217 NA
ATOM      4  C6  PFQ d          15.265  -1.521  10.170  0.00  0.00     0.186 A 
ATOM      5  O6  PFQ d          14.810  -2.564  10.913  0.00  0.00    -0.289 OA
ATOM      6  C5  PFQ d          16.647  -1.638  10.027  0.00  0.00     0.077 A 
ATOM      7  C4  PFQ d          17.296  -0.648   9.281  0.00  0.00     0.140 A 
ATOM      8  N3  PFQ d          16.561   0.346   8.750  0.00  0.00    -0.224 NA
ATOM      9  C1  PFQ d          17.034  -2.794  10.715  0.00  0.00     0.027 A 
ATOM     10  H1  PFQ d          14.703   1.236   8.458  0.00  0.00     0.146 H 
ENDROOT
BRANCH   2  11
ATOM     11  C11 PFQ d          15.629  -4.473  12.038  0.00  0.00    -0.001 A 
ATOM     12  C12 PFQ d          14.508  -4.646  12.848  0.00  0.00    -0.070 A 
ATOM     13  C13 PFQ d          14.380  -5.830  13.578  0.00  0.00    -0.082 A 
ATOM     14  H2  PFQ d          13.749  -3.875  12.911  0.00  0.00     0.084 H 
ATOM     15  C14 PFQ d          15.353  -6.828  13.489  0.00  0.00    -0.083 A 
ATOM     16  H3  PFQ d          13.518  -5.976  14.218  0.00  0.00     0.083 H 
ATOM     17  C15 PFQ d          16.477  -6.653  12.681  0.00  0.00    -0.082 A 
ATOM     18  H4  PFQ d          15.234  -7.746  14.053  0.00  0.00     0.083 H 
ATOM     19  C16 PFQ d          16.585  -5.482  11.949  0.00  0.00    -0.070 A 
ATOM     20  H5  PFQ d          17.247  -7.415  12.627  0.00  0.00     0.083 H 
ATOM     21  H6  PFQ d          17.435  -5.347  11.291  0.00  0.00     0.084 H 
ENDBRANCH   2  11
BRANCH   9  22
ATOM     22  C18 PFQ d          18.363  -3.241  10.797  0.00  0.00    -0.022 A 
ATOM     23  C19 PFQ d          19.085  -3.053  11.982  0.00  0.00    -0.072 A 
ATOM     24  C20 PFQ d          20.418  -3.451  12.106  0.00  0.00    -0.082 A 
ATOM     25  H7  PFQ d          18.594  -2.585  12.828  0.00  0.00     0.084 H 
ATOM     26  C21 PFQ d          21.050  -4.049  11.014  0.00  0.00    -0.083 A 
ATOM     27  H8  PFQ d          20.954  -3.297  13.035  0.00  0.00     0.083 H 
ATOM     28  C22 PFQ d          20.330  -4.234   9.819  0.00  0.00    -0.082 A 
ATOM     29  H9  PFQ d          22.083  -4.368  11.086  0.00  0.00     0.083 H 
ATOM     30  C17 PFQ d          18.996  -3.832   9.701  0.00  0.00    -0.072 A 
ATOM     31  H10 PFQ d          20.821  -4.698   8.971  0.00  0.00     0.083 H 
ATOM     32  H12 PFQ d          18.459  -3.977   8.770  0.00  0.00     0.084 H 
ENDBRANCH   9  22
BRANCH   7  33
ATOM     33  N9  PFQ d          18.617  -0.657   9.072  0.00  0.00    -0.372 N 
ATOM     34  H11 PFQ d          19.259  -0.454   9.851  0.00  0.00     0.161 HD
BRANCH  33  35
ATOM     35  C8  PFQ d          19.163  -0.956   7.733  0.00  0.00     0.013 C 
ATOM     36  H15 PFQ d          18.960  -0.110   7.060  0.00  0.00     0.067 H 
ATOM     37  H16 PFQ d          18.680  -1.862   7.339  0.00  0.00     0.067 H 
BRANCH  35  38
ATOM     38  C23 PFQ d          20.680  -1.184   7.817  0.00  0.00     0.031 C 
ATOM     39  H13 PFQ d          21.159  -0.780   6.913  0.00  0.00     0.076 H 
ATOM     40  H14 PFQ d          20.883  -2.263   7.888  0.00  0.00     0.076 H 
BRANCH  38  41
ATOM     41  O24 PFQ d          21.210  -0.523   8.973  0.00  0.00    -0.399 OA
ATOM     42  H17 PFQ d          20.510  -0.069   9.426  0.00  0.00     0.209 HD
ENDBRANCH  38  41
ENDBRANCH  35  38
ENDBRANCH  33  35
ENDBRANCH   7  33
TORSDOF 6
ENDMDL
