MODEL 1
REMARK VINA RESULT:      -9.5      0.000      0.000
REMARK  29 active torsions:
REMARK  status: ('A' for Active; 'I' for Inactive)
REMARK    1  A    between atoms: CR1_1  and  OR1_7 
REMARK    2  A    between atoms: CR2_2  and  OR2_8 
REMARK    3  A    between atoms: CR3_3  and  OR3_9 
REMARK    4  A    between atoms: OR4_10  and  CR4_4 
REMARK    5  A    between atoms: CR5_5  and  CR6_6 
REMARK    6  A    between atoms: CR6_6  and  OR6_12 
REMARK    7  A    between atoms: CV1_13  and  OR4_10 
REMARK    8  A    between atoms: CV2_14  and  OV2_19 
REMARK    9  A    between atoms: CV3_15  and  OV3_20 
REMARK   10  A    between atoms: NV4_21  and  CV4_16 
REMARK   11  A    between atoms: CV5_17  and  CV6_18 
REMARK   12  A    between atoms: CY1_45  and  NV4_21 
REMARK   13  A    between atoms: OY4_51  and  CQ1_23 
REMARK   14  A    between atoms: CQ2_24  and  OQ2_29 
REMARK   15  A    between atoms: CQ3_25  and  OQ3_30 
REMARK   16  A    between atoms: CQ4_26  and  OQ4_31 
REMARK   17  A    between atoms: CQ5_27  and  CQ6_28 
REMARK   18  A    between atoms: CQ6_28  and  OQ6_33 
REMARK   19  A    between atoms: OQ4_31  and  CW1_34 
REMARK   20  A    between atoms: CW2_35  and  OW2_40 
REMARK   21  A    between atoms: CW3_36  and  OW3_41 
REMARK   22  A    between atoms: CW4_37  and  OW4_42 
REMARK   23  A    between atoms: CW5_38  and  CW6_39 
REMARK   24  A    between atoms: CW6_39  and  OW6_44 
REMARK   25  A    between atoms: CY2_46  and  OY2_47 
REMARK   26  A    between atoms: CY3_48  and  OY3_49 
REMARK   27  A    between atoms: CY4_50  and  OY4_51 
REMARK   28  A    between atoms: CY5_52  and  CY7_54 
REMARK   29  A    between atoms: CY7_54  and  OY7_55 
ROOT
ATOM      1  CY1 MOL d          10.039  17.520  45.005  0.00  0.00     0.130 C 
ATOM      2  CY2 MOL d          10.958  18.799  44.907  0.00  0.00     0.090 C 
ATOM      3  CY3 MOL d          11.609  18.884  43.455  0.00  0.00     0.087 C 
ATOM      4  CY4 MOL d          12.444  17.553  43.104  0.00  0.00     0.074 C 
ATOM      5  CY5 MOL d          11.738  16.277  43.564  0.00  0.00    -0.004 C 
ATOM      6  CY6 MOL d          11.043  16.345  44.719  0.00  0.00    -0.028 C 
ATOM      7  H45 MOL d           9.631  17.406  46.020  0.00  0.00     0.088 H 
ATOM      8  H46 MOL d          11.763  18.710  45.652  0.00  0.00     0.090 H 
ATOM      9  H48 MOL d          10.792  18.977  42.724  0.00  0.00     0.091 H 
ATOM     10  H50 MOL d          13.439  17.620  43.566  0.00  0.00     0.088 H 
ATOM     11  H51 MOL d          10.992  16.070  42.782  0.00  0.00     0.047 H 
ATOM     12  H52 MOL d          10.459  15.414  44.786  0.00  0.00     0.036 H 
ATOM     13  H53 MOL d          11.787  16.368  45.529  0.00  0.00     0.036 H 
ENDROOT
BRANCH   1  14
ATOM     14  NV4 MOL d           8.859  17.687  44.033  0.00  0.00    -0.059 N 
ATOM     15  H22 MOL d           8.094  18.061  44.571  0.00  0.00     0.278 HD
ATOM     16  H23 MOL d           9.148  18.364  43.344  0.00  0.00     0.278 HD
BRANCH  14  17
ATOM     17  CV4 MOL d           8.324  16.526  43.288  0.00  0.00     0.153 C 
ATOM     18  CV3 MOL d           7.086  15.961  44.020  0.00  0.00     0.094 C 
ATOM     19  CV2 MOL d           6.556  14.762  43.237  0.00  0.00     0.110 C 
ATOM     20  H14 MOL d           6.312  16.739  44.089  0.00  0.00     0.090 H 
ATOM     21  CV1 MOL d           6.189  15.129  41.804  0.00  0.00     0.159 C 
ATOM     22  H13 MOL d           7.354  14.005  43.207  0.00  0.00     0.094 H 
ATOM     23  OV5 MOL d           7.322  15.771  41.161  0.00  0.00    -0.351 OA
ATOM     24  H12 MOL d           5.969  14.193  41.270  0.00  0.00     0.133 H 
ATOM     25  CV5 MOL d           7.853  16.960  41.854  0.00  0.00     0.068 C 
ATOM     26  H16 MOL d           7.061  17.719  41.942  0.00  0.00     0.086 H 
ATOM     27  H15 MOL d           9.103  15.753  43.209  0.00  0.00     0.092 H 
BRANCH  18  28
ATOM     28  OV3 MOL d           7.435  15.521  45.311  0.00  0.00    -0.391 OA
ATOM     29  H21 MOL d           6.664  15.177  45.746  0.00  0.00     0.210 HD
ENDBRANCH  18  28
BRANCH  19  30
ATOM     30  OV2 MOL d           5.426  14.190  43.857  0.00  0.00    -0.388 OA
ATOM     31  H20 MOL d           4.735  14.839  43.913  0.00  0.00     0.210 HD
ENDBRANCH  19  30
BRANCH  21  32
ATOM     32  OR4 MOL d           5.071  15.946  41.692  0.00  0.00    -0.348 OA
BRANCH  32  33
ATOM     33  CR4 MOL d           3.947  15.337  41.057  0.00  0.00     0.096 C 
ATOM     34  CR3 MOL d           2.707  15.507  41.972  0.00  0.00     0.092 C 
ATOM     35  CR2 MOL d           1.499  14.861  41.285  0.00  0.00     0.110 C 
ATOM     36  H3  MOL d           2.518  16.576  42.148  0.00  0.00     0.091 H 
ATOM     37  CR1 MOL d           1.243  15.549  39.916  0.00  0.00     0.156 C 
ATOM     38  H2  MOL d           1.704  13.792  41.126  0.00  0.00     0.094 H 
ATOM     39  OR5 MOL d           2.457  15.445  39.069  0.00  0.00    -0.349 OA
ATOM     40  H1  MOL d           0.418  15.022  39.415  0.00  0.00     0.133 H 
ATOM     41  CR5 MOL d           3.654  16.057  39.659  0.00  0.00     0.089 C 
ATOM     42  H5  MOL d           3.468  17.126  39.840  0.00  0.00     0.090 H 
ATOM     43  H4  MOL d           4.149  14.269  40.891  0.00  0.00     0.091 H 
BRANCH  34  44
ATOM     44  OR3 MOL d           2.916  14.848  43.201  0.00  0.00    -0.390 OA
ATOM     45  H10 MOL d           3.675  15.220  43.634  0.00  0.00     0.210 HD
ENDBRANCH  34  44
BRANCH  35  46
ATOM     46  OR2 MOL d           0.343  15.000  42.081  0.00  0.00    -0.388 OA
ATOM     47  H9  MOL d           0.484  14.577  42.920  0.00  0.00     0.210 HD
ENDBRANCH  35  46
BRANCH  37  48
ATOM     48  OR1 MOL d           0.875  16.910  40.064  0.00  0.00    -0.369 OA
ATOM     49  H8  MOL d           0.098  16.969  40.607  0.00  0.00     0.212 HD
ENDBRANCH  37  48
BRANCH  41  50
ATOM     50  CR6 MOL d           4.754  15.927  38.748  0.00  0.00     0.043 C 
ATOM     51  H6  MOL d           5.632  16.429  39.182  0.00  0.00     0.078 H 
ATOM     52  H7  MOL d           4.485  16.414  37.800  0.00  0.00     0.078 H 
BRANCH  50  53
ATOM     53  OR6 MOL d           5.089  14.569  38.486  0.00  0.00    -0.398 OA
ATOM     54  H11 MOL d           4.340  14.128  38.104  0.00  0.00     0.209 HD
ENDBRANCH  50  53
ENDBRANCH  41  50
ENDBRANCH  32  33
ENDBRANCH  21  32
BRANCH  25  55
ATOM     55  CV6 MOL d           9.017  17.542  41.068  0.00  0.00    -0.050 C 
ATOM     56  H17 MOL d           8.671  17.841  40.067  0.00  0.00     0.031 H 
ATOM     57  H18 MOL d           9.809  16.785  40.970  0.00  0.00     0.031 H 
ATOM     58  H19 MOL d           9.414  18.421  41.596  0.00  0.00     0.031 H 
ENDBRANCH  25  55
ENDBRANCH  14  17
ENDBRANCH   1  14
BRANCH   2  59
ATOM     59  OY2 MOL d          10.240  19.959  45.170  0.00  0.00    -0.391 OA
ATOM     60  H47 MOL d          10.817  20.710  45.104  0.00  0.00     0.210 HD
ENDBRANCH   2  59
BRANCH   3  61
ATOM     61  OY3 MOL d          12.430  20.016  43.338  0.00  0.00    -0.390 OA
ATOM     62  H49 MOL d          11.911  20.797  43.487  0.00  0.00     0.210 HD
ENDBRANCH   3  61
BRANCH   5  63
ATOM     63  CY7 MOL d          12.680  15.043  43.608  0.00  0.00     0.022 C 
ATOM     64  H54 MOL d          13.098  14.870  42.606  0.00  0.00     0.074 H 
ATOM     65  H55 MOL d          12.106  14.159  43.924  0.00  0.00     0.074 H 
BRANCH  63  66
ATOM     66  OY7 MOL d          13.760  15.269  44.544  0.00  0.00    -0.400 OA
ATOM     67  H56 MOL d          14.328  14.507  44.561  0.00  0.00     0.209 HD
ENDBRANCH  63  66
ENDBRANCH   5  63
BRANCH   4  68
ATOM     68  OY4 MOL d          12.555  17.420  41.691  0.00  0.00    -0.350 OA
BRANCH  68  69
ATOM     69  CQ1 MOL d          13.680  18.043  41.114  0.00  0.00     0.159 C 
ATOM     70  CQ2 MOL d          13.398  18.355  39.628  0.00  0.00     0.110 C 
ATOM     71  CQ3 MOL d          13.436  17.080  38.733  0.00  0.00     0.092 C 
ATOM     72  H25 MOL d          14.160  19.062  39.268  0.00  0.00     0.094 H 
ATOM     73  CQ4 MOL d          14.802  16.406  38.877  0.00  0.00     0.096 C 
ATOM     74  H26 MOL d          12.649  16.376  39.044  0.00  0.00     0.091 H 
ATOM     75  CQ5 MOL d          14.908  15.993  40.407  0.00  0.00     0.089 C 
ATOM     76  H27 MOL d          15.611  17.099  38.600  0.00  0.00     0.091 H 
ATOM     77  OQ5 MOL d          14.835  17.174  41.243  0.00  0.00    -0.348 OA
ATOM     78  H28 MOL d          14.068  15.323  40.642  0.00  0.00     0.090 H 
ATOM     79  H24 MOL d          13.881  18.985  41.645  0.00  0.00     0.133 H 
BRANCH  70  80
ATOM     80  OQ2 MOL d          12.117  18.948  39.511  0.00  0.00    -0.388 OA
ATOM     81  H31 MOL d          11.456  18.329  39.799  0.00  0.00     0.210 HD
ENDBRANCH  70  80
BRANCH  71  82
ATOM     82  OQ3 MOL d          13.200  17.499  37.387  0.00  0.00    -0.390 OA
ATOM     83  H32 MOL d          13.227  16.743  36.812  0.00  0.00     0.210 HD
ENDBRANCH  71  82
BRANCH  73  84
ATOM     84  OQ4 MOL d          14.858  15.261  38.074  0.00  0.00    -0.348 OA
BRANCH  84  85
ATOM     85  CW1 MOL d          16.001  15.301  37.204  0.00  0.00     0.159 C 
ATOM     86  CW2 MOL d          15.621  15.199  35.708  0.00  0.00     0.110 C 
ATOM     87  CW3 MOL d          14.971  13.815  35.446  0.00  0.00     0.092 C 
ATOM     88  H35 MOL d          16.522  15.301  35.085  0.00  0.00     0.094 H 
ATOM     89  CW4 MOL d          16.018  12.741  35.792  0.00  0.00     0.090 C 
ATOM     90  H36 MOL d          14.072  13.688  36.067  0.00  0.00     0.091 H 
ATOM     91  CW5 MOL d          16.392  12.876  37.320  0.00  0.00     0.089 C 
ATOM     92  H37 MOL d          16.916  12.881  35.173  0.00  0.00     0.091 H 
ATOM     93  OW5 MOL d          16.927  14.209  37.547  0.00  0.00    -0.348 OA
ATOM     94  H38 MOL d          15.491  12.727  37.932  0.00  0.00     0.090 H 
ATOM     95  H34 MOL d          16.514  16.261  37.362  0.00  0.00     0.133 H 
BRANCH  86  96
ATOM     96  OW2 MOL d          14.729  16.249  35.415  0.00  0.00    -0.388 OA
ATOM     97  H41 MOL d          13.957  16.169  35.963  0.00  0.00     0.210 HD
ENDBRANCH  86  96
BRANCH  87  98
ATOM     98  OW3 MOL d          14.635  13.716  34.082  0.00  0.00    -0.390 OA
ATOM     99  H42 MOL d          14.277  12.854  33.907  0.00  0.00     0.210 HD
ENDBRANCH  87  98
BRANCH  89 100
ATOM    100  OW4 MOL d          15.468  11.455  35.558  0.00  0.00    -0.390 OA
ATOM    101  H43 MOL d          16.108  10.792  35.790  0.00  0.00     0.210 HD
ENDBRANCH  89 100
BRANCH  91 102
ATOM    102  CW6 MOL d          17.458  11.835  37.716  0.00  0.00     0.043 C 
ATOM    103  H39 MOL d          17.822  12.066  38.728  0.00  0.00     0.078 H 
ATOM    104  H40 MOL d          18.293  11.891  37.003  0.00  0.00     0.078 H 
BRANCH 102 105
ATOM    105  OW6 MOL d          16.941  10.531  37.707  0.00  0.00    -0.398 OA
ATOM    106  H44 MOL d          16.628  10.322  36.834  0.00  0.00     0.209 HD
ENDBRANCH 102 105
ENDBRANCH  91 102
ENDBRANCH  84  85
ENDBRANCH  73  84
BRANCH  75 107
ATOM    107  CQ6 MOL d          16.213  15.288  40.759  0.00  0.00     0.043 C 
ATOM    108  H29 MOL d          16.181  14.257  40.376  0.00  0.00     0.078 H 
ATOM    109  H30 MOL d          16.330  15.269  41.853  0.00  0.00     0.078 H 
BRANCH 107 110
ATOM    110  OQ6 MOL d          17.314  15.958  40.188  0.00  0.00    -0.398 OA
ATOM    111  H33 MOL d          17.348  16.848  40.520  0.00  0.00     0.209 HD
ENDBRANCH 107 110
ENDBRANCH  75 107
ENDBRANCH  68  69
ENDBRANCH   4  68
TORSDOF 29
ENDMDL
