MODEL 1
REMARK VINA RESULT:      -8.5      0.000      0.000
REMARK  29 active torsions:
REMARK  status: ('A' for Active; 'I' for Inactive)
REMARK    1  A    between atoms: CR1_1  and  OR1_7 
REMARK    2  A    between atoms: CR2_2  and  OR2_8 
REMARK    3  A    between atoms: CR3_3  and  OR3_9 
REMARK    4  A    between atoms: OR4_10  and  CR4_4 
REMARK    5  A    between atoms: CR5_5  and  CR6_6 
REMARK    6  A    between atoms: CR6_6  and  OR6_12 
REMARK    7  A    between atoms: CV1_13  and  OR4_10 
REMARK    8  A    between atoms: CV2_14  and  OV2_19 
REMARK    9  A    between atoms: CV3_15  and  OV3_20 
REMARK   10  A    between atoms: NV4_21  and  CV4_16 
REMARK   11  A    between atoms: CV5_17  and  CV6_18 
REMARK   12  A    between atoms: CY1_45  and  NV4_21 
REMARK   13  A    between atoms: OY4_51  and  CQ1_23 
REMARK   14  A    between atoms: CQ2_24  and  OQ2_29 
REMARK   15  A    between atoms: CQ3_25  and  OQ3_30 
REMARK   16  A    between atoms: CQ4_26  and  OQ4_31 
REMARK   17  A    between atoms: CQ5_27  and  CQ6_28 
REMARK   18  A    between atoms: CQ6_28  and  OQ6_33 
REMARK   19  A    between atoms: OQ4_31  and  CW1_34 
REMARK   20  A    between atoms: CW2_35  and  OW2_40 
REMARK   21  A    between atoms: CW3_36  and  OW3_41 
REMARK   22  A    between atoms: CW4_37  and  OW4_42 
REMARK   23  A    between atoms: CW5_38  and  CW6_39 
REMARK   24  A    between atoms: CW6_39  and  OW6_44 
REMARK   25  A    between atoms: CY2_46  and  OY2_47 
REMARK   26  A    between atoms: CY3_48  and  OY3_49 
REMARK   27  A    between atoms: CY4_50  and  OY4_51 
REMARK   28  A    between atoms: CY5_52  and  CY7_54 
REMARK   29  A    between atoms: CY7_54  and  OY7_55 
ROOT
ATOM      1  CY1 MOL d           9.907  17.291  44.843  0.00  0.00     0.130 C 
ATOM      2  CY2 MOL d          10.843  18.562  44.883  0.00  0.00     0.090 C 
ATOM      3  CY3 MOL d          11.561  18.746  43.472  0.00  0.00     0.087 C 
ATOM      4  CY4 MOL d          12.398  17.435  43.060  0.00  0.00     0.074 C 
ATOM      5  CY5 MOL d          11.659  16.137  43.391  0.00  0.00    -0.004 C 
ATOM      6  CY6 MOL d          10.911  16.127  44.515  0.00  0.00    -0.028 C 
ATOM      7  H45 MOL d           9.451  17.107  45.826  0.00  0.00     0.088 H 
ATOM      8  H46 MOL d          11.611  18.407  45.655  0.00  0.00     0.090 H 
ATOM      9  H48 MOL d          10.779  18.904  42.714  0.00  0.00     0.091 H 
ATOM     10  H50 MOL d          13.371  17.454  43.572  0.00  0.00     0.088 H 
ATOM     11  H51 MOL d          10.948  15.999  42.563  0.00  0.00     0.047 H 
ATOM     12  H52 MOL d          10.316  15.202  44.485  0.00  0.00     0.036 H 
ATOM     13  H53 MOL d          11.618  16.081  45.357  0.00  0.00     0.036 H 
ENDROOT
BRANCH   1  14
ATOM     14  NV4 MOL d           8.775  17.546  43.834  0.00  0.00    -0.059 N 
ATOM     15  H22 MOL d           8.039  18.014  44.339  0.00  0.00     0.278 HD
ATOM     16  H23 MOL d           9.149  18.166  43.133  0.00  0.00     0.278 HD
BRANCH  14  17
ATOM     17  CV4 MOL d           8.142  16.422  43.109  0.00  0.00     0.153 C 
ATOM     18  CV3 MOL d           6.818  16.032  43.804  0.00  0.00     0.094 C 
ATOM     19  CV2 MOL d           6.187  14.868  43.045  0.00  0.00     0.110 C 
ATOM     20  H14 MOL d           6.135  16.894  43.809  0.00  0.00     0.090 H 
ATOM     21  CV1 MOL d           5.923  15.212  41.584  0.00  0.00     0.159 C 
ATOM     22  H13 MOL d           6.893  14.025  43.080  0.00  0.00     0.094 H 
ATOM     23  OV5 MOL d           7.148  15.694  40.969  0.00  0.00    -0.351 OA
ATOM     24  H12 MOL d           5.620  14.285  41.076  0.00  0.00     0.133 H 
ATOM     25  CV5 MOL d           7.783  16.844  41.640  0.00  0.00     0.068 C 
ATOM     26  H16 MOL d           7.080  17.690  41.663  0.00  0.00     0.086 H 
ATOM     27  H15 MOL d           8.829  15.563  43.096  0.00  0.00     0.092 H 
BRANCH  18  28
ATOM     28  OV3 MOL d           7.060  15.612  45.127  0.00  0.00    -0.391 OA
ATOM     29  H21 MOL d           7.946  15.274  45.193  0.00  0.00     0.210 HD
ENDBRANCH  18  28
BRANCH  19  30
ATOM     30  OV2 MOL d           4.974  14.455  43.633  0.00  0.00    -0.388 OA
ATOM     31  H20 MOL d           4.538  15.205  44.019  0.00  0.00     0.210 HD
ENDBRANCH  19  30
BRANCH  21  32
ATOM     32  OR4 MOL d           4.912  16.145  41.389  0.00  0.00    -0.348 OA
BRANCH  32  33
ATOM     33  CR4 MOL d           4.100  15.914  40.238  0.00  0.00     0.096 C 
ATOM     34  CR3 MOL d           5.011  15.896  38.984  0.00  0.00     0.092 C 
ATOM     35  CR2 MOL d           4.140  15.638  37.749  0.00  0.00     0.110 C 
ATOM     36  H3  MOL d           5.770  15.106  39.086  0.00  0.00     0.091 H 
ATOM     37  CR1 MOL d           3.415  14.272  37.894  0.00  0.00     0.156 C 
ATOM     38  H2  MOL d           3.395  16.442  37.660  0.00  0.00     0.094 H 
ATOM     39  OR5 MOL d           2.599  14.267  39.134  0.00  0.00    -0.349 OA
ATOM     40  H1  MOL d           2.745  14.145  37.030  0.00  0.00     0.133 H 
ATOM     41  CR5 MOL d           3.371  14.495  40.360  0.00  0.00     0.089 C 
ATOM     42  H5  MOL d           4.134  13.709  40.465  0.00  0.00     0.090 H 
ATOM     43  H4  MOL d           3.349  16.711  40.147  0.00  0.00     0.091 H 
BRANCH  34  44
ATOM     44  OR3 MOL d           5.640  17.147  38.822  0.00  0.00    -0.390 OA
ATOM     45  H10 MOL d           5.439  17.701  39.567  0.00  0.00     0.210 HD
ENDBRANCH  34  44
BRANCH  35  46
ATOM     46  OR2 MOL d           4.932  15.605  36.582  0.00  0.00    -0.388 OA
ATOM     47  H9  MOL d           5.695  16.158  36.703  0.00  0.00     0.210 HD
ENDBRANCH  35  46
BRANCH  37  48
ATOM     48  OR1 MOL d           4.325  13.185  37.914  0.00  0.00    -0.369 OA
ATOM     49  H8  MOL d           3.897  12.410  37.567  0.00  0.00     0.212 HD
ENDBRANCH  37  48
BRANCH  41  50
ATOM     50  CR6 MOL d           2.493  14.440  41.494  0.00  0.00     0.043 C 
ATOM     51  H6  MOL d           3.003  13.905  42.309  0.00  0.00     0.078 H 
ATOM     52  H7  MOL d           1.583  13.893  41.208  0.00  0.00     0.078 H 
BRANCH  50  53
ATOM     53  OR6 MOL d           2.121  15.732  41.960  0.00  0.00    -0.398 OA
ATOM     54  H11 MOL d           2.636  15.950  42.728  0.00  0.00     0.209 HD
ENDBRANCH  50  53
ENDBRANCH  41  50
ENDBRANCH  32  33
ENDBRANCH  21  32
BRANCH  25  55
ATOM     55  CV6 MOL d           9.038  17.256  40.886  0.00  0.00    -0.050 C 
ATOM     56  H17 MOL d           9.282  16.491  40.134  0.00  0.00     0.031 H 
ATOM     57  H18 MOL d           9.875  17.356  41.593  0.00  0.00     0.031 H 
ATOM     58  H19 MOL d           8.865  18.220  40.385  0.00  0.00     0.031 H 
ENDBRANCH  25  55
ENDBRANCH  14  17
ENDBRANCH   1  14
BRANCH   2  59
ATOM     59  OY2 MOL d          10.123  19.708  45.200  0.00  0.00    -0.391 OA
ATOM     60  H47 MOL d           9.912  19.702  46.126  0.00  0.00     0.210 HD
ENDBRANCH   2  59
BRANCH   3  61
ATOM     61  OY3 MOL d          12.397  19.872  43.477  0.00  0.00    -0.390 OA
ATOM     62  H49 MOL d          13.121  19.730  42.880  0.00  0.00     0.210 HD
ENDBRANCH   3  61
BRANCH   5  63
ATOM     63  CY7 MOL d          12.585  14.891  43.385  0.00  0.00     0.022 C 
ATOM     64  H54 MOL d          12.414  14.315  42.464  0.00  0.00     0.074 H 
ATOM     65  H55 MOL d          12.355  14.263  44.259  0.00  0.00     0.074 H 
BRANCH  63  66
ATOM     66  OY7 MOL d          13.973  15.297  43.442  0.00  0.00    -0.400 OA
ATOM     67  H56 MOL d          14.386  15.129  42.603  0.00  0.00     0.209 HD
ENDBRANCH  63  66
ENDBRANCH   5  63
BRANCH   4  68
ATOM     68  OY4 MOL d          12.572  17.405  41.648  0.00  0.00    -0.350 OA
BRANCH  68  69
ATOM     69  CQ1 MOL d          13.613  18.217  41.154  0.00  0.00     0.159 C 
ATOM     70  CQ2 MOL d          13.358  18.543  39.666  0.00  0.00     0.110 C 
ATOM     71  CQ3 MOL d          13.637  17.326  38.732  0.00  0.00     0.092 C 
ATOM     72  H25 MOL d          14.017  19.373  39.370  0.00  0.00     0.094 H 
ATOM     73  CQ4 MOL d          15.084  16.866  38.928  0.00  0.00     0.096 C 
ATOM     74  H26 MOL d          12.956  16.497  38.978  0.00  0.00     0.091 H 
ATOM     75  CQ5 MOL d          15.179  16.412  40.447  0.00  0.00     0.089 C 
ATOM     76  H27 MOL d          15.787  17.685  38.718  0.00  0.00     0.091 H 
ATOM     77  OQ5 MOL d          14.882  17.533  41.316  0.00  0.00    -0.348 OA
ATOM     78  H28 MOL d          14.443  15.611  40.614  0.00  0.00     0.090 H 
ATOM     79  H24 MOL d          13.639  19.157  41.725  0.00  0.00     0.133 H 
BRANCH  70  80
ATOM     80  OQ2 MOL d          12.007  18.935  39.499  0.00  0.00    -0.388 OA
ATOM     81  H31 MOL d          11.706  18.670  38.638  0.00  0.00     0.210 HD
ENDBRANCH  70  80
BRANCH  71  82
ATOM     82  OQ3 MOL d          13.404  17.758  37.390  0.00  0.00    -0.390 OA
ATOM     83  H32 MOL d          12.637  17.317  37.045  0.00  0.00     0.210 HD
ENDBRANCH  71  82
BRANCH  73  84
ATOM     84  OQ4 MOL d          15.356  15.777  38.092  0.00  0.00    -0.348 OA
BRANCH  84  85
ATOM     85  CW1 MOL d          14.586  14.628  38.479  0.00  0.00     0.159 C 
ATOM     86  CW2 MOL d          15.343  13.296  38.265  0.00  0.00     0.110 C 
ATOM     87  CW3 MOL d          15.607  13.104  36.748  0.00  0.00     0.092 C 
ATOM     88  H35 MOL d          14.737  12.457  38.637  0.00  0.00     0.094 H 
ATOM     89  CW4 MOL d          14.238  13.044  36.047  0.00  0.00     0.090 C 
ATOM     90  H36 MOL d          16.204  13.939  36.353  0.00  0.00     0.091 H 
ATOM     91  CW5 MOL d          13.487  14.410  36.290  0.00  0.00     0.089 C 
ATOM     92  H37 MOL d          13.646  12.212  36.454  0.00  0.00     0.091 H 
ATOM     93  OW5 MOL d          13.322  14.596  37.723  0.00  0.00    -0.348 OA
ATOM     94  H38 MOL d          14.082  15.236  35.873  0.00  0.00     0.090 H 
ATOM     95  H34 MOL d          14.353  14.721  39.550  0.00  0.00     0.133 H 
BRANCH  86  96
ATOM     96  OW2 MOL d          16.548  13.361  38.991  0.00  0.00    -0.388 OA
ATOM     97  H41 MOL d          17.252  13.625  38.411  0.00  0.00     0.210 HD
ENDBRANCH  86  96
BRANCH  87  98
ATOM     98  OW3 MOL d          16.286  11.886  36.551  0.00  0.00    -0.390 OA
ATOM     99  H42 MOL d          16.923  11.990  35.854  0.00  0.00     0.210 HD
ENDBRANCH  87  98
BRANCH  89 100
ATOM    100  OW4 MOL d          14.431  12.859  34.654  0.00  0.00    -0.390 OA
ATOM    101  H43 MOL d          15.095  12.194  34.514  0.00  0.00     0.210 HD
ENDBRANCH  89 100
BRANCH  91 102
ATOM    102  CW6 MOL d          12.096  14.396  35.625  0.00  0.00     0.043 C 
ATOM    103  H39 MOL d          11.743  13.356  35.560  0.00  0.00     0.078 H 
ATOM    104  H40 MOL d          12.181  14.819  34.613  0.00  0.00     0.078 H 
BRANCH 102 105
ATOM    105  OW6 MOL d          11.162  15.147  36.353  0.00  0.00    -0.398 OA
ATOM    106  H44 MOL d          10.394  15.301  35.817  0.00  0.00     0.209 HD
ENDBRANCH 102 105
ENDBRANCH  91 102
ENDBRANCH  84  85
ENDBRANCH  73  84
BRANCH  75 107
ATOM    107  CQ6 MOL d          16.560  15.902  40.846  0.00  0.00     0.043 C 
ATOM    108  H29 MOL d          17.106  16.706  41.362  0.00  0.00     0.078 H 
ATOM    109  H30 MOL d          17.110  15.608  39.940  0.00  0.00     0.078 H 
BRANCH 107 110
ATOM    110  OQ6 MOL d          16.454  14.789  41.704  0.00  0.00    -0.398 OA
ATOM    111  H33 MOL d          15.666  14.302  41.493  0.00  0.00     0.209 HD
ENDBRANCH 107 110
ENDBRANCH  75 107
ENDBRANCH  68  69
ENDBRANCH   4  68
TORSDOF 29
ENDMDL
MODEL 2
REMARK VINA RESULT:      -5.9      2.331      7.760
REMARK  29 active torsions:
REMARK  status: ('A' for Active; 'I' for Inactive)
REMARK    1  A    between atoms: CR1_1  and  OR1_7 
REMARK    2  A    between atoms: CR2_2  and  OR2_8 
REMARK    3  A    between atoms: CR3_3  and  OR3_9 
REMARK    4  A    between atoms: OR4_10  and  CR4_4 
REMARK    5  A    between atoms: CR5_5  and  CR6_6 
REMARK    6  A    between atoms: CR6_6  and  OR6_12 
REMARK    7  A    between atoms: CV1_13  and  OR4_10 
REMARK    8  A    between atoms: CV2_14  and  OV2_19 
REMARK    9  A    between atoms: CV3_15  and  OV3_20 
REMARK   10  A    between atoms: NV4_21  and  CV4_16 
REMARK   11  A    between atoms: CV5_17  and  CV6_18 
REMARK   12  A    between atoms: CY1_45  and  NV4_21 
REMARK   13  A    between atoms: OY4_51  and  CQ1_23 
REMARK   14  A    between atoms: CQ2_24  and  OQ2_29 
REMARK   15  A    between atoms: CQ3_25  and  OQ3_30 
REMARK   16  A    between atoms: CQ4_26  and  OQ4_31 
REMARK   17  A    between atoms: CQ5_27  and  CQ6_28 
REMARK   18  A    between atoms: CQ6_28  and  OQ6_33 
REMARK   19  A    between atoms: OQ4_31  and  CW1_34 
REMARK   20  A    between atoms: CW2_35  and  OW2_40 
REMARK   21  A    between atoms: CW3_36  and  OW3_41 
REMARK   22  A    between atoms: CW4_37  and  OW4_42 
REMARK   23  A    between atoms: CW5_38  and  CW6_39 
REMARK   24  A    between atoms: CW6_39  and  OW6_44 
REMARK   25  A    between atoms: CY2_46  and  OY2_47 
REMARK   26  A    between atoms: CY3_48  and  OY3_49 
REMARK   27  A    between atoms: CY4_50  and  OY4_51 
REMARK   28  A    between atoms: CY5_52  and  CY7_54 
REMARK   29  A    between atoms: CY7_54  and  OY7_55 
ROOT
ATOM      1  CY1 MOL d          12.820  18.439  42.791  0.00  0.00     0.130 C 
ATOM      2  CY2 MOL d          11.831  18.889  43.937  0.00  0.00     0.090 C 
ATOM      3  CY3 MOL d          10.525  17.978  43.909  0.00  0.00     0.087 C 
ATOM      4  CY4 MOL d           9.797  18.032  42.475  0.00  0.00     0.074 C 
ATOM      5  CY5 MOL d          10.788  18.002  41.310  0.00  0.00    -0.004 C 
ATOM      6  CY6 MOL d          11.962  18.644  41.489  0.00  0.00    -0.028 C 
ATOM      7  H45 MOL d          13.700  19.097  42.750  0.00  0.00     0.088 H 
ATOM      8  H46 MOL d          11.539  19.935  43.756  0.00  0.00     0.090 H 
ATOM      9  H48 MOL d          10.834  16.939  44.095  0.00  0.00     0.091 H 
ATOM     10  H50 MOL d           9.179  18.940  42.419  0.00  0.00     0.088 H 
ATOM     11  H51 MOL d          11.048  16.941  41.189  0.00  0.00     0.047 H 
ATOM     12  H52 MOL d          12.606  18.356  40.645  0.00  0.00     0.036 H 
ATOM     13  H53 MOL d          11.740  19.720  41.430  0.00  0.00     0.036 H 
ENDROOT
BRANCH   1  14
ATOM     14  NV4 MOL d          13.305  17.013  43.094  0.00  0.00    -0.059 N 
ATOM     15  H22 MOL d          14.232  17.100  43.480  0.00  0.00     0.278 HD
ATOM     16  H23 MOL d          12.683  16.639  43.793  0.00  0.00     0.278 HD
BRANCH  14  17
ATOM     17  CV4 MOL d          13.390  15.999  42.019  0.00  0.00     0.153 C 
ATOM     18  CV3 MOL d          11.970  15.528  41.631  0.00  0.00     0.094 C 
ATOM     19  CV2 MOL d          12.082  14.481  40.527  0.00  0.00     0.110 C 
ATOM     20  H14 MOL d          11.380  16.387  41.278  0.00  0.00     0.090 H 
ATOM     21  CV1 MOL d          12.804  15.018  39.297  0.00  0.00     0.159 C 
ATOM     22  H13 MOL d          12.663  13.636  40.927  0.00  0.00     0.094 H 
ATOM     23  OV5 MOL d          14.089  15.571  39.689  0.00  0.00    -0.351 OA
ATOM     24  H12 MOL d          12.981  14.169  38.620  0.00  0.00     0.133 H 
ATOM     25  CV5 MOL d          14.037  16.617  40.728  0.00  0.00     0.068 C 
ATOM     26  H16 MOL d          13.422  17.457  40.374  0.00  0.00     0.086 H 
ATOM     27  H15 MOL d          13.990  15.146  42.367  0.00  0.00     0.092 H 
BRANCH  18  28
ATOM     28  OV3 MOL d          11.330  14.933  42.736  0.00  0.00    -0.391 OA
ATOM     29  H21 MOL d          11.099  15.606  43.366  0.00  0.00     0.210 HD
ENDBRANCH  18  28
BRANCH  19  30
ATOM     30  OV2 MOL d          10.818  14.000  40.130  0.00  0.00    -0.388 OA
ATOM     31  H20 MOL d          10.863  13.701  39.229  0.00  0.00     0.210 HD
ENDBRANCH  19  30
BRANCH  21  32
ATOM     32  OR4 MOL d          12.088  15.975  38.587  0.00  0.00    -0.348 OA
BRANCH  32  33
ATOM     33  CR4 MOL d          11.650  15.556  37.295  0.00  0.00     0.096 C 
ATOM     34  CR3 MOL d          10.137  15.864  37.160  0.00  0.00     0.092 C 
ATOM     35  CR2 MOL d           9.669  15.422  35.768  0.00  0.00     0.110 C 
ATOM     36  H3  MOL d           9.963  16.941  37.296  0.00  0.00     0.091 H 
ATOM     37  CR1 MOL d          10.464  16.193  34.678  0.00  0.00     0.156 C 
ATOM     38  H2  MOL d           9.844  14.343  35.656  0.00  0.00     0.094 H 
ATOM     39  OR5 MOL d          11.918  15.952  34.854  0.00  0.00    -0.349 OA
ATOM     40  H1  MOL d          10.159  15.808  33.694  0.00  0.00     0.133 H 
ATOM     41  CR5 MOL d          12.439  16.365  36.163  0.00  0.00     0.089 C 
ATOM     42  H5  MOL d          12.264  17.442  36.305  0.00  0.00     0.090 H 
ATOM     43  H4  MOL d          11.828  14.478  37.175  0.00  0.00     0.091 H 
BRANCH  34  44
ATOM     44  OR3 MOL d           9.405  15.135  38.119  0.00  0.00    -0.390 OA
ATOM     45  H10 MOL d           8.478  15.309  38.008  0.00  0.00     0.210 HD
ENDBRANCH  34  44
BRANCH  35  46
ATOM     46  OR2 MOL d           8.295  15.693  35.599  0.00  0.00    -0.388 OA
ATOM     47  H9  MOL d           7.925  15.980  36.425  0.00  0.00     0.210 HD
ENDBRANCH  35  46
BRANCH  37  48
ATOM     48  OR1 MOL d          10.200  17.586  34.711  0.00  0.00    -0.369 OA
ATOM     49  H8  MOL d          10.852  18.017  35.251  0.00  0.00     0.212 HD
ENDBRANCH  37  48
BRANCH  41  50
ATOM     50  CR6 MOL d          13.852  16.117  36.213  0.00  0.00     0.043 C 
ATOM     51  H6  MOL d          14.261  16.203  35.196  0.00  0.00     0.078 H 
ATOM     52  H7  MOL d          14.016  15.097  36.590  0.00  0.00     0.078 H 
BRANCH  50  53
ATOM     53  OR6 MOL d          14.537  17.032  37.060  0.00  0.00    -0.398 OA
ATOM     54  H11 MOL d          14.634  17.863  36.612  0.00  0.00     0.209 HD
ENDBRANCH  50  53
ENDBRANCH  41  50
ENDBRANCH  32  33
ENDBRANCH  21  32
BRANCH  25  55
ATOM     55  CV6 MOL d          15.442  17.118  41.028  0.00  0.00    -0.050 C 
ATOM     56  H17 MOL d          15.808  16.651  41.955  0.00  0.00     0.031 H 
ATOM     57  H18 MOL d          15.423  18.211  41.151  0.00  0.00     0.031 H 
ATOM     58  H19 MOL d          16.111  16.855  40.196  0.00  0.00     0.031 H 
ENDBRANCH  25  55
ENDBRANCH  14  17
ENDBRANCH   1  14
BRANCH   2  59
ATOM     59  OY2 MOL d          12.437  18.810  45.185  0.00  0.00    -0.391 OA
ATOM     60  H47 MOL d          13.145  19.441  45.233  0.00  0.00     0.210 HD
ENDBRANCH   2  59
BRANCH   3  61
ATOM     61  OY3 MOL d           9.629  18.353  44.922  0.00  0.00    -0.390 OA
ATOM     62  H49 MOL d           9.990  18.113  45.767  0.00  0.00     0.210 HD
ENDBRANCH   3  61
BRANCH   5  63
ATOM     63  CY7 MOL d          10.160  18.456  39.965  0.00  0.00     0.022 C 
ATOM     64  H54 MOL d           9.933  17.571  39.353  0.00  0.00     0.074 H 
ATOM     65  H55 MOL d          10.874  19.099  39.429  0.00  0.00     0.074 H 
BRANCH  63  66
ATOM     66  OY7 MOL d           8.940  19.196  40.205  0.00  0.00    -0.400 OA
ATOM     67  H56 MOL d           8.195  18.611  40.125  0.00  0.00     0.209 HD
ENDBRANCH  63  66
ENDBRANCH   5  63
BRANCH   4  68
ATOM     68  OY4 MOL d           8.996  16.869  42.303  0.00  0.00    -0.350 OA
BRANCH  68  69
ATOM     69  CQ1 MOL d           7.605  17.079  42.380  0.00  0.00     0.159 C 
ATOM     70  CQ2 MOL d           6.916  15.809  42.929  0.00  0.00     0.110 C 
ATOM     71  CQ3 MOL d           6.853  14.662  41.874  0.00  0.00     0.092 C 
ATOM     72  H25 MOL d           5.890  16.069  43.229  0.00  0.00     0.094 H 
ATOM     73  CQ4 MOL d           6.116  15.164  40.631  0.00  0.00     0.096 C 
ATOM     74  H26 MOL d           7.871  14.352  41.593  0.00  0.00     0.091 H 
ATOM     75  CQ5 MOL d           6.999  16.361  40.073  0.00  0.00     0.089 C 
ATOM     76  H27 MOL d           5.104  15.510  40.889  0.00  0.00     0.091 H 
ATOM     77  OQ5 MOL d           7.089  17.412  41.066  0.00  0.00    -0.348 OA
ATOM     78  H28 MOL d           8.004  15.973  39.853  0.00  0.00     0.090 H 
ATOM     79  H24 MOL d           7.405  17.916  43.065  0.00  0.00     0.133 H 
BRANCH  70  80
ATOM     80  OQ2 MOL d           7.631  15.342  44.058  0.00  0.00    -0.388 OA
ATOM     81  H31 MOL d           7.609  16.003  44.741  0.00  0.00     0.210 HD
ENDBRANCH  70  80
BRANCH  71  82
ATOM     82  OQ3 MOL d           6.167  13.565  42.481  0.00  0.00    -0.390 OA
ATOM     83  H32 MOL d           6.695  12.780  42.401  0.00  0.00     0.210 HD
ENDBRANCH  71  82
BRANCH  73  84
ATOM     84  OQ4 MOL d           6.043  14.145  39.675  0.00  0.00    -0.348 OA
BRANCH  84  85
ATOM     85  CW1 MOL d           5.717  14.678  38.382  0.00  0.00     0.159 C 
ATOM     86  CW2 MOL d           4.245  14.421  37.979  0.00  0.00     0.110 C 
ATOM     87  CW3 MOL d           4.019  12.892  37.846  0.00  0.00     0.092 C 
ATOM     88  H35 MOL d           4.030  14.905  37.015  0.00  0.00     0.094 H 
ATOM     89  CW4 MOL d           4.958  12.381  36.739  0.00  0.00     0.090 C 
ATOM     90  H36 MOL d           4.237  12.387  38.798  0.00  0.00     0.091 H 
ATOM     91  CW5 MOL d           6.449  12.666  37.173  0.00  0.00     0.089 C 
ATOM     92  H37 MOL d           4.738  12.898  35.794  0.00  0.00     0.091 H 
ATOM     93  OW5 MOL d           6.608  14.099  37.362  0.00  0.00    -0.348 OA
ATOM     94  H38 MOL d           6.664  12.139  38.114  0.00  0.00     0.090 H 
ATOM     95  H34 MOL d           5.877  15.766  38.413  0.00  0.00     0.133 H 
BRANCH  86  96
ATOM     96  OW2 MOL d           3.419  14.977  38.975  0.00  0.00    -0.388 OA
ATOM     97  H41 MOL d           2.509  14.808  38.762  0.00  0.00     0.210 HD
ENDBRANCH  86  96
BRANCH  87  98
ATOM     98  OW3 MOL d           2.682  12.657  37.469  0.00  0.00    -0.390 OA
ATOM     99  H42 MOL d           2.171  13.446  37.610  0.00  0.00     0.210 HD
ENDBRANCH  87  98
BRANCH  89 100
ATOM    100  OW4 MOL d           4.778  10.984  36.576  0.00  0.00    -0.390 OA
ATOM    101  H43 MOL d           3.963  10.824  36.115  0.00  0.00     0.210 HD
ENDBRANCH  89 100
BRANCH  91 102
ATOM    102  CW6 MOL d           7.435  12.192  36.086  0.00  0.00     0.043 C 
ATOM    103  H39 MOL d           8.422  12.634  36.285  0.00  0.00     0.078 H 
ATOM    104  H40 MOL d           7.072  12.531  35.104  0.00  0.00     0.078 H 
BRANCH 102 105
ATOM    105  OW6 MOL d           7.558  10.796  36.067  0.00  0.00    -0.398 OA
ATOM    106  H44 MOL d           7.516  10.464  36.956  0.00  0.00     0.209 HD
ENDBRANCH 102 105
ENDBRANCH  91 102
ENDBRANCH  84  85
ENDBRANCH  73  84
BRANCH  75 107
ATOM    107  CQ6 MOL d           6.431  16.999  38.810  0.00  0.00     0.043 C 
ATOM    108  H29 MOL d           5.705  17.776  39.093  0.00  0.00     0.078 H 
ATOM    109  H30 MOL d           5.925  16.227  38.211  0.00  0.00     0.078 H 
BRANCH 107 110
ATOM    110  OQ6 MOL d           7.456  17.583  38.039  0.00  0.00    -0.398 OA
ATOM    111  H33 MOL d           8.151  16.949  37.906  0.00  0.00     0.209 HD
ENDBRANCH 107 110
ENDBRANCH  75 107
ENDBRANCH  68  69
ENDBRANCH   4  68
TORSDOF 29
ENDMDL
