MODEL 1
REMARK VINA RESULT:      -5.8      0.000      0.000
REMARK  6 active torsions:
REMARK  status: ('A' for Active; 'I' for Inactive)
REMARK    1  A    between atoms: C1_1  and  O1_7 
REMARK    2  A    between atoms: C2_2  and  O2_8 
REMARK    3  A    between atoms: C3_3  and  O3_9 
REMARK    4  A    between atoms: C4_4  and  O4_10 
REMARK    5  A    between atoms: C5_5  and  C6_6 
REMARK    6  A    between atoms: O1_7  and  CM_12 
ROOT
ATOM      1  C1  MFU d          12.409   4.864  -3.681  0.00  0.00     0.158 C 
ATOM      2  C2  MFU d          11.079   4.718  -2.913  0.00  0.00     0.110 C 
ATOM      3  C3  MFU d          10.278   3.546  -3.471  0.00  0.00     0.092 C 
ATOM      4  C4  MFU d          11.138   2.285  -3.551  0.00  0.00     0.087 C 
ATOM      5  C5  MFU d          12.485   2.522  -4.247  0.00  0.00     0.065 C 
ATOM      6  O5  MFU d          13.160   3.630  -3.632  0.00  0.00    -0.351 OA
ATOM      7  H1  MFU d          13.007   5.665  -3.220  0.00  0.00     0.133 H 
ATOM      8  H2  MFU d          11.332   4.495  -1.866  0.00  0.00     0.094 H 
ATOM      9  H3  MFU d           9.901   3.806  -4.473  0.00  0.00     0.091 H 
ATOM     10  H4  MFU d          10.585   1.518  -4.114  0.00  0.00     0.091 H 
ATOM     11  H5  MFU d          12.283   2.784  -5.296  0.00  0.00     0.086 H 
ENDROOT
BRANCH   1  12
ATOM     12  O1  MFU d          12.124   5.210  -5.049  0.00  0.00    -0.363 OA
BRANCH  12  13
ATOM     13  CM  MFU d          12.981   6.216  -5.612  0.00  0.00     0.007 C 
ATOM     14  H12 MFU d          12.650   7.209  -5.275  0.00  0.00     0.066 H 
ATOM     15  H13 MFU d          12.933   6.166  -6.710  0.00  0.00     0.066 H 
ATOM     16  H14 MFU d          14.016   6.043  -5.281  0.00  0.00     0.066 H 
ENDBRANCH  12  13
ENDBRANCH   1  12
BRANCH   2  17
ATOM     17  O2  MFU d          10.240   5.906  -2.911  0.00  0.00    -0.388 OA
ATOM     18  H9  MFU d           9.344   5.660  -3.106  0.00  0.00     0.210 HD
ENDBRANCH   2  17
BRANCH   3  19
ATOM     19  O3  MFU d           9.182   3.253  -2.594  0.00  0.00    -0.390 OA
ATOM     20  H10 MFU d           9.337   3.658  -1.749  0.00  0.00     0.210 HD
ENDBRANCH   3  19
BRANCH   5  21
ATOM     21  C6  MFU d          13.365   1.269  -4.240  0.00  0.00    -0.050 C 
ATOM     22  H6  MFU d          14.296   1.478  -3.694  0.00  0.00     0.031 H 
ATOM     23  H7  MFU d          13.604   0.983  -5.276  0.00  0.00     0.031 H 
ATOM     24  H8  MFU d          12.827   0.446  -3.747  0.00  0.00     0.031 H 
ENDBRANCH   5  21
BRANCH   4  25
ATOM     25  O4  MFU d          11.374   1.817  -2.210  0.00  0.00    -0.390 OA
ATOM     26  H11 MFU d          11.932   2.435  -1.754  0.00  0.00     0.210 HD
ENDBRANCH   4  25
TORSDOF 6
ENDMDL
MODEL 2
REMARK VINA RESULT:      -4.9      1.130      3.389
REMARK  6 active torsions:
REMARK  status: ('A' for Active; 'I' for Inactive)
REMARK    1  A    between atoms: C1_1  and  O1_7 
REMARK    2  A    between atoms: C2_2  and  O2_8 
REMARK    3  A    between atoms: C3_3  and  O3_9 
REMARK    4  A    between atoms: C4_4  and  O4_10 
REMARK    5  A    between atoms: C5_5  and  C6_6 
REMARK    6  A    between atoms: O1_7  and  CM_12 
ROOT
ATOM      1  C1  MFU d          12.117   2.553  -4.858  0.00  0.00     0.158 C 
ATOM      2  C2  MFU d          10.704   2.414  -4.253  0.00  0.00     0.110 C 
ATOM      3  C3  MFU d          10.602   3.230  -2.968  0.00  0.00     0.092 C 
ATOM      4  C4  MFU d          11.088   4.662  -3.190  0.00  0.00     0.087 C 
ATOM      5  C5  MFU d          12.458   4.729  -3.877  0.00  0.00     0.065 C 
ATOM      6  O5  MFU d          12.437   3.946  -5.079  0.00  0.00    -0.351 OA
ATOM      7  H1  MFU d          12.153   2.020  -5.819  0.00  0.00     0.133 H 
ATOM      8  H2  MFU d           9.996   2.831  -4.984  0.00  0.00     0.094 H 
ATOM      9  H3  MFU d          11.203   2.749  -2.181  0.00  0.00     0.091 H 
ATOM     10  H4  MFU d          11.163   5.163  -2.213  0.00  0.00     0.091 H 
ATOM     11  H5  MFU d          13.201   4.290  -3.195  0.00  0.00     0.086 H 
ENDROOT
BRANCH   1  12
ATOM     12  O1  MFU d          13.073   1.970  -3.953  0.00  0.00    -0.363 OA
BRANCH  12  13
ATOM     13  CM  MFU d          13.778   0.830  -4.468  0.00  0.00     0.007 C 
ATOM     14  H12 MFU d          13.637  -0.025  -3.791  0.00  0.00     0.066 H 
ATOM     15  H13 MFU d          14.850   1.065  -4.544  0.00  0.00     0.066 H 
ATOM     16  H14 MFU d          13.386   0.575  -5.465  0.00  0.00     0.066 H 
ENDBRANCH  12  13
ENDBRANCH   1  12
BRANCH   2  17
ATOM     17  O2  MFU d          10.289   1.047  -3.979  0.00  0.00    -0.388 OA
ATOM     18  H9  MFU d           9.342   0.987  -4.040  0.00  0.00     0.210 HD
ENDBRANCH   2  17
BRANCH   3  19
ATOM     19  O3  MFU d           9.229   3.311  -2.559  0.00  0.00    -0.390 OA
ATOM     20  H10 MFU d           8.675   2.953  -3.243  0.00  0.00     0.210 HD
ENDBRANCH   3  19
BRANCH   5  21
ATOM     21  C6  MFU d          12.887   6.170  -4.166  0.00  0.00    -0.050 C 
ATOM     22  H6  MFU d          11.997   6.812  -4.232  0.00  0.00     0.031 H 
ATOM     23  H7  MFU d          13.435   6.205  -5.121  0.00  0.00     0.031 H 
ATOM     24  H8  MFU d          13.539   6.529  -3.356  0.00  0.00     0.031 H 
ENDBRANCH   5  21
BRANCH   4  25
ATOM     25  O4  MFU d          10.117   5.345  -4.004  0.00  0.00    -0.390 OA
ATOM     26  H11 MFU d          10.550   5.722  -4.761  0.00  0.00     0.210 HD
ENDBRANCH   4  25
TORSDOF 6
ENDMDL
MODEL 3
REMARK VINA RESULT:      -4.8      1.622      2.011
REMARK  6 active torsions:
REMARK  status: ('A' for Active; 'I' for Inactive)
REMARK    1  A    between atoms: C1_1  and  O1_7 
REMARK    2  A    between atoms: C2_2  and  O2_8 
REMARK    3  A    between atoms: C3_3  and  O3_9 
REMARK    4  A    between atoms: C4_4  and  O4_10 
REMARK    5  A    between atoms: C5_5  and  C6_6 
REMARK    6  A    between atoms: O1_7  and  CM_12 
ROOT
ATOM      1  C1  MFU d          11.329   4.304  -3.689  0.00  0.00     0.158 C 
ATOM      2  C2  MFU d          10.524   3.113  -3.129  0.00  0.00     0.110 C 
ATOM      3  C3  MFU d          10.285   2.080  -4.227  0.00  0.00     0.092 C 
ATOM      4  C4  MFU d          11.593   1.723  -4.934  0.00  0.00     0.087 C 
ATOM      5  C5  MFU d          12.387   2.956  -5.384  0.00  0.00     0.065 C 
ATOM      6  O5  MFU d          12.569   3.847  -4.274  0.00  0.00    -0.351 OA
ATOM      7  H1  MFU d          11.556   5.004  -2.870  0.00  0.00     0.133 H 
ATOM      8  H2  MFU d          11.139   2.646  -2.345  0.00  0.00     0.094 H 
ATOM      9  H3  MFU d           9.565   2.482  -4.955  0.00  0.00     0.091 H 
ATOM     10  H4  MFU d          11.357   1.117  -5.822  0.00  0.00     0.091 H 
ATOM     11  H5  MFU d          11.795   3.479  -6.149  0.00  0.00     0.086 H 
ENDROOT
BRANCH   1  12
ATOM     12  O1  MFU d          10.537   4.978  -4.684  0.00  0.00    -0.363 OA
BRANCH  12  13
ATOM     13  CM  MFU d          10.146   6.317  -4.345  0.00  0.00     0.007 C 
ATOM     14  H12 MFU d          10.639   7.026  -5.026  0.00  0.00     0.066 H 
ATOM     15  H13 MFU d          10.445   6.536  -3.309  0.00  0.00     0.066 H 
ATOM     16  H14 MFU d           9.054   6.416  -4.441  0.00  0.00     0.066 H 
ENDBRANCH  12  13
ENDBRANCH   1  12
BRANCH   2  17
ATOM     17  O2  MFU d           9.248   3.465  -2.527  0.00  0.00    -0.388 OA
ATOM     18  H9  MFU d           8.727   3.953  -3.154  0.00  0.00     0.210 HD
ENDBRANCH   2  17
BRANCH   3  19
ATOM     19  O3  MFU d           9.777   0.872  -3.646  0.00  0.00    -0.390 OA
ATOM     20  H10 MFU d           9.338   1.075  -2.829  0.00  0.00     0.210 HD
ENDBRANCH   3  19
BRANCH   5  21
ATOM     21  C6  MFU d          13.731   2.578  -6.013  0.00  0.00    -0.050 C 
ATOM     22  H6  MFU d          14.125   3.434  -6.579  0.00  0.00     0.031 H 
ATOM     23  H7  MFU d          13.591   1.723  -6.692  0.00  0.00     0.031 H 
ATOM     24  H8  MFU d          14.442   2.304  -5.220  0.00  0.00     0.031 H 
ENDBRANCH   5  21
BRANCH   4  25
ATOM     25  O4  MFU d          12.398   0.948  -4.026  0.00  0.00    -0.390 OA
ATOM     26  H11 MFU d          11.899   0.769  -3.238  0.00  0.00     0.210 HD
ENDBRANCH   4  25
TORSDOF 6
ENDMDL
MODEL 4
REMARK VINA RESULT:      -4.8      1.529      2.246
REMARK  6 active torsions:
REMARK  status: ('A' for Active; 'I' for Inactive)
REMARK    1  A    between atoms: C1_1  and  O1_7 
REMARK    2  A    between atoms: C2_2  and  O2_8 
REMARK    3  A    between atoms: C3_3  and  O3_9 
REMARK    4  A    between atoms: C4_4  and  O4_10 
REMARK    5  A    between atoms: C5_5  and  C6_6 
REMARK    6  A    between atoms: O1_7  and  CM_12 
ROOT
ATOM      1  C1  MFU d          12.884   3.365  -3.643  0.00  0.00     0.158 C 
ATOM      2  C2  MFU d          12.194   4.455  -2.798  0.00  0.00     0.110 C 
ATOM      3  C3  MFU d          10.867   4.853  -3.438  0.00  0.00     0.092 C 
ATOM      4  C4  MFU d          10.019   3.619  -3.747  0.00  0.00     0.087 C 
ATOM      5  C5  MFU d          10.794   2.536  -4.511  0.00  0.00     0.065 C 
ATOM      6  O5  MFU d          12.009   2.227  -3.814  0.00  0.00    -0.351 OA
ATOM      7  H1  MFU d          13.802   3.038  -3.131  0.00  0.00     0.133 H 
ATOM      8  H2  MFU d          11.983   4.016  -1.811  0.00  0.00     0.094 H 
ATOM      9  H3  MFU d          11.062   5.414  -4.364  0.00  0.00     0.091 H 
ATOM     10  H4  MFU d           9.159   3.929  -4.359  0.00  0.00     0.091 H 
ATOM     11  H5  MFU d          11.059   2.942  -5.498  0.00  0.00     0.086 H 
ENDROOT
BRANCH   1  12
ATOM     12  O1  MFU d          13.227   3.916  -4.928  0.00  0.00    -0.363 OA
BRANCH  12  13
ATOM     13  CM  MFU d          13.772   2.976  -5.866  0.00  0.00     0.007 C 
ATOM     14  H12 MFU d          14.856   3.140  -5.962  0.00  0.00     0.066 H 
ATOM     15  H13 MFU d          13.292   3.115  -6.846  0.00  0.00     0.066 H 
ATOM     16  H14 MFU d          13.587   1.952  -5.509  0.00  0.00     0.066 H 
ENDBRANCH  12  13
ENDBRANCH   1  12
BRANCH   2  17
ATOM     17  O2  MFU d          12.989   5.653  -2.576  0.00  0.00    -0.388 OA
ATOM     18  H9  MFU d          13.029   5.838  -1.645  0.00  0.00     0.210 HD
ENDBRANCH   2  17
BRANCH   3  19
ATOM     19  O3  MFU d          10.115   5.660  -2.521  0.00  0.00    -0.390 OA
ATOM     20  H10 MFU d          10.582   5.719  -1.696  0.00  0.00     0.210 HD
ENDBRANCH   3  19
BRANCH   5  21
ATOM     21  C6  MFU d           9.952   1.277  -4.735  0.00  0.00    -0.050 C 
ATOM     22  H6  MFU d           9.790   0.768  -3.774  0.00  0.00     0.031 H 
ATOM     23  H7  MFU d          10.482   0.599  -5.423  0.00  0.00     0.031 H 
ATOM     24  H8  MFU d           8.982   1.557  -5.171  0.00  0.00     0.031 H 
ENDBRANCH   5  21
BRANCH   4  25
ATOM     25  O4  MFU d           9.548   3.073  -2.501  0.00  0.00    -0.390 OA
ATOM     26  H11 MFU d           9.519   2.125  -2.563  0.00  0.00     0.210 HD
ENDBRANCH   4  25
TORSDOF 6
ENDMDL
MODEL 5
REMARK VINA RESULT:      -4.5      1.708      3.356
REMARK  6 active torsions:
REMARK  status: ('A' for Active; 'I' for Inactive)
REMARK    1  A    between atoms: C1_1  and  O1_7 
REMARK    2  A    between atoms: C2_2  and  O2_8 
REMARK    3  A    between atoms: C3_3  and  O3_9 
REMARK    4  A    between atoms: C4_4  and  O4_10 
REMARK    5  A    between atoms: C5_5  and  C6_6 
REMARK    6  A    between atoms: O1_7  and  CM_12 
ROOT
ATOM      1  C1  MFU d          10.381   3.033  -4.844  0.00  0.00     0.158 C 
ATOM      2  C2  MFU d          10.320   3.870  -3.550  0.00  0.00     0.110 C 
ATOM      3  C3  MFU d          11.700   3.940  -2.904  0.00  0.00     0.092 C 
ATOM      4  C4  MFU d          12.757   4.370  -3.921  0.00  0.00     0.087 C 
ATOM      5  C5  MFU d          12.704   3.556  -5.221  0.00  0.00     0.065 C 
ATOM      6  O5  MFU d          11.370   3.573  -5.750  0.00  0.00    -0.351 OA
ATOM      7  H1  MFU d           9.397   3.053  -5.335  0.00  0.00     0.133 H 
ATOM      8  H2  MFU d          10.022   4.889  -3.837  0.00  0.00     0.094 H 
ATOM      9  H3  MFU d          11.960   2.954  -2.490  0.00  0.00     0.091 H 
ATOM     10  H4  MFU d          13.752   4.241  -3.470  0.00  0.00     0.091 H 
ATOM     11  H5  MFU d          12.964   2.515  -4.979  0.00  0.00     0.086 H 
ENDROOT
BRANCH   1  12
ATOM     12  O1  MFU d          10.718   1.674  -4.506  0.00  0.00    -0.363 OA
BRANCH  12  13
ATOM     13  CM  MFU d           9.859   0.676  -5.080  0.00  0.00     0.007 C 
ATOM     14  H12 MFU d           9.216   0.251  -4.295  0.00  0.00     0.066 H 
ATOM     15  H13 MFU d          10.472  -0.123  -5.524  0.00  0.00     0.066 H 
ATOM     16  H14 MFU d           9.232   1.135  -5.859  0.00  0.00     0.066 H 
ENDBRANCH  12  13
ENDBRANCH   1  12
BRANCH   2  17
ATOM     17  O2  MFU d           9.360   3.401  -2.563  0.00  0.00    -0.388 OA
ATOM     18  H9  MFU d           8.478   3.548  -2.885  0.00  0.00     0.210 HD
ENDBRANCH   2  17
BRANCH   3  19
ATOM     19  O3  MFU d          11.693   4.926  -1.863  0.00  0.00    -0.390 OA
ATOM     20  H10 MFU d          11.736   5.793  -2.248  0.00  0.00     0.210 HD
ENDBRANCH   3  19
BRANCH   5  21
ATOM     21  C6  MFU d          13.713   4.059  -6.257  0.00  0.00    -0.050 C 
ATOM     22  H6  MFU d          13.447   5.081  -6.563  0.00  0.00     0.031 H 
ATOM     23  H7  MFU d          13.697   3.398  -7.137  0.00  0.00     0.031 H 
ATOM     24  H8  MFU d          14.722   4.060  -5.817  0.00  0.00     0.031 H 
ENDBRANCH   5  21
BRANCH   4  25
ATOM     25  O4  MFU d          12.548   5.762  -4.227  0.00  0.00    -0.390 OA
ATOM     26  H11 MFU d          12.285   6.221  -3.438  0.00  0.00     0.210 HD
ENDBRANCH   4  25
TORSDOF 6
ENDMDL
MODEL 6
REMARK VINA RESULT:      -4.4      1.803      3.736
REMARK  6 active torsions:
REMARK  status: ('A' for Active; 'I' for Inactive)
REMARK    1  A    between atoms: C1_1  and  O1_7 
REMARK    2  A    between atoms: C2_2  and  O2_8 
REMARK    3  A    between atoms: C3_3  and  O3_9 
REMARK    4  A    between atoms: C4_4  and  O4_10 
REMARK    5  A    between atoms: C5_5  and  C6_6 
REMARK    6  A    between atoms: O1_7  and  CM_12 
ROOT
ATOM      1  C1  MFU d          10.571   2.882  -4.794  0.00  0.00     0.158 C 
ATOM      2  C2  MFU d          10.683   3.192  -3.286  0.00  0.00     0.110 C 
ATOM      3  C3  MFU d          11.509   4.457  -3.072  0.00  0.00     0.092 C 
ATOM      4  C4  MFU d          10.994   5.600  -3.947  0.00  0.00     0.087 C 
ATOM      5  C5  MFU d          10.820   5.197  -5.417  0.00  0.00     0.065 C 
ATOM      6  O5  MFU d          10.015   4.012  -5.503  0.00  0.00    -0.351 OA
ATOM      7  H1  MFU d           9.914   2.011  -4.935  0.00  0.00     0.133 H 
ATOM      8  H2  MFU d           9.664   3.380  -2.917  0.00  0.00     0.094 H 
ATOM      9  H3  MFU d          12.563   4.250  -3.311  0.00  0.00     0.091 H 
ATOM     10  H4  MFU d          11.713   6.432  -3.897  0.00  0.00     0.091 H 
ATOM     11  H5  MFU d          11.814   4.966  -5.825  0.00  0.00     0.086 H 
ENDROOT
BRANCH   1  12
ATOM     12  O1  MFU d          11.881   2.578  -5.307  0.00  0.00    -0.363 OA
BRANCH  12  13
ATOM     13  CM  MFU d          12.017   1.272  -5.889  0.00  0.00     0.007 C 
ATOM     14  H12 MFU d          12.434   0.580  -5.142  0.00  0.00     0.066 H 
ATOM     15  H13 MFU d          12.692   1.325  -6.757  0.00  0.00     0.066 H 
ATOM     16  H14 MFU d          11.030   0.910  -6.213  0.00  0.00     0.066 H 
ENDBRANCH  12  13
ENDBRANCH   1  12
BRANCH   2  17
ATOM     17  O2  MFU d          11.245   2.120  -2.481  0.00  0.00    -0.388 OA
ATOM     18  H9  MFU d          11.154   2.335  -1.560  0.00  0.00     0.210 HD
ENDBRANCH   2  17
BRANCH   3  19
ATOM     19  O3  MFU d          11.387   4.884  -1.708  0.00  0.00    -0.390 OA
ATOM     20  H10 MFU d          12.221   5.227  -1.409  0.00  0.00     0.210 HD
ENDBRANCH   3  19
BRANCH   5  21
ATOM     21  C6  MFU d          10.223   6.329  -6.258  0.00  0.00    -0.050 C 
ATOM     22  H6  MFU d          10.685   7.284  -5.968  0.00  0.00     0.031 H 
ATOM     23  H7  MFU d           9.137   6.381  -6.087  0.00  0.00     0.031 H 
ATOM     24  H8  MFU d          10.418   6.136  -7.324  0.00  0.00     0.031 H 
ENDBRANCH   5  21
BRANCH   4  25
ATOM     25  O4  MFU d           9.725   6.032  -3.422  0.00  0.00    -0.390 OA
ATOM     26  H11 MFU d           9.760   6.032  -2.473  0.00  0.00     0.210 HD
ENDBRANCH   4  25
TORSDOF 6
ENDMDL
MODEL 7
REMARK VINA RESULT:      -4.2      1.651      3.337
REMARK  6 active torsions:
REMARK  status: ('A' for Active; 'I' for Inactive)
REMARK    1  A    between atoms: C1_1  and  O1_7 
REMARK    2  A    between atoms: C2_2  and  O2_8 
REMARK    3  A    between atoms: C3_3  and  O3_9 
REMARK    4  A    between atoms: C4_4  and  O4_10 
REMARK    5  A    between atoms: C5_5  and  C6_6 
REMARK    6  A    between atoms: O1_7  and  CM_12 
ROOT
ATOM      1  C1  MFU d          10.955   3.023  -5.623  0.00  0.00     0.158 C 
ATOM      2  C2  MFU d          10.877   2.004  -4.467  0.00  0.00     0.110 C 
ATOM      3  C3  MFU d          11.393   2.634  -3.177  0.00  0.00     0.092 C 
ATOM      4  C4  MFU d          10.717   3.981  -2.919  0.00  0.00     0.087 C 
ATOM      5  C5  MFU d          10.752   4.911  -4.139  0.00  0.00     0.065 C 
ATOM      6  O5  MFU d          10.229   4.227  -5.286  0.00  0.00    -0.351 OA
ATOM      7  H1  MFU d          10.512   2.579  -6.527  0.00  0.00     0.133 H 
ATOM      8  H2  MFU d           9.815   1.753  -4.327  0.00  0.00     0.094 H 
ATOM      9  H3  MFU d          12.483   2.771  -3.248  0.00  0.00     0.091 H 
ATOM     10  H4  MFU d          11.235   4.480  -2.086  0.00  0.00     0.091 H 
ATOM     11  H5  MFU d          11.802   5.166  -4.341  0.00  0.00     0.086 H 
ENDROOT
BRANCH   1  12
ATOM     12  O1  MFU d          12.336   3.339  -5.875  0.00  0.00    -0.363 OA
BRANCH  12  13
ATOM     13  CM  MFU d          12.587   4.700  -6.258  0.00  0.00     0.007 C 
ATOM     14  H12 MFU d          11.828   5.022  -6.987  0.00  0.00     0.066 H 
ATOM     15  H13 MFU d          13.587   4.775  -6.713  0.00  0.00     0.066 H 
ATOM     16  H14 MFU d          12.538   5.347  -5.369  0.00  0.00     0.066 H 
ENDBRANCH  12  13
ENDBRANCH   1  12
BRANCH   2  17
ATOM     17  O2  MFU d          11.589   0.758  -4.701  0.00  0.00    -0.388 OA
ATOM     18  H9  MFU d          12.403   0.939  -5.156  0.00  0.00     0.210 HD
ENDBRANCH   2  17
BRANCH   3  19
ATOM     19  O3  MFU d          11.074   1.784  -2.067  0.00  0.00    -0.390 OA
ATOM     20  H10 MFU d          11.349   2.203  -1.259  0.00  0.00     0.210 HD
ENDBRANCH   3  19
BRANCH   5  21
ATOM     21  C6  MFU d           9.996   6.219  -3.887  0.00  0.00    -0.050 C 
ATOM     22  H6  MFU d          10.686   6.968  -3.470  0.00  0.00     0.031 H 
ATOM     23  H7  MFU d           9.178   6.039  -3.173  0.00  0.00     0.031 H 
ATOM     24  H8  MFU d           9.580   6.591  -4.835  0.00  0.00     0.031 H 
ENDBRANCH   5  21
BRANCH   4  25
ATOM     25  O4  MFU d           9.347   3.734  -2.552  0.00  0.00    -0.390 OA
ATOM     26  H11 MFU d           8.850   4.540  -2.628  0.00  0.00     0.210 HD
ENDBRANCH   4  25
TORSDOF 6
ENDMDL
MODEL 8
REMARK VINA RESULT:      -3.7      1.812      2.058
REMARK  6 active torsions:
REMARK  status: ('A' for Active; 'I' for Inactive)
REMARK    1  A    between atoms: C1_1  and  O1_7 
REMARK    2  A    between atoms: C2_2  and  O2_8 
REMARK    3  A    between atoms: C3_3  and  O3_9 
REMARK    4  A    between atoms: C4_4  and  O4_10 
REMARK    5  A    between atoms: C5_5  and  C6_6 
REMARK    6  A    between atoms: O1_7  and  CM_12 
ROOT
ATOM      1  C1  MFU d          12.063   4.522  -2.896  0.00  0.00     0.158 C 
ATOM      2  C2  MFU d          10.665   4.709  -3.522  0.00  0.00     0.110 C 
ATOM      3  C3  MFU d          10.767   4.696  -5.044  0.00  0.00     0.092 C 
ATOM      4  C4  MFU d          11.552   3.477  -5.529  0.00  0.00     0.087 C 
ATOM      5  C5  MFU d          12.891   3.300  -4.801  0.00  0.00     0.065 C 
ATOM      6  O5  MFU d          12.678   3.307  -3.382  0.00  0.00    -0.351 OA
ATOM      7  H1  MFU d          11.964   4.460  -1.802  0.00  0.00     0.133 H 
ATOM      8  H2  MFU d          10.053   3.849  -3.210  0.00  0.00     0.094 H 
ATOM      9  H3  MFU d          11.261   5.618  -5.385  0.00  0.00     0.091 H 
ATOM     10  H4  MFU d          11.753   3.593  -6.604  0.00  0.00     0.091 H 
ATOM     11  H5  MFU d          13.531   4.157  -5.055  0.00  0.00     0.086 H 
ENDROOT
BRANCH   1  12
ATOM     12  O1  MFU d          12.883   5.655  -3.236  0.00  0.00    -0.363 OA
BRANCH  12  13
ATOM     13  CM  MFU d          14.088   5.786  -2.466  0.00  0.00     0.007 C 
ATOM     14  H12 MFU d          14.166   4.945  -1.762  0.00  0.00     0.066 H 
ATOM     15  H13 MFU d          14.064   6.733  -1.906  0.00  0.00     0.066 H 
ATOM     16  H14 MFU d          14.957   5.781  -3.141  0.00  0.00     0.066 H 
ENDBRANCH  12  13
ENDBRANCH   1  12
BRANCH   2  17
ATOM     17  O2  MFU d           9.964   5.913  -3.105  0.00  0.00    -0.388 OA
ATOM     18  H9  MFU d           9.132   5.674  -2.713  0.00  0.00     0.210 HD
ENDBRANCH   2  17
BRANCH   3  19
ATOM     19  O3  MFU d           9.453   4.602  -5.612  0.00  0.00    -0.390 OA
ATOM     20  H10 MFU d           9.521   4.362  -6.528  0.00  0.00     0.210 HD
ENDBRANCH   3  19
BRANCH   5  21
ATOM     21  C6  MFU d          13.621   2.027  -5.240  0.00  0.00    -0.050 C 
ATOM     22  H6  MFU d          12.999   1.150  -5.012  0.00  0.00     0.031 H 
ATOM     23  H7  MFU d          14.578   1.948  -4.701  0.00  0.00     0.031 H 
ATOM     24  H8  MFU d          13.812   2.069  -6.323  0.00  0.00     0.031 H 
ENDBRANCH   5  21
BRANCH   4  25
ATOM     25  O4  MFU d          10.741   2.306  -5.317  0.00  0.00    -0.390 OA
ATOM     26  H11 MFU d          10.396   2.008  -6.150  0.00  0.00     0.210 HD
ENDBRANCH   4  25
TORSDOF 6
ENDMDL
MODEL 9
REMARK VINA RESULT:      -3.4      1.661      4.235
REMARK  6 active torsions:
REMARK  status: ('A' for Active; 'I' for Inactive)
REMARK    1  A    between atoms: C1_1  and  O1_7 
REMARK    2  A    between atoms: C2_2  and  O2_8 
REMARK    3  A    between atoms: C3_3  and  O3_9 
REMARK    4  A    between atoms: C4_4  and  O4_10 
REMARK    5  A    between atoms: C5_5  and  C6_6 
REMARK    6  A    between atoms: O1_7  and  CM_12 
ROOT
ATOM      1  C1  MFU d          10.493   2.735  -3.323  0.00  0.00     0.158 C 
ATOM      2  C2  MFU d          12.035   2.709  -3.382  0.00  0.00     0.110 C 
ATOM      3  C3  MFU d          12.530   3.587  -4.527  0.00  0.00     0.092 C 
ATOM      4  C4  MFU d          11.893   4.975  -4.466  0.00  0.00     0.087 C 
ATOM      5  C5  MFU d          10.367   4.927  -4.317  0.00  0.00     0.065 C 
ATOM      6  O5  MFU d          10.014   4.093  -3.203  0.00  0.00    -0.351 OA
ATOM      7  H1  MFU d          10.155   2.157  -2.450  0.00  0.00     0.133 H 
ATOM      8  H2  MFU d          12.402   3.135  -2.437  0.00  0.00     0.094 H 
ATOM      9  H3  MFU d          12.287   3.106  -5.487  0.00  0.00     0.091 H 
ATOM     10  H4  MFU d          12.136   5.514  -5.394  0.00  0.00     0.091 H 
ATOM     11  H5  MFU d           9.951   4.475  -5.229  0.00  0.00     0.086 H 
ENDROOT
BRANCH   1  12
ATOM     12  O1  MFU d           9.969   2.135  -4.522  0.00  0.00    -0.363 OA
BRANCH  12  13
ATOM     13  CM  MFU d           9.481   0.794  -4.367  0.00  0.00     0.007 C 
ATOM     14  H12 MFU d           9.081   0.665  -3.351  0.00  0.00     0.066 H 
ATOM     15  H13 MFU d          10.304   0.082  -4.530  0.00  0.00     0.066 H 
ATOM     16  H14 MFU d           8.683   0.607  -5.101  0.00  0.00     0.066 H 
ENDBRANCH  12  13
ENDBRANCH   1  12
BRANCH   2  17
ATOM     17  O2  MFU d          12.620   1.384  -3.515  0.00  0.00    -0.388 OA
ATOM     18  H9  MFU d          11.935   0.728  -3.448  0.00  0.00     0.210 HD
ENDBRANCH   2  17
BRANCH   3  19
ATOM     19  O3  MFU d          13.948   3.770  -4.412  0.00  0.00    -0.390 OA
ATOM     20  H10 MFU d          14.389   2.952  -4.611  0.00  0.00     0.210 HD
ENDBRANCH   3  19
BRANCH   5  21
ATOM     21  C6  MFU d           9.758   6.325  -4.172  0.00  0.00    -0.050 C 
ATOM     22  H6  MFU d           9.244   6.600  -5.104  0.00  0.00     0.031 H 
ATOM     23  H7  MFU d          10.557   7.054  -3.965  0.00  0.00     0.031 H 
ATOM     24  H8  MFU d           9.037   6.327  -3.341  0.00  0.00     0.031 H 
ENDBRANCH   5  21
BRANCH   4  25
ATOM     25  O4  MFU d          12.456   5.679  -3.343  0.00  0.00    -0.390 OA
ATOM     26  H11 MFU d          12.879   6.473  -3.648  0.00  0.00     0.210 HD
ENDBRANCH   4  25
TORSDOF 6
ENDMDL
MODEL 10
REMARK VINA RESULT:      -3.3      1.904      2.013
REMARK  6 active torsions:
REMARK  status: ('A' for Active; 'I' for Inactive)
REMARK    1  A    between atoms: C1_1  and  O1_7 
REMARK    2  A    between atoms: C2_2  and  O2_8 
REMARK    3  A    between atoms: C3_3  and  O3_9 
REMARK    4  A    between atoms: C4_4  and  O4_10 
REMARK    5  A    between atoms: C5_5  and  C6_6 
REMARK    6  A    between atoms: O1_7  and  CM_12 
ROOT
ATOM      1  C1  MFU d          11.856   3.925  -3.836  0.00  0.00     0.158 C 
ATOM      2  C2  MFU d          10.499   3.645  -4.516  0.00  0.00     0.110 C 
ATOM      3  C3  MFU d          10.709   2.820  -5.782  0.00  0.00     0.092 C 
ATOM      4  C4  MFU d          11.573   1.591  -5.498  0.00  0.00     0.087 C 
ATOM      5  C5  MFU d          12.863   1.930  -4.739  0.00  0.00     0.065 C 
ATOM      6  O5  MFU d          12.550   2.686  -3.561  0.00  0.00    -0.351 OA
ATOM      7  H1  MFU d          11.682   4.456  -2.888  0.00  0.00     0.133 H 
ATOM      8  H2  MFU d           9.901   3.048  -3.812  0.00  0.00     0.094 H 
ATOM      9  H3  MFU d          11.190   3.445  -6.550  0.00  0.00     0.091 H 
ATOM     10  H4  MFU d          11.844   1.123  -6.456  0.00  0.00     0.091 H 
ATOM     11  H5  MFU d          13.486   2.557  -5.394  0.00  0.00     0.086 H 
ENDROOT
BRANCH   1  12
ATOM     12  O1  MFU d          12.653   4.750  -4.705  0.00  0.00    -0.363 OA
BRANCH  12  13
ATOM     13  CM  MFU d          13.127   5.971  -4.117  0.00  0.00     0.007 C 
ATOM     14  H12 MFU d          12.297   6.689  -4.044  0.00  0.00     0.066 H 
ATOM     15  H13 MFU d          13.925   6.395  -4.744  0.00  0.00     0.066 H 
ATOM     16  H14 MFU d          13.521   5.764  -3.110  0.00  0.00     0.066 H 
ENDBRANCH  12  13
ENDBRANCH   1  12
BRANCH   2  17
ATOM     17  O2  MFU d           9.725   4.830  -4.847  0.00  0.00    -0.388 OA
ATOM     18  H9  MFU d           8.821   4.583  -5.002  0.00  0.00     0.210 HD
ENDBRANCH   2  17
BRANCH   3  19
ATOM     19  O3  MFU d           9.443   2.342  -6.258  0.00  0.00    -0.390 OA
ATOM     20  H10 MFU d           8.771   2.988  -6.072  0.00  0.00     0.210 HD
ENDBRANCH   3  19
BRANCH   5  21
ATOM     21  C6  MFU d          13.671   0.676  -4.390  0.00  0.00    -0.050 C 
ATOM     22  H6  MFU d          13.302  -0.174  -4.981  0.00  0.00     0.031 H 
ATOM     23  H7  MFU d          13.558   0.454  -3.318  0.00  0.00     0.031 H 
ATOM     24  H8  MFU d          14.733   0.849  -4.619  0.00  0.00     0.031 H 
ENDBRANCH   5  21
BRANCH   4  25
ATOM     25  O4  MFU d          10.795   0.666  -4.716  0.00  0.00    -0.390 OA
ATOM     26  H11 MFU d           9.911   0.625  -5.063  0.00  0.00     0.210 HD
ENDBRANCH   4  25
TORSDOF 6
ENDMDL
