MODEL 1
REMARK VINA RESULT:      -5.9      0.000      0.000
REMARK  19 active torsions:
REMARK  status: ('A' for Active; 'I' for Inactive)
REMARK    1  A    between atoms: C2_4  and  C1_2 
REMARK    2  A    between atoms: O2_17  and  C2_4 
REMARK    3  A    between atoms: C6_6  and  C7_7 
REMARK    4  A    between atoms: C7_7  and  C8_8 
REMARK    5  A    between atoms: C7_7  and  O7_10 
REMARK    6  A    between atoms: C8_8  and  O8_9 
REMARK    7  A    between atoms: C5_11  and  O5_12 
REMARK    8  A    between atoms: C4_13  and  O4_14 
REMARK    9  A    between atoms: C3_15  and  O3_16 
REMARK   10  A    between atoms: C4_23  and  O2_17 
REMARK   11  A    between atoms: C2_21  and  C1_18 
REMARK   12  A    between atoms: C2_21  and  O2_32 
REMARK   13  A    between atoms: C5_24  and  O5_25 
REMARK   14  A    between atoms: C6_26  and  C7_28 
REMARK   15  A    between atoms: C7_28  and  O7_29 
REMARK   16  A    between atoms: C7_28  and  C8_30 
REMARK   17  A    between atoms: C8_30  and  O8_31 
REMARK   18  A    between atoms: O2_32  and  C9_33 
REMARK   19  A    between atoms: C9_33  and  C10_34 
ROOT
ATOM      1  C2  KO1 d          -6.775   1.613  70.927  0.00  0.00     0.259 C 
ATOM      2  C3  KO1 d          -6.529   1.681  69.387  0.00  0.00     0.024 C 
ATOM      3  C4  KO1 d          -7.793   1.555  68.499  0.00  0.00     0.075 C 
ATOM      4  C5  KO1 d          -8.747   0.385  68.854  0.00  0.00     0.088 C 
ATOM      5  C6  KO1 d          -9.063   0.481  70.379  0.00  0.00     0.096 C 
ATOM      6  O6  KO1 d          -7.825   0.637  71.189  0.00  0.00    -0.336 OA
ATOM      7  H13 KO1 d          -5.843   0.864  69.118  0.00  0.00     0.045 H 
ATOM      8  H14 KO1 d          -6.053   2.648  69.163  0.00  0.00     0.045 H 
ATOM      9  H15 KO1 d          -8.347   2.500  68.602  0.00  0.00     0.087 H 
ATOM     10  H16 KO1 d          -9.687   0.520  68.301  0.00  0.00     0.091 H 
ATOM     11  H18 KO1 d          -9.641   1.407  70.519  0.00  0.00     0.091 H 
ENDROOT
BRANCH   3  12
ATOM     12  O2  KO1 d          -7.487   1.335  67.085  0.00  0.00    -0.336 OA
BRANCH  12  13
ATOM     13  C2  KO1 d          -8.461   1.720  66.054  0.00  0.00     0.286 C 
ATOM     14  O6  KO1 d          -8.999   3.137  66.410  0.00  0.00    -0.334 OA
ATOM     15  C6  KO1 d          -7.836   4.078  66.624  0.00  0.00     0.096 C 
ATOM     16  C5  KO1 d          -7.093   4.256  65.298  0.00  0.00     0.090 C 
ATOM     17  H1  KO1 d          -7.131   3.668  67.362  0.00  0.00     0.091 H 
ATOM     18  C4  KO1 d          -6.538   2.878  64.847  0.00  0.00     0.093 C 
ATOM     19  H7  KO1 d          -6.264   4.969  65.427  0.00  0.00     0.091 H 
ATOM     20  C3  KO1 d          -7.624   1.764  64.734  0.00  0.00     0.127 C 
ATOM     21  H9  KO1 d          -5.798   2.551  65.592  0.00  0.00     0.091 H 
ATOM     22  H11 KO1 d          -7.128   0.801  64.544  0.00  0.00     0.096 H 
BRANCH  13  23
ATOM     23  C1  KO1 d          -9.688   0.804  65.846  0.00  0.00     0.241 C 
ATOM     24  OA1 KO1 d         -10.850   1.286  65.926  0.00  0.00    -0.644 OA
ATOM     25  O1B KO1 d          -9.501  -0.387  65.591  0.00  0.00    -0.644 OA
ENDBRANCH  13  23
BRANCH  15  26
ATOM     26  C7  KO1 d          -8.511   5.355  67.207  0.00  0.00     0.083 C 
ATOM     27  H2  KO1 d          -8.263   6.214  66.567  0.00  0.00     0.090 H 
BRANCH  26  28
ATOM     28  C8  KO1 d         -10.051   5.265  67.246  0.00  0.00     0.043 C 
ATOM     29  H3  KO1 d         -10.483   5.989  67.953  0.00  0.00     0.078 H 
ATOM     30  H4  KO1 d         -10.392   4.252  67.505  0.00  0.00     0.078 H 
BRANCH  28  31
ATOM     31  O8  KO1 d         -10.368   5.601  65.877  0.00  0.00    -0.398 OA
ATOM     32  H5  KO1 d         -10.835   6.429  65.855  0.00  0.00     0.209 HD
ENDBRANCH  28  31
ENDBRANCH  26  28
BRANCH  26  33
ATOM     33  O7  KO1 d          -7.875   5.535  68.463  0.00  0.00    -0.391 OA
ATOM     34  H6  KO1 d          -7.323   4.784  68.648  0.00  0.00     0.210 HD
ENDBRANCH  26  33
ENDBRANCH  15  26
BRANCH  16  35
ATOM     35  O5  KO1 d          -8.005   4.749  64.299  0.00  0.00    -0.390 OA
ATOM     36  H8  KO1 d          -7.610   5.486  63.848  0.00  0.00     0.210 HD
ENDBRANCH  16  35
BRANCH  18  37
ATOM     37  O4  KO1 d          -5.895   3.038  63.605  0.00  0.00    -0.390 OA
ATOM     38  H10 KO1 d          -5.150   2.450  63.558  0.00  0.00     0.210 HD
ENDBRANCH  18  37
BRANCH  20  39
ATOM     39  O3  KO1 d          -8.610   2.009  63.751  0.00  0.00    -0.387 OA
ATOM     40  H12 KO1 d          -8.552   2.913  63.465  0.00  0.00     0.210 HD
ENDBRANCH  20  39
ENDBRANCH  12  13
ENDBRANCH   3  12
BRANCH   4  41
ATOM     41  O5  KO1 d          -8.186  -0.902  68.454  0.00  0.00    -0.390 OA
ATOM     42  H17 KO1 d          -7.260  -0.799  68.269  0.00  0.00     0.210 HD
ENDBRANCH   4  41
BRANCH   1  43
ATOM     43  C1  KO1 d          -5.418   1.146  71.545  0.00  0.00     0.239 C 
ATOM     44  O1A KO1 d          -4.434   1.899  71.309  0.00  0.00    -0.644 OA
ATOM     45  O1B KO1 d          -5.361   0.061  72.215  0.00  0.00    -0.644 OA
ENDBRANCH   1  43
BRANCH   1  46
ATOM     46  O2  KO1 d          -7.256   2.843  71.519  0.00  0.00    -0.343 OA
BRANCH  46  47
ATOM     47  C9  KO1 d          -8.261   3.594  72.119  0.00  0.00     0.038 C 
ATOM     48  H24 KO1 d          -7.742   4.250  72.835  0.00  0.00     0.080 H 
ATOM     49  H25 KO1 d          -8.877   2.866  72.668  0.00  0.00     0.080 H 
BRANCH  47  50
ATOM     50  C10 KO1 d          -9.183   4.431  71.450  0.00  0.00    -0.089 C 
ATOM     51  C11 KO1 d         -10.438   3.996  70.993  0.00  0.00    -0.123 C 
ATOM     52  H27 KO1 d         -11.103   4.692  70.484  0.00  0.00     0.066 H 
ATOM     53  H28 KO1 d         -10.746   2.962  71.146  0.00  0.00     0.066 H 
ATOM     54  H26 KO1 d          -8.906   5.471  71.280  0.00  0.00     0.078 H 
ENDBRANCH  47  50
ENDBRANCH  46  47
ENDBRANCH   1  46
BRANCH   5  55
ATOM     55  C7  KO1 d          -9.973  -0.677  70.872  0.00  0.00     0.083 C 
ATOM     56  H19 KO1 d         -10.463  -0.325  71.792  0.00  0.00     0.090 H 
BRANCH  55  57
ATOM     57  O7  KO1 d          -9.191  -1.844  71.211  0.00  0.00    -0.391 OA
ATOM     58  H20 KO1 d          -8.271  -1.661  71.062  0.00  0.00     0.210 HD
ENDBRANCH  55  57
BRANCH  55  59
ATOM     59  C8  KO1 d         -11.103  -1.068  69.874  0.00  0.00     0.043 C 
ATOM     60  H21 KO1 d         -11.239  -0.247  69.154  0.00  0.00     0.078 H 
ATOM     61  H22 KO1 d         -12.036  -1.221  70.436  0.00  0.00     0.078 H 
BRANCH  59  62
ATOM     62  O8  KO1 d         -10.793  -2.283  69.144  0.00  0.00    -0.398 OA
ATOM     63  H23 KO1 d         -10.640  -2.990  69.760  0.00  0.00     0.209 HD
ENDBRANCH  59  62
ENDBRANCH  55  59
ENDBRANCH   5  55
TORSDOF 19
ENDMDL
MODEL 2
REMARK VINA RESULT:      -5.5      1.721      2.497
REMARK  19 active torsions:
REMARK  status: ('A' for Active; 'I' for Inactive)
REMARK    1  A    between atoms: C2_4  and  C1_2 
REMARK    2  A    between atoms: O2_17  and  C2_4 
REMARK    3  A    between atoms: C6_6  and  C7_7 
REMARK    4  A    between atoms: C7_7  and  C8_8 
REMARK    5  A    between atoms: C7_7  and  O7_10 
REMARK    6  A    between atoms: C8_8  and  O8_9 
REMARK    7  A    between atoms: C5_11  and  O5_12 
REMARK    8  A    between atoms: C4_13  and  O4_14 
REMARK    9  A    between atoms: C3_15  and  O3_16 
REMARK   10  A    between atoms: C4_23  and  O2_17 
REMARK   11  A    between atoms: C2_21  and  C1_18 
REMARK   12  A    between atoms: C2_21  and  O2_32 
REMARK   13  A    between atoms: C5_24  and  O5_25 
REMARK   14  A    between atoms: C6_26  and  C7_28 
REMARK   15  A    between atoms: C7_28  and  O7_29 
REMARK   16  A    between atoms: C7_28  and  C8_30 
REMARK   17  A    between atoms: C8_30  and  O8_31 
REMARK   18  A    between atoms: O2_32  and  C9_33 
REMARK   19  A    between atoms: C9_33  and  C10_34 
ROOT
ATOM      1  C2  KO1 d          -7.155  -0.229  69.531  0.00  0.00     0.259 C 
ATOM      2  C3  KO1 d          -7.216   0.199  68.031  0.00  0.00     0.024 C 
ATOM      3  C4  KO1 d          -8.409   1.108  67.641  0.00  0.00     0.075 C 
ATOM      4  C5  KO1 d          -9.801   0.638  68.138  0.00  0.00     0.088 C 
ATOM      5  C6  KO1 d          -9.690   0.379  69.672  0.00  0.00     0.096 C 
ATOM      6  O6  KO1 d          -8.513  -0.468  70.004  0.00  0.00    -0.336 OA
ATOM      7  H13 KO1 d          -7.274  -0.715  67.421  0.00  0.00     0.045 H 
ATOM      8  H14 KO1 d          -6.287   0.739  67.795  0.00  0.00     0.045 H 
ATOM      9  H15 KO1 d          -8.203   2.100  68.069  0.00  0.00     0.087 H 
ATOM     10  H16 KO1 d         -10.522   1.452  67.980  0.00  0.00     0.091 H 
ATOM     11  H18 KO1 d          -9.507   1.358  70.141  0.00  0.00     0.091 H 
ENDROOT
BRANCH   3  12
ATOM     12  O2  KO1 d          -8.585   1.243  66.195  0.00  0.00    -0.336 OA
BRANCH  12  13
ATOM     13  C2  KO1 d          -9.118   2.492  65.631  0.00  0.00     0.286 C 
ATOM     14  O6  KO1 d          -8.843   3.632  66.655  0.00  0.00    -0.334 OA
ATOM     15  C6  KO1 d          -7.379   3.632  67.029  0.00  0.00     0.096 C 
ATOM     16  C5  KO1 d          -6.553   3.998  65.794  0.00  0.00     0.090 C 
ATOM     17  H1  KO1 d          -7.063   2.636  67.373  0.00  0.00     0.091 H 
ATOM     18  C4  KO1 d          -6.784   2.921  64.701  0.00  0.00     0.093 C 
ATOM     19  H7  KO1 d          -5.485   4.038  66.059  0.00  0.00     0.091 H 
ATOM     20  C3  KO1 d          -8.284   2.710  64.327  0.00  0.00     0.127 C 
ATOM     21  H9  KO1 d          -6.395   1.964  65.079  0.00  0.00     0.091 H 
ATOM     22  H11 KO1 d          -8.365   1.845  63.652  0.00  0.00     0.096 H 
BRANCH  13  23
ATOM     23  C1  KO1 d         -10.623   2.540  65.285  0.00  0.00     0.241 C 
ATOM     24  OA1 KO1 d         -11.213   1.490  64.913  0.00  0.00    -0.644 OA
ATOM     25  O1B KO1 d         -11.222   3.611  65.395  0.00  0.00    -0.644 OA
ENDBRANCH  13  23
BRANCH  15  26
ATOM     26  C7  KO1 d          -7.313   4.634  68.219  0.00  0.00     0.083 C 
ATOM     27  H2  KO1 d          -6.592   5.428  67.977  0.00  0.00     0.090 H 
BRANCH  26  28
ATOM     28  C8  KO1 d          -8.659   5.333  68.501  0.00  0.00     0.043 C 
ATOM     29  H3  KO1 d          -9.269   5.424  67.590  0.00  0.00     0.078 H 
ATOM     30  H4  KO1 d          -8.515   6.328  68.946  0.00  0.00     0.078 H 
BRANCH  28  31
ATOM     31  O8  KO1 d          -9.244   4.406  69.444  0.00  0.00    -0.398 OA
ATOM     32  H5  KO1 d          -8.927   4.603  70.318  0.00  0.00     0.209 HD
ENDBRANCH  28  31
ENDBRANCH  26  28
BRANCH  26  33
ATOM     33  O7  KO1 d          -6.786   3.863  69.288  0.00  0.00    -0.391 OA
ATOM     34  H6  KO1 d          -5.944   3.503  69.033  0.00  0.00     0.210 HD
ENDBRANCH  26  33
ENDBRANCH  15  26
BRANCH  16  35
ATOM     35  O5  KO1 d          -6.978   5.279  65.295  0.00  0.00    -0.390 OA
ATOM     36  H8  KO1 d          -6.393   5.557  64.600  0.00  0.00     0.210 HD
ENDBRANCH  16  35
BRANCH  18  37
ATOM     37  O4  KO1 d          -6.058   3.286  63.551  0.00  0.00    -0.390 OA
ATOM     38  H10 KO1 d          -5.180   3.549  63.803  0.00  0.00     0.210 HD
ENDBRANCH  18  37
BRANCH  20  39
ATOM     39  O3  KO1 d          -8.905   3.840  63.748  0.00  0.00    -0.387 OA
ATOM     40  H12 KO1 d          -9.818   3.643  63.574  0.00  0.00     0.210 HD
ENDBRANCH  20  39
ENDBRANCH  12  13
ENDBRANCH   3  12
BRANCH   4  41
ATOM     41  O5  KO1 d         -10.275  -0.518  67.383  0.00  0.00    -0.390 OA
ATOM     42  H17 KO1 d         -10.161  -1.304  67.903  0.00  0.00     0.210 HD
ENDBRANCH   4  41
BRANCH   1  43
ATOM     43  C1  KO1 d          -6.322  -1.550  69.553  0.00  0.00     0.239 C 
ATOM     44  O1A KO1 d          -5.865  -1.915  68.435  0.00  0.00    -0.644 OA
ATOM     45  O1B KO1 d          -6.162  -2.187  70.648  0.00  0.00    -0.644 OA
ENDBRANCH   1  43
BRANCH   1  46
ATOM     46  O2  KO1 d          -6.621   0.774  70.426  0.00  0.00    -0.343 OA
BRANCH  46  47
ATOM     47  C9  KO1 d          -6.161   1.169  71.678  0.00  0.00     0.038 C 
ATOM     48  H24 KO1 d          -6.029   2.259  71.606  0.00  0.00     0.080 H 
ATOM     49  H25 KO1 d          -5.178   0.687  71.789  0.00  0.00     0.080 H 
BRANCH  47  50
ATOM     50  C10 KO1 d          -6.820   0.955  72.910  0.00  0.00    -0.089 C 
ATOM     51  C11 KO1 d          -6.800  -0.267  73.601  0.00  0.00    -0.123 C 
ATOM     52  H27 KO1 d          -7.329  -0.367  74.547  0.00  0.00     0.066 H 
ATOM     53  H28 KO1 d          -6.254  -1.117  73.190  0.00  0.00     0.066 H 
ATOM     54  H26 KO1 d          -7.375   1.784  73.348  0.00  0.00     0.078 H 
ENDBRANCH  47  50
ENDBRANCH  46  47
ENDBRANCH   1  46
BRANCH   5  55
ATOM     55  C7  KO1 d         -11.015  -0.152  70.283  0.00  0.00     0.083 C 
ATOM     56  H19 KO1 d         -11.809   0.058  69.551  0.00  0.00     0.090 H 
BRANCH  55  57
ATOM     57  O7  KO1 d         -11.345   0.551  71.501  0.00  0.00    -0.391 OA
ATOM     58  H20 KO1 d         -11.276  -0.045  72.238  0.00  0.00     0.210 HD
ENDBRANCH  55  57
BRANCH  55  59
ATOM     59  C8  KO1 d         -11.027  -1.689  70.539  0.00  0.00     0.043 C 
ATOM     60  H21 KO1 d         -12.037  -1.987  70.856  0.00  0.00     0.078 H 
ATOM     61  H22 KO1 d         -10.309  -1.921  71.339  0.00  0.00     0.078 H 
BRANCH  59  62
ATOM     62  O8  KO1 d         -10.668  -2.445  69.354  0.00  0.00    -0.398 OA
ATOM     63  H23 KO1 d         -10.541  -3.357  69.588  0.00  0.00     0.209 HD
ENDBRANCH  59  62
ENDBRANCH  55  59
ENDBRANCH   5  55
TORSDOF 19
ENDMDL
MODEL 3
REMARK VINA RESULT:      -5.5      2.224      6.744
REMARK  19 active torsions:
REMARK  status: ('A' for Active; 'I' for Inactive)
REMARK    1  A    between atoms: C2_4  and  C1_2 
REMARK    2  A    between atoms: O2_17  and  C2_4 
REMARK    3  A    between atoms: C6_6  and  C7_7 
REMARK    4  A    between atoms: C7_7  and  C8_8 
REMARK    5  A    between atoms: C7_7  and  O7_10 
REMARK    6  A    between atoms: C8_8  and  O8_9 
REMARK    7  A    between atoms: C5_11  and  O5_12 
REMARK    8  A    between atoms: C4_13  and  O4_14 
REMARK    9  A    between atoms: C3_15  and  O3_16 
REMARK   10  A    between atoms: C4_23  and  O2_17 
REMARK   11  A    between atoms: C2_21  and  C1_18 
REMARK   12  A    between atoms: C2_21  and  O2_32 
REMARK   13  A    between atoms: C5_24  and  O5_25 
REMARK   14  A    between atoms: C6_26  and  C7_28 
REMARK   15  A    between atoms: C7_28  and  O7_29 
REMARK   16  A    between atoms: C7_28  and  C8_30 
REMARK   17  A    between atoms: C8_30  and  O8_31 
REMARK   18  A    between atoms: O2_32  and  C9_33 
REMARK   19  A    between atoms: C9_33  and  C10_34 
ROOT
ATOM      1  C2  KO1 d          -6.636   3.472  67.558  0.00  0.00     0.259 C 
ATOM      2  C3  KO1 d          -7.001   2.443  68.673  0.00  0.00     0.024 C 
ATOM      3  C4  KO1 d          -8.403   1.793  68.555  0.00  0.00     0.075 C 
ATOM      4  C5  KO1 d          -9.577   2.775  68.304  0.00  0.00     0.088 C 
ATOM      5  C6  KO1 d          -9.195   3.663  67.079  0.00  0.00     0.096 C 
ATOM      6  O6  KO1 d          -7.830   4.236  67.219  0.00  0.00    -0.336 OA
ATOM      7  H13 KO1 d          -6.950   2.962  69.642  0.00  0.00     0.045 H 
ATOM      8  H14 KO1 d          -6.252   1.637  68.649  0.00  0.00     0.045 H 
ATOM      9  H15 KO1 d          -8.354   1.087  67.713  0.00  0.00     0.087 H 
ATOM     10  H16 KO1 d         -10.471   2.192  68.038  0.00  0.00     0.091 H 
ATOM     11  H18 KO1 d          -9.160   2.992  66.208  0.00  0.00     0.091 H 
ENDROOT
BRANCH   3  12
ATOM     12  O2  KO1 d          -8.809   1.069  69.759  0.00  0.00    -0.336 OA
BRANCH  12  13
ATOM     13  C2  KO1 d          -9.130  -0.364  69.683  0.00  0.00     0.286 C 
ATOM     14  O6  KO1 d          -7.809  -1.133  69.387  0.00  0.00    -0.334 OA
ATOM     15  C6  KO1 d          -6.755  -0.731  70.392  0.00  0.00     0.096 C 
ATOM     16  C5  KO1 d          -7.189  -1.205  71.781  0.00  0.00     0.090 C 
ATOM     17  H1  KO1 d          -6.639   0.363  70.421  0.00  0.00     0.091 H 
ATOM     18  C4  KO1 d          -8.522  -0.504  72.154  0.00  0.00     0.093 C 
ATOM     19  H7  KO1 d          -6.414  -0.953  72.520  0.00  0.00     0.091 H 
ATOM     20  C3  KO1 d          -9.663  -0.713  71.111  0.00  0.00     0.127 C 
ATOM     21  H9  KO1 d          -8.329   0.577  72.227  0.00  0.00     0.091 H 
ATOM     22  H11 KO1 d         -10.518  -0.078  71.384  0.00  0.00     0.096 H 
BRANCH  13  23
ATOM     23  C1  KO1 d         -10.168  -0.813  68.630  0.00  0.00     0.241 C 
ATOM     24  OA1 KO1 d         -11.343  -0.360  68.677  0.00  0.00    -0.644 OA
ATOM     25  O1B KO1 d          -9.816  -1.601  67.751  0.00  0.00    -0.644 OA
ENDBRANCH  13  23
BRANCH  15  26
ATOM     26  C7  KO1 d          -5.455  -1.373  69.824  0.00  0.00     0.083 C 
ATOM     27  H2  KO1 d          -4.844  -0.587  69.357  0.00  0.00     0.090 H 
BRANCH  26  28
ATOM     28  C8  KO1 d          -4.576  -2.028  70.910  0.00  0.00     0.043 C 
ATOM     29  H3  KO1 d          -4.929  -1.782  71.922  0.00  0.00     0.078 H 
ATOM     30  H4  KO1 d          -3.521  -1.735  70.809  0.00  0.00     0.078 H 
BRANCH  28  31
ATOM     31  O8  KO1 d          -4.773  -3.426  70.601  0.00  0.00    -0.398 OA
ATOM     32  H5  KO1 d          -5.619  -3.540  70.183  0.00  0.00     0.209 HD
ENDBRANCH  28  31
ENDBRANCH  26  28
BRANCH  26  33
ATOM     33  O7  KO1 d          -5.920  -2.244  68.803  0.00  0.00    -0.391 OA
ATOM     34  H6  KO1 d          -6.869  -2.281  68.829  0.00  0.00     0.210 HD
ENDBRANCH  26  33
ENDBRANCH  15  26
BRANCH  16  35
ATOM     35  O5  KO1 d          -7.393  -2.630  71.759  0.00  0.00    -0.390 OA
ATOM     36  H8  KO1 d          -8.051  -2.864  72.403  0.00  0.00     0.210 HD
ENDBRANCH  16  35
BRANCH  18  37
ATOM     37  O4  KO1 d          -8.941  -0.977  73.413  0.00  0.00    -0.390 OA
ATOM     38  H10 KO1 d          -9.656  -1.592  73.296  0.00  0.00     0.210 HD
ENDBRANCH  18  37
BRANCH  20  39
ATOM     39  O3  KO1 d         -10.079  -2.056  70.964  0.00  0.00    -0.387 OA
ATOM     40  H12 KO1 d         -10.906  -2.080  70.496  0.00  0.00     0.210 HD
ENDBRANCH  20  39
ENDBRANCH  12  13
ENDBRANCH   3  12
BRANCH   4  41
ATOM     41  O5  KO1 d          -9.898   3.542  69.504  0.00  0.00    -0.390 OA
ATOM     42  H17 KO1 d          -9.236   4.210  69.639  0.00  0.00     0.210 HD
ENDBRANCH   4  41
BRANCH   1  43
ATOM     43  C1  KO1 d          -5.546   4.398  68.186  0.00  0.00     0.239 C 
ATOM     44  O1A KO1 d          -5.987   5.423  68.774  0.00  0.00    -0.644 OA
ATOM     45  O1B KO1 d          -4.310   4.103  68.066  0.00  0.00    -0.644 OA
ENDBRANCH   1  43
BRANCH   1  46
ATOM     46  O2  KO1 d          -6.206   2.883  66.308  0.00  0.00    -0.343 OA
BRANCH  46  47
ATOM     47  C9  KO1 d          -6.452   2.114  65.176  0.00  0.00     0.038 C 
ATOM     48  H24 KO1 d          -5.459   1.888  64.759  0.00  0.00     0.080 H 
ATOM     49  H25 KO1 d          -6.995   2.778  64.488  0.00  0.00     0.080 H 
BRANCH  47  50
ATOM     50  C10 KO1 d          -7.156   0.889  65.141  0.00  0.00    -0.089 C 
ATOM     51  C11 KO1 d          -8.538   0.792  64.909  0.00  0.00    -0.123 C 
ATOM     52  H27 KO1 d          -9.021  -0.183  64.896  0.00  0.00     0.066 H 
ATOM     53  H28 KO1 d          -9.127   1.693  64.742  0.00  0.00     0.066 H 
ATOM     54  H26 KO1 d          -6.597  -0.032  65.305  0.00  0.00     0.078 H 
ENDBRANCH  47  50
ENDBRANCH  46  47
ENDBRANCH   1  46
BRANCH   5  55
ATOM     55  C7  KO1 d         -10.276   4.732  66.760  0.00  0.00     0.083 C 
ATOM     56  H19 KO1 d         -11.252   4.268  66.967  0.00  0.00     0.090 H 
BRANCH  55  57
ATOM     57  O7  KO1 d         -10.251   5.093  65.360  0.00  0.00    -0.391 OA
ATOM     58  H20 KO1 d         -10.911   4.594  64.894  0.00  0.00     0.210 HD
ENDBRANCH  55  57
BRANCH  55  59
ATOM     59  C8  KO1 d         -10.184   6.014  67.640  0.00  0.00     0.043 C 
ATOM     60  H21 KO1 d         -10.349   6.894  67.001  0.00  0.00     0.078 H 
ATOM     61  H22 KO1 d          -9.179   6.067  68.085  0.00  0.00     0.078 H 
BRANCH  59  62
ATOM     62  O8  KO1 d         -11.168   6.018  68.706  0.00  0.00    -0.398 OA
ATOM     63  H23 KO1 d         -10.738   5.830  69.532  0.00  0.00     0.209 HD
ENDBRANCH  59  62
ENDBRANCH  55  59
ENDBRANCH   5  55
TORSDOF 19
ENDMDL
MODEL 4
REMARK VINA RESULT:      -4.6      1.854      4.243
REMARK  19 active torsions:
REMARK  status: ('A' for Active; 'I' for Inactive)
REMARK    1  A    between atoms: C2_4  and  C1_2 
REMARK    2  A    between atoms: O2_17  and  C2_4 
REMARK    3  A    between atoms: C6_6  and  C7_7 
REMARK    4  A    between atoms: C7_7  and  C8_8 
REMARK    5  A    between atoms: C7_7  and  O7_10 
REMARK    6  A    between atoms: C8_8  and  O8_9 
REMARK    7  A    between atoms: C5_11  and  O5_12 
REMARK    8  A    between atoms: C4_13  and  O4_14 
REMARK    9  A    between atoms: C3_15  and  O3_16 
REMARK   10  A    between atoms: C4_23  and  O2_17 
REMARK   11  A    between atoms: C2_21  and  C1_18 
REMARK   12  A    between atoms: C2_21  and  O2_32 
REMARK   13  A    between atoms: C5_24  and  O5_25 
REMARK   14  A    between atoms: C6_26  and  C7_28 
REMARK   15  A    between atoms: C7_28  and  O7_29 
REMARK   16  A    between atoms: C7_28  and  C8_30 
REMARK   17  A    between atoms: C8_30  and  O8_31 
REMARK   18  A    between atoms: O2_32  and  C9_33 
REMARK   19  A    between atoms: C9_33  and  C10_34 
ROOT
ATOM      1  C2  KO1 d          -8.595   1.533  70.278  0.00  0.00     0.259 C 
ATOM      2  C3  KO1 d          -8.990   1.298  68.787  0.00  0.00     0.024 C 
ATOM      3  C4  KO1 d          -9.096   2.573  67.912  0.00  0.00     0.075 C 
ATOM      4  C5  KO1 d          -9.917   3.738  68.523  0.00  0.00     0.088 C 
ATOM      5  C6  KO1 d          -9.358   4.008  69.953  0.00  0.00     0.096 C 
ATOM      6  O6  KO1 d          -9.239   2.755  70.744  0.00  0.00    -0.336 OA
ATOM      7  H13 KO1 d          -9.968   0.794  68.771  0.00  0.00     0.045 H 
ATOM      8  H14 KO1 d          -8.231   0.641  68.336  0.00  0.00     0.045 H 
ATOM      9  H15 KO1 d          -8.068   2.924  67.739  0.00  0.00     0.087 H 
ATOM     10  H16 KO1 d          -9.752   4.639  67.915  0.00  0.00     0.091 H 
ATOM     11  H18 KO1 d          -8.333   4.387  69.821  0.00  0.00     0.091 H 
ENDROOT
BRANCH   3  12
ATOM     12  O2  KO1 d          -9.740   2.336  66.620  0.00  0.00    -0.336 OA
BRANCH  12  13
ATOM     13  C2  KO1 d          -9.450   3.218  65.480  0.00  0.00     0.286 C 
ATOM     14  O6  KO1 d          -8.205   4.078  65.847  0.00  0.00    -0.334 OA
ATOM     15  C6  KO1 d          -7.084   3.173  66.303  0.00  0.00     0.096 C 
ATOM     16  C5  KO1 d          -6.635   2.308  65.123  0.00  0.00     0.090 C 
ATOM     17  H1  KO1 d          -7.422   2.507  67.110  0.00  0.00     0.091 H 
ATOM     18  C4  KO1 d          -7.829   1.427  64.668  0.00  0.00     0.093 C 
ATOM     19  H7  KO1 d          -5.793   1.669  65.428  0.00  0.00     0.091 H 
ATOM     20  C3  KO1 d          -9.114   2.234  64.311  0.00  0.00     0.127 C 
ATOM     21  H9  KO1 d          -8.080   0.743  65.492  0.00  0.00     0.091 H 
ATOM     22  H11 KO1 d          -9.940   1.530  64.133  0.00  0.00     0.096 H 
BRANCH  13  23
ATOM     23  C1  KO1 d         -10.560   4.190  65.022  0.00  0.00     0.241 C 
ATOM     24  OA1 KO1 d         -11.348   3.850  64.099  0.00  0.00    -0.644 OA
ATOM     25  O1B KO1 d         -10.660   5.281  65.585  0.00  0.00    -0.644 OA
ENDBRANCH  13  23
BRANCH  15  26
ATOM     26  C7  KO1 d          -6.025   4.169  66.863  0.00  0.00     0.083 C 
ATOM     27  H2  KO1 d          -5.641   4.784  66.036  0.00  0.00     0.090 H 
BRANCH  26  28
ATOM     28  C8  KO1 d          -6.604   5.148  67.907  0.00  0.00     0.043 C 
ATOM     29  H3  KO1 d          -7.702   5.194  67.856  0.00  0.00     0.078 H 
ATOM     30  H4  KO1 d          -6.188   6.159  67.789  0.00  0.00     0.078 H 
BRANCH  28  31
ATOM     31  O8  KO1 d          -6.153   4.524  69.130  0.00  0.00    -0.398 OA
ATOM     32  H5  KO1 d          -6.664   3.740  69.292  0.00  0.00     0.209 HD
ENDBRANCH  28  31
ENDBRANCH  26  28
BRANCH  26  33
ATOM     33  O7  KO1 d          -4.976   3.331  67.323  0.00  0.00    -0.391 OA
ATOM     34  H6  KO1 d          -5.322   2.466  67.512  0.00  0.00     0.210 HD
ENDBRANCH  26  33
ENDBRANCH  15  26
BRANCH  16  35
ATOM     35  O5  KO1 d          -6.231   3.157  64.033  0.00  0.00    -0.390 OA
ATOM     36  H8  KO1 d          -6.994   3.393  63.518  0.00  0.00     0.210 HD
ENDBRANCH  16  35
BRANCH  18  37
ATOM     37  O4  KO1 d          -7.425   0.666  63.553  0.00  0.00    -0.390 OA
ATOM     38  H10 KO1 d          -7.098  -0.177  63.848  0.00  0.00     0.210 HD
ENDBRANCH  18  37
BRANCH  20  39
ATOM     39  O3  KO1 d          -8.968   3.105  63.208  0.00  0.00    -0.387 OA
ATOM     40  H12 KO1 d          -8.302   3.754  63.404  0.00  0.00     0.210 HD
ENDBRANCH  20  39
ENDBRANCH  12  13
ENDBRANCH   3  12
BRANCH   4  41
ATOM     41  O5  KO1 d         -11.349   3.452  68.499  0.00  0.00    -0.390 OA
ATOM     42  H17 KO1 d         -11.795   4.026  69.110  0.00  0.00     0.210 HD
ENDBRANCH   4  41
BRANCH   1  43
ATOM     43  C1  KO1 d          -9.139   0.290  71.054  0.00  0.00     0.239 C 
ATOM     44  O1A KO1 d          -9.679   0.546  72.165  0.00  0.00    -0.644 OA
ATOM     45  O1B KO1 d          -9.001  -0.880  70.563  0.00  0.00    -0.644 OA
ENDBRANCH   1  43
BRANCH   1  46
ATOM     46  O2  KO1 d          -7.183   1.749  70.505  0.00  0.00    -0.343 OA
BRANCH  46  47
ATOM     47  C9  KO1 d          -5.860   1.321  70.446  0.00  0.00     0.038 C 
ATOM     48  H24 KO1 d          -5.351   1.843  71.270  0.00  0.00     0.080 H 
ATOM     49  H25 KO1 d          -5.478   1.694  69.484  0.00  0.00     0.080 H 
BRANCH  47  50
ATOM     50  C10 KO1 d          -5.417  -0.019  70.526  0.00  0.00    -0.089 C 
ATOM     51  C11 KO1 d          -5.366  -0.888  69.424  0.00  0.00    -0.123 C 
ATOM     52  H27 KO1 d          -5.015  -1.911  69.553  0.00  0.00     0.066 H 
ATOM     53  H28 KO1 d          -5.678  -0.540  68.440  0.00  0.00     0.066 H 
ATOM     54  H26 KO1 d          -5.098  -0.399  71.496  0.00  0.00     0.078 H 
ENDBRANCH  47  50
ENDBRANCH  46  47
ENDBRANCH   1  46
BRANCH   5  55
ATOM     55  C7  KO1 d         -10.139   5.127  70.696  0.00  0.00     0.083 C 
ATOM     56  H19 KO1 d         -10.910   4.627  71.301  0.00  0.00     0.090 H 
BRANCH  55  57
ATOM     57  O7  KO1 d         -10.813   5.998  69.761  0.00  0.00    -0.391 OA
ATOM     58  H20 KO1 d         -11.330   5.475  69.159  0.00  0.00     0.210 HD
ENDBRANCH  55  57
BRANCH  55  59
ATOM     59  C8  KO1 d          -9.268   5.971  71.673  0.00  0.00     0.043 C 
ATOM     60  H21 KO1 d          -9.731   5.945  72.671  0.00  0.00     0.078 H 
ATOM     61  H22 KO1 d          -9.235   7.010  71.312  0.00  0.00     0.078 H 
BRANCH  59  62
ATOM     62  O8  KO1 d          -7.911   5.467  71.773  0.00  0.00    -0.398 OA
ATOM     63  H23 KO1 d          -7.597   5.235  70.907  0.00  0.00     0.209 HD
ENDBRANCH  59  62
ENDBRANCH  55  59
ENDBRANCH   5  55
TORSDOF 19
ENDMDL
MODEL 5
REMARK VINA RESULT:      -4.4      1.765      4.358
REMARK  19 active torsions:
REMARK  status: ('A' for Active; 'I' for Inactive)
REMARK    1  A    between atoms: C2_4  and  C1_2 
REMARK    2  A    between atoms: O2_17  and  C2_4 
REMARK    3  A    between atoms: C6_6  and  C7_7 
REMARK    4  A    between atoms: C7_7  and  C8_8 
REMARK    5  A    between atoms: C7_7  and  O7_10 
REMARK    6  A    between atoms: C8_8  and  O8_9 
REMARK    7  A    between atoms: C5_11  and  O5_12 
REMARK    8  A    between atoms: C4_13  and  O4_14 
REMARK    9  A    between atoms: C3_15  and  O3_16 
REMARK   10  A    between atoms: C4_23  and  O2_17 
REMARK   11  A    between atoms: C2_21  and  C1_18 
REMARK   12  A    between atoms: C2_21  and  O2_32 
REMARK   13  A    between atoms: C5_24  and  O5_25 
REMARK   14  A    between atoms: C6_26  and  C7_28 
REMARK   15  A    between atoms: C7_28  and  O7_29 
REMARK   16  A    between atoms: C7_28  and  C8_30 
REMARK   17  A    between atoms: C8_30  and  O8_31 
REMARK   18  A    between atoms: O2_32  and  C9_33 
REMARK   19  A    between atoms: C9_33  and  C10_34 
ROOT
ATOM      1  C2  KO1 d          -8.769   3.090  72.150  0.00  0.00     0.259 C 
ATOM      2  C3  KO1 d          -8.982   3.494  70.658  0.00  0.00     0.024 C 
ATOM      3  C4  KO1 d          -8.544   2.440  69.609  0.00  0.00     0.075 C 
ATOM      4  C5  KO1 d          -7.134   1.831  69.820  0.00  0.00     0.088 C 
ATOM      5  C6  KO1 d          -7.059   1.315  71.291  0.00  0.00     0.096 C 
ATOM      6  O6  KO1 d          -7.521   2.345  72.259  0.00  0.00    -0.336 OA
ATOM      7  H13 KO1 d          -8.410   4.415  70.472  0.00  0.00     0.045 H 
ATOM      8  H14 KO1 d         -10.054   3.692  70.510  0.00  0.00     0.045 H 
ATOM      9  H15 KO1 d          -9.284   1.627  69.649  0.00  0.00     0.087 H 
ATOM     10  H16 KO1 d          -7.021   0.967  69.149  0.00  0.00     0.091 H 
ATOM     11  H18 KO1 d          -7.772   0.481  71.364  0.00  0.00     0.091 H 
ENDROOT
BRANCH   3  12
ATOM     12  O2  KO1 d          -8.493   2.968  68.245  0.00  0.00    -0.336 OA
BRANCH  12  13
ATOM     13  C2  KO1 d          -9.613   2.734  67.323  0.00  0.00     0.286 C 
ATOM     14  O6  KO1 d          -9.032   2.630  65.883  0.00  0.00    -0.334 OA
ATOM     15  C6  KO1 d          -7.917   1.611  65.861  0.00  0.00     0.096 C 
ATOM     16  C5  KO1 d          -8.504   0.228  66.154  0.00  0.00     0.090 C 
ATOM     17  H1  KO1 d          -7.165   1.836  66.632  0.00  0.00     0.091 H 
ATOM     18  C4  KO1 d          -9.134   0.243  67.572  0.00  0.00     0.093 C 
ATOM     19  H7  KO1 d          -7.710  -0.532  66.105  0.00  0.00     0.091 H 
ATOM     20  C3  KO1 d         -10.203   1.359  67.780  0.00  0.00     0.127 C 
ATOM     21  H9  KO1 d          -8.327   0.412  68.300  0.00  0.00     0.091 H 
ATOM     22  H11 KO1 d         -10.494   1.382  68.840  0.00  0.00     0.096 H 
BRANCH  13  23
ATOM     23  C1  KO1 d         -10.745   3.785  67.286  0.00  0.00     0.241 C 
ATOM     24  OA1 KO1 d         -11.092   4.293  66.185  0.00  0.00    -0.644 OA
ATOM     25  O1B KO1 d         -11.299   4.096  68.342  0.00  0.00    -0.644 OA
ENDBRANCH  13  23
BRANCH  15  26
ATOM     26  C7  KO1 d          -7.284   1.802  64.451  0.00  0.00     0.083 C 
ATOM     27  H2  KO1 d          -8.089   1.870  63.705  0.00  0.00     0.090 H 
BRANCH  26  28
ATOM     28  C8  KO1 d          -6.457   3.098  64.326  0.00  0.00     0.043 C 
ATOM     29  H3  KO1 d          -7.008   3.882  63.785  0.00  0.00     0.078 H 
ATOM     30  H4  KO1 d          -5.493   2.918  63.829  0.00  0.00     0.078 H 
BRANCH  28  31
ATOM     31  O8  KO1 d          -6.284   3.435  65.721  0.00  0.00    -0.398 OA
ATOM     32  H5  KO1 d          -5.887   2.701  66.175  0.00  0.00     0.209 HD
ENDBRANCH  28  31
ENDBRANCH  26  28
BRANCH  26  33
ATOM     33  O7  KO1 d          -6.570   0.594  64.229  0.00  0.00    -0.391 OA
ATOM     34  H6  KO1 d          -5.755   0.788  63.780  0.00  0.00     0.210 HD
ENDBRANCH  26  33
ENDBRANCH  15  26
BRANCH  16  35
ATOM     35  O5  KO1 d          -9.525  -0.074  65.185  0.00  0.00    -0.390 OA
ATOM     36  H8  KO1 d          -9.570  -1.014  65.057  0.00  0.00     0.210 HD
ENDBRANCH  16  35
BRANCH  18  37
ATOM     37  O4  KO1 d          -9.713  -1.017  67.819  0.00  0.00    -0.390 OA
ATOM     38  H10 KO1 d         -10.585  -0.899  68.176  0.00  0.00     0.210 HD
ENDBRANCH  18  37
BRANCH  20  39
ATOM     39  O3  KO1 d         -11.348   1.229  66.961  0.00  0.00    -0.387 OA
ATOM     40  H12 KO1 d         -12.112   1.534  67.437  0.00  0.00     0.210 HD
ENDBRANCH  20  39
ENDBRANCH  12  13
ENDBRANCH   3  12
BRANCH   4  41
ATOM     41  O5  KO1 d          -6.083   2.786  69.481  0.00  0.00    -0.390 OA
ATOM     42  H17 KO1 d          -5.468   2.848  70.202  0.00  0.00     0.210 HD
ENDBRANCH   4  41
BRANCH   1  43
ATOM     43  C1  KO1 d          -8.679   4.437  72.937  0.00  0.00     0.239 C 
ATOM     44  O1A KO1 d          -9.714   5.156  72.889  0.00  0.00    -0.644 OA
ATOM     45  O1B KO1 d          -7.604   4.749  73.550  0.00  0.00    -0.644 OA
ENDBRANCH   1  43
BRANCH   1  46
ATOM     46  O2  KO1 d          -9.778   2.204  72.688  0.00  0.00    -0.343 OA
BRANCH  46  47
ATOM     47  C9  KO1 d         -10.174   0.965  73.182  0.00  0.00     0.038 C 
ATOM     48  H24 KO1 d         -11.243   1.076  73.417  0.00  0.00     0.080 H 
ATOM     49  H25 KO1 d          -9.605   0.831  74.114  0.00  0.00     0.080 H 
BRANCH  47  50
ATOM     50  C10 KO1 d         -10.069  -0.270  72.503  0.00  0.00    -0.089 C 
ATOM     51  C11 KO1 d         -10.557  -0.487  71.204  0.00  0.00    -0.123 C 
ATOM     52  H27 KO1 d         -10.445  -1.464  70.736  0.00  0.00     0.066 H 
ATOM     53  H28 KO1 d         -11.048   0.321  70.664  0.00  0.00     0.066 H 
ATOM     54  H26 KO1 d          -9.584  -1.100  73.015  0.00  0.00     0.078 H 
ENDBRANCH  47  50
ENDBRANCH  46  47
ENDBRANCH   1  46
BRANCH   5  55
ATOM     55  C7  KO1 d          -5.666   0.727  71.644  0.00  0.00     0.083 C 
ATOM     56  H19 KO1 d          -5.758   0.268  72.640  0.00  0.00     0.090 H 
BRANCH  55  57
ATOM     57  O7  KO1 d          -4.669   1.770  71.733  0.00  0.00    -0.391 OA
ATOM     58  H20 KO1 d          -4.153   1.646  72.521  0.00  0.00     0.210 HD
ENDBRANCH  55  57
BRANCH  55  59
ATOM     59  C8  KO1 d          -5.180  -0.389  70.672  0.00  0.00     0.043 C 
ATOM     60  H21 KO1 d          -4.082  -0.434  70.705  0.00  0.00     0.078 H 
ATOM     61  H22 KO1 d          -5.506  -0.137  69.652  0.00  0.00     0.078 H 
BRANCH  59  62
ATOM     62  O8  KO1 d          -5.712  -1.692  71.023  0.00  0.00    -0.398 OA
ATOM     63  H23 KO1 d          -5.071  -2.361  70.816  0.00  0.00     0.209 HD
ENDBRANCH  59  62
ENDBRANCH  55  59
ENDBRANCH   5  55
TORSDOF 19
ENDMDL
MODEL 6
REMARK VINA RESULT:      -4.2      1.987      6.559
REMARK  19 active torsions:
REMARK  status: ('A' for Active; 'I' for Inactive)
REMARK    1  A    between atoms: C2_4  and  C1_2 
REMARK    2  A    between atoms: O2_17  and  C2_4 
REMARK    3  A    between atoms: C6_6  and  C7_7 
REMARK    4  A    between atoms: C7_7  and  C8_8 
REMARK    5  A    between atoms: C7_7  and  O7_10 
REMARK    6  A    between atoms: C8_8  and  O8_9 
REMARK    7  A    between atoms: C5_11  and  O5_12 
REMARK    8  A    between atoms: C4_13  and  O4_14 
REMARK    9  A    between atoms: C3_15  and  O3_16 
REMARK   10  A    between atoms: C4_23  and  O2_17 
REMARK   11  A    between atoms: C2_21  and  C1_18 
REMARK   12  A    between atoms: C2_21  and  O2_32 
REMARK   13  A    between atoms: C5_24  and  O5_25 
REMARK   14  A    between atoms: C6_26  and  C7_28 
REMARK   15  A    between atoms: C7_28  and  O7_29 
REMARK   16  A    between atoms: C7_28  and  C8_30 
REMARK   17  A    between atoms: C8_30  and  O8_31 
REMARK   18  A    between atoms: O2_32  and  C9_33 
REMARK   19  A    between atoms: C9_33  and  C10_34 
ROOT
ATOM      1  C2  KO1 d          -9.136   3.180  67.827  0.00  0.00     0.259 C 
ATOM      2  C3  KO1 d          -8.536   2.078  68.757  0.00  0.00     0.024 C 
ATOM      3  C4  KO1 d          -7.090   1.632  68.422  0.00  0.00     0.075 C 
ATOM      4  C5  KO1 d          -6.818   1.305  66.931  0.00  0.00     0.088 C 
ATOM      5  C6  KO1 d          -7.307   2.521  66.085  0.00  0.00     0.096 C 
ATOM      6  O6  KO1 d          -8.684   2.936  66.463  0.00  0.00    -0.336 OA
ATOM      7  H13 KO1 d          -9.186   1.193  68.694  0.00  0.00     0.045 H 
ATOM      8  H14 KO1 d          -8.541   2.465  69.787  0.00  0.00     0.045 H 
ATOM      9  H15 KO1 d          -6.428   2.457  68.724  0.00  0.00     0.087 H 
ATOM     10  H16 KO1 d          -5.733   1.203  66.787  0.00  0.00     0.091 H 
ATOM     11  H18 KO1 d          -6.649   3.364  66.342  0.00  0.00     0.091 H 
ENDROOT
BRANCH   3  12
ATOM     12  O2  KO1 d          -6.683   0.415  69.124  0.00  0.00    -0.336 OA
BRANCH  12  13
ATOM     13  C2  KO1 d          -5.802   0.502  70.298  0.00  0.00     0.286 C 
ATOM     14  O6  KO1 d          -6.691   0.788  71.543  0.00  0.00    -0.334 OA
ATOM     15  C6  KO1 d          -7.805  -0.230  71.611  0.00  0.00     0.096 C 
ATOM     16  C5  KO1 d          -7.198  -1.612  71.865  0.00  0.00     0.090 C 
ATOM     17  H1  KO1 d          -8.361  -0.267  70.662  0.00  0.00     0.091 H 
ATOM     18  C4  KO1 d          -6.267  -1.974  70.676  0.00  0.00     0.093 C 
ATOM     19  H7  KO1 d          -7.999  -2.361  71.954  0.00  0.00     0.091 H 
ATOM     20  C3  KO1 d          -5.155  -0.918  70.397  0.00  0.00     0.127 C 
ATOM     21  H9  KO1 d          -6.888  -2.055  69.771  0.00  0.00     0.091 H 
ATOM     22  H11 KO1 d          -4.635  -1.185  69.465  0.00  0.00     0.096 H 
BRANCH  13  23
ATOM     23  C1  KO1 d          -4.683   1.569  70.279  0.00  0.00     0.241 C 
ATOM     24  OA1 KO1 d          -4.273   2.026  69.178  0.00  0.00    -0.644 OA
ATOM     25  O1B KO1 d          -4.224   1.963  71.352  0.00  0.00    -0.644 OA
ENDBRANCH  13  23
BRANCH  15  26
ATOM     26  C7  KO1 d          -8.732   0.327  72.732  0.00  0.00     0.083 C 
ATOM     27  H2  KO1 d          -8.108   0.746  73.534  0.00  0.00     0.090 H 
BRANCH  26  28
ATOM     28  C8  KO1 d          -9.654   1.465  72.249  0.00  0.00     0.043 C 
ATOM     29  H3  KO1 d          -9.086   2.262  71.746  0.00  0.00     0.078 H 
ATOM     30  H4  KO1 d         -10.235   1.896  73.077  0.00  0.00     0.078 H 
BRANCH  28  31
ATOM     31  O8  KO1 d         -10.497   0.745  71.322  0.00  0.00    -0.398 OA
ATOM     32  H5  KO1 d         -10.456   1.161  70.469  0.00  0.00     0.209 HD
ENDBRANCH  28  31
ENDBRANCH  26  28
BRANCH  26  33
ATOM     33  O7  KO1 d          -9.392  -0.826  73.235  0.00  0.00    -0.391 OA
ATOM     34  H6  KO1 d          -8.884  -1.600  73.019  0.00  0.00     0.210 HD
ENDBRANCH  26  33
ENDBRANCH  15  26
BRANCH  16  35
ATOM     35  O5  KO1 d          -6.425  -1.580  73.078  0.00  0.00    -0.390 OA
ATOM     36  H8  KO1 d          -6.025  -2.431  73.219  0.00  0.00     0.210 HD
ENDBRANCH  16  35
BRANCH  18  37
ATOM     37  O4  KO1 d          -5.676  -3.226  70.935  0.00  0.00    -0.390 OA
ATOM     38  H10 KO1 d          -5.183  -3.180  71.746  0.00  0.00     0.210 HD
ENDBRANCH  18  37
BRANCH  20  39
ATOM     39  O3  KO1 d          -4.224  -0.760  71.448  0.00  0.00    -0.387 OA
ATOM     40  H12 KO1 d          -4.163   0.160  71.680  0.00  0.00     0.210 HD
ENDBRANCH  20  39
ENDBRANCH  12  13
ENDBRANCH   3  12
BRANCH   4  41
ATOM     41  O5  KO1 d          -7.431   0.038  66.543  0.00  0.00    -0.390 OA
ATOM     42  H17 KO1 d          -8.250   0.207  66.092  0.00  0.00     0.210 HD
ENDBRANCH   4  41
BRANCH   1  43
ATOM     43  C1  KO1 d         -10.686   3.016  67.935  0.00  0.00     0.239 C 
ATOM     44  O1A KO1 d         -11.203   3.484  68.986  0.00  0.00    -0.644 OA
ATOM     45  O1B KO1 d         -11.333   2.425  67.006  0.00  0.00    -0.644 OA
ENDBRANCH   1  43
BRANCH   1  46
ATOM     46  O2  KO1 d          -8.702   4.527  68.127  0.00  0.00    -0.343 OA
BRANCH  46  47
ATOM     47  C9  KO1 d          -7.796   5.417  68.696  0.00  0.00     0.038 C 
ATOM     48  H24 KO1 d          -7.976   6.376  68.187  0.00  0.00     0.080 H 
ATOM     49  H25 KO1 d          -6.803   5.035  68.418  0.00  0.00     0.080 H 
BRANCH  47  50
ATOM     50  C10 KO1 d          -7.700   5.738  70.069  0.00  0.00    -0.089 C 
ATOM     51  C11 KO1 d          -8.813   5.896  70.911  0.00  0.00    -0.123 C 
ATOM     52  H27 KO1 d          -8.670   6.144  71.961  0.00  0.00     0.066 H 
ATOM     53  H28 KO1 d          -9.819   5.770  70.513  0.00  0.00     0.066 H 
ATOM     54  H26 KO1 d          -6.707   5.871  70.498  0.00  0.00     0.078 H 
ENDBRANCH  47  50
ENDBRANCH  46  47
ENDBRANCH   1  46
BRANCH   5  55
ATOM     55  C7  KO1 d          -7.138   2.289  64.559  0.00  0.00     0.083 C 
ATOM     56  H19 KO1 d          -6.510   1.393  64.441  0.00  0.00     0.090 H 
BRANCH  55  57
ATOM     57  O7  KO1 d          -6.442   3.395  63.940  0.00  0.00    -0.391 OA
ATOM     58  H20 KO1 d          -5.567   3.460  64.303  0.00  0.00     0.210 HD
ENDBRANCH  55  57
BRANCH  55  59
ATOM     59  C8  KO1 d          -8.472   2.014  63.804  0.00  0.00     0.043 C 
ATOM     60  H21 KO1 d          -8.251   1.446  62.889  0.00  0.00     0.078 H 
ATOM     61  H22 KO1 d          -8.933   2.976  63.535  0.00  0.00     0.078 H 
BRANCH  59  62
ATOM     62  O8  KO1 d          -9.411   1.255  64.609  0.00  0.00    -0.398 OA
ATOM     63  H23 KO1 d         -10.294   1.558  64.433  0.00  0.00     0.209 HD
ENDBRANCH  59  62
ENDBRANCH  55  59
ENDBRANCH   5  55
TORSDOF 19
ENDMDL
MODEL 7
REMARK VINA RESULT:      -3.9      1.954      4.699
REMARK  19 active torsions:
REMARK  status: ('A' for Active; 'I' for Inactive)
REMARK    1  A    between atoms: C2_4  and  C1_2 
REMARK    2  A    between atoms: O2_17  and  C2_4 
REMARK    3  A    between atoms: C6_6  and  C7_7 
REMARK    4  A    between atoms: C7_7  and  C8_8 
REMARK    5  A    between atoms: C7_7  and  O7_10 
REMARK    6  A    between atoms: C8_8  and  O8_9 
REMARK    7  A    between atoms: C5_11  and  O5_12 
REMARK    8  A    between atoms: C4_13  and  O4_14 
REMARK    9  A    between atoms: C3_15  and  O3_16 
REMARK   10  A    between atoms: C4_23  and  O2_17 
REMARK   11  A    between atoms: C2_21  and  C1_18 
REMARK   12  A    between atoms: C2_21  and  O2_32 
REMARK   13  A    between atoms: C5_24  and  O5_25 
REMARK   14  A    between atoms: C6_26  and  C7_28 
REMARK   15  A    between atoms: C7_28  and  O7_29 
REMARK   16  A    between atoms: C7_28  and  C8_30 
REMARK   17  A    between atoms: C8_30  and  O8_31 
REMARK   18  A    between atoms: O2_32  and  C9_33 
REMARK   19  A    between atoms: C9_33  and  C10_34 
ROOT
ATOM      1  C2  KO1 d          -9.763   0.920  71.224  0.00  0.00     0.259 C 
ATOM      2  C3  KO1 d          -9.649   2.350  70.611  0.00  0.00     0.024 C 
ATOM      3  C4  KO1 d          -8.649   2.499  69.436  0.00  0.00     0.075 C 
ATOM      4  C5  KO1 d          -7.244   1.886  69.671  0.00  0.00     0.088 C 
ATOM      5  C6  KO1 d          -7.446   0.411  70.135  0.00  0.00     0.096 C 
ATOM      6  O6  KO1 d          -8.438   0.311  71.238  0.00  0.00    -0.336 OA
ATOM      7  H13 KO1 d          -9.336   3.037  71.411  0.00  0.00     0.045 H 
ATOM      8  H14 KO1 d         -10.645   2.642  70.246  0.00  0.00     0.045 H 
ATOM      9  H15 KO1 d          -9.106   2.002  68.568  0.00  0.00     0.087 H 
ATOM     10  H16 KO1 d          -6.704   1.873  68.713  0.00  0.00     0.091 H 
ATOM     11  H18 KO1 d          -7.880  -0.128  69.279  0.00  0.00     0.091 H 
ENDROOT
BRANCH   3  12
ATOM     12  O2  KO1 d          -8.366   3.892  69.091  0.00  0.00    -0.336 OA
BRANCH  12  13
ATOM     13  C2  KO1 d          -7.582   4.207  67.888  0.00  0.00     0.286 C 
ATOM     14  O6  KO1 d          -7.639   2.971  66.943  0.00  0.00    -0.334 OA
ATOM     15  C6  KO1 d          -9.080   2.572  66.724  0.00  0.00     0.096 C 
ATOM     16  C5  KO1 d          -9.792   3.690  65.959  0.00  0.00     0.090 C 
ATOM     17  H1  KO1 d          -9.597   2.426  67.684  0.00  0.00     0.091 H 
ATOM     18  C4  KO1 d          -9.763   4.981  66.821  0.00  0.00     0.093 C 
ATOM     19  H7  KO1 d         -10.834   3.399  65.758  0.00  0.00     0.091 H 
ATOM     20  C3  KO1 d          -8.330   5.424  67.251  0.00  0.00     0.127 C 
ATOM     21  H9  KO1 d         -10.344   4.792  67.735  0.00  0.00     0.091 H 
ATOM     22  H11 KO1 d          -8.413   6.258  67.962  0.00  0.00     0.096 H 
BRANCH  13  23
ATOM     23  C1  KO1 d          -6.091   4.571  68.076  0.00  0.00     0.241 C 
ATOM     24  OA1 KO1 d          -5.216   4.014  67.360  0.00  0.00    -0.644 OA
ATOM     25  O1B KO1 d          -5.791   5.416  68.921  0.00  0.00    -0.644 OA
ENDBRANCH  13  23
BRANCH  15  26
ATOM     26  C7  KO1 d          -8.964   1.204  65.987  0.00  0.00     0.083 C 
ATOM     27  H2  KO1 d          -8.972   1.383  64.902  0.00  0.00     0.090 H 
BRANCH  26  28
ATOM     28  C8  KO1 d          -7.653   0.454  66.300  0.00  0.00     0.043 C 
ATOM     29  H3  KO1 d          -7.816  -0.631  66.386  0.00  0.00     0.078 H 
ATOM     30  H4  KO1 d          -7.181   0.828  67.220  0.00  0.00     0.078 H 
BRANCH  28  31
ATOM     31  O8  KO1 d          -6.874   0.785  65.128  0.00  0.00    -0.398 OA
ATOM     32  H5  KO1 d          -6.070   1.214  65.395  0.00  0.00     0.209 HD
ENDBRANCH  28  31
ENDBRANCH  26  28
BRANCH  26  33
ATOM     33  O7  KO1 d         -10.160   0.524  66.337  0.00  0.00    -0.391 OA
ATOM     34  H6  KO1 d         -10.793   0.615  65.633  0.00  0.00     0.210 HD
ENDBRANCH  26  33
ENDBRANCH  15  26
BRANCH  16  35
ATOM     35  O5  KO1 d          -9.108   3.933  64.717  0.00  0.00    -0.390 OA
ATOM     36  H8  KO1 d          -8.880   3.103  64.315  0.00  0.00     0.210 HD
ENDBRANCH  16  35
BRANCH  18  37
ATOM     37  O4  KO1 d         -10.379   6.018  66.095  0.00  0.00    -0.390 OA
ATOM     38  H10 KO1 d         -10.253   6.842  66.552  0.00  0.00     0.210 HD
ENDBRANCH  18  37
BRANCH  20  39
ATOM     39  O3  KO1 d          -7.483   5.779  66.177  0.00  0.00    -0.387 OA
ATOM     40  H12 KO1 d          -7.891   5.526  65.356  0.00  0.00     0.210 HD
ENDBRANCH  20  39
ENDBRANCH  12  13
ENDBRANCH   3  12
BRANCH   4  41
ATOM     41  O5  KO1 d          -6.460   2.690  70.603  0.00  0.00    -0.390 OA
ATOM     42  H17 KO1 d          -6.968   3.445  70.875  0.00  0.00     0.210 HD
ENDBRANCH   4  41
BRANCH   1  43
ATOM     43  C1  KO1 d         -10.289   1.131  72.680  0.00  0.00     0.239 C 
ATOM     44  O1A KO1 d          -9.586   1.893  73.399  0.00  0.00    -0.644 OA
ATOM     45  O1B KO1 d         -11.348   0.536  73.070  0.00  0.00    -0.644 OA
ENDBRANCH   1  43
BRANCH   1  46
ATOM     46  O2  KO1 d         -10.586   0.000  70.469  0.00  0.00    -0.343 OA
BRANCH  46  47
ATOM     47  C9  KO1 d         -10.860  -1.276  69.987  0.00  0.00     0.038 C 
ATOM     48  H24 KO1 d          -9.931  -1.605  69.498  0.00  0.00     0.080 H 
ATOM     49  H25 KO1 d         -11.644  -1.136  69.229  0.00  0.00     0.080 H 
BRANCH  47  50
ATOM     50  C10 KO1 d         -11.284  -2.381  70.760  0.00  0.00    -0.089 C 
ATOM     51  C11 KO1 d         -10.841  -2.631  72.069  0.00  0.00    -0.123 C 
ATOM     52  H27 KO1 d         -11.207  -3.502  72.611  0.00  0.00     0.066 H 
ATOM     53  H28 KO1 d         -10.131  -1.954  72.543  0.00  0.00     0.066 H 
ATOM     54  H26 KO1 d         -11.994  -3.078  70.316  0.00  0.00     0.078 H 
ENDBRANCH  47  50
ENDBRANCH  46  47
ENDBRANCH   1  46
BRANCH   5  55
ATOM     55  C7  KO1 d          -6.103  -0.300  70.456  0.00  0.00     0.083 C 
ATOM     56  H19 KO1 d          -5.959  -0.229  71.545  0.00  0.00     0.090 H 
BRANCH  55  57
ATOM     57  O7  KO1 d          -4.993   0.374  69.822  0.00  0.00    -0.391 OA
ATOM     58  H20 KO1 d          -5.134   1.313  69.855  0.00  0.00     0.210 HD
ENDBRANCH  55  57
BRANCH  55  59
ATOM     59  C8  KO1 d          -6.081  -1.815  70.092  0.00  0.00     0.043 C 
ATOM     60  H21 KO1 d          -7.066  -2.247  70.317  0.00  0.00     0.078 H 
ATOM     61  H22 KO1 d          -5.313  -2.315  70.701  0.00  0.00     0.078 H 
BRANCH  59  62
ATOM     62  O8  KO1 d          -5.782  -2.036  68.689  0.00  0.00    -0.398 OA
ATOM     63  H23 KO1 d          -5.618  -1.202  68.266  0.00  0.00     0.209 HD
ENDBRANCH  59  62
ENDBRANCH  55  59
ENDBRANCH   5  55
TORSDOF 19
ENDMDL
MODEL 8
REMARK VINA RESULT:      -3.8      1.710      6.506
REMARK  19 active torsions:
REMARK  status: ('A' for Active; 'I' for Inactive)
REMARK    1  A    between atoms: C2_4  and  C1_2 
REMARK    2  A    between atoms: O2_17  and  C2_4 
REMARK    3  A    between atoms: C6_6  and  C7_7 
REMARK    4  A    between atoms: C7_7  and  C8_8 
REMARK    5  A    between atoms: C7_7  and  O7_10 
REMARK    6  A    between atoms: C8_8  and  O8_9 
REMARK    7  A    between atoms: C5_11  and  O5_12 
REMARK    8  A    between atoms: C4_13  and  O4_14 
REMARK    9  A    between atoms: C3_15  and  O3_16 
REMARK   10  A    between atoms: C4_23  and  O2_17 
REMARK   11  A    between atoms: C2_21  and  C1_18 
REMARK   12  A    between atoms: C2_21  and  O2_32 
REMARK   13  A    between atoms: C5_24  and  O5_25 
REMARK   14  A    between atoms: C6_26  and  C7_28 
REMARK   15  A    between atoms: C7_28  and  O7_29 
REMARK   16  A    between atoms: C7_28  and  C8_30 
REMARK   17  A    between atoms: C8_30  and  O8_31 
REMARK   18  A    between atoms: O2_32  and  C9_33 
REMARK   19  A    between atoms: C9_33  and  C10_34 
ROOT
ATOM      1  C2  KO1 d          -9.554   3.647  68.408  0.00  0.00     0.259 C 
ATOM      2  C3  KO1 d          -8.670   2.888  69.446  0.00  0.00     0.024 C 
ATOM      3  C4  KO1 d          -7.165   3.259  69.445  0.00  0.00     0.075 C 
ATOM      4  C5  KO1 d          -6.483   3.285  68.052  0.00  0.00     0.088 C 
ATOM      5  C6  KO1 d          -7.349   4.188  67.121  0.00  0.00     0.096 C 
ATOM      6  O6  KO1 d          -8.788   3.819  67.180  0.00  0.00    -0.336 OA
ATOM      7  H13 KO1 d          -8.753   1.811  69.237  0.00  0.00     0.045 H 
ATOM      8  H14 KO1 d          -9.069   3.098  70.449  0.00  0.00     0.045 H 
ATOM      9  H15 KO1 d          -7.087   4.262  69.890  0.00  0.00     0.087 H 
ATOM     10  H16 KO1 d          -5.493   3.751  68.156  0.00  0.00     0.091 H 
ATOM     11  H18 KO1 d          -7.275   5.210  67.521  0.00  0.00     0.091 H 
ENDROOT
BRANCH   3  12
ATOM     12  O2  KO1 d          -6.339   2.331  70.218  0.00  0.00    -0.336 OA
BRANCH  12  13
ATOM     13  C2  KO1 d          -6.949   1.508  71.273  0.00  0.00     0.286 C 
ATOM     14  O6  KO1 d          -8.000   0.575  70.604  0.00  0.00    -0.334 OA
ATOM     15  C6  KO1 d          -7.356  -0.168  69.457  0.00  0.00     0.096 C 
ATOM     16  C5  KO1 d          -6.287  -1.110  70.015  0.00  0.00     0.090 C 
ATOM     17  H1  KO1 d          -6.870   0.531  68.760  0.00  0.00     0.091 H 
ATOM     18  C4  KO1 d          -5.199  -0.263  70.729  0.00  0.00     0.093 C 
ATOM     19  H7  KO1 d          -5.833  -1.687  69.195  0.00  0.00     0.091 H 
ATOM     20  C3  KO1 d          -5.756   0.674  71.845  0.00  0.00     0.127 C 
ATOM     21  H9  KO1 d          -4.711   0.369  69.973  0.00  0.00     0.091 H 
ATOM     22  H11 KO1 d          -4.946   1.328  72.199  0.00  0.00     0.096 H 
BRANCH  13  23
ATOM     23  C1  KO1 d          -7.659   2.240  72.434  0.00  0.00     0.241 C 
ATOM     24  OA1 KO1 d          -8.837   1.920  72.748  0.00  0.00    -0.644 OA
ATOM     25  O1B KO1 d          -7.046   3.119  73.043  0.00  0.00    -0.644 OA
ENDBRANCH  13  23
BRANCH  15  26
ATOM     26  C7  KO1 d          -8.564  -0.848  68.747  0.00  0.00     0.083 C 
ATOM     27  H2  KO1 d          -8.358  -1.923  68.644  0.00  0.00     0.090 H 
BRANCH  26  28
ATOM     28  C8  KO1 d          -9.882  -0.727  69.540  0.00  0.00     0.043 C 
ATOM     29  H3  KO1 d         -10.756  -0.967  68.916  0.00  0.00     0.078 H 
ATOM     30  H4  KO1 d         -10.005   0.277  69.971  0.00  0.00     0.078 H 
BRANCH  28  31
ATOM     31  O8  KO1 d          -9.667  -1.724  70.563  0.00  0.00    -0.398 OA
ATOM     32  H5  KO1 d          -9.756  -2.591  70.182  0.00  0.00     0.209 HD
ENDBRANCH  28  31
ENDBRANCH  26  28
BRANCH  26  33
ATOM     33  O7  KO1 d          -8.571  -0.268  67.451  0.00  0.00    -0.391 OA
ATOM     34  H6  KO1 d          -8.251   0.625  67.503  0.00  0.00     0.210 HD
ENDBRANCH  26  33
ENDBRANCH  15  26
BRANCH  16  35
ATOM     35  O5  KO1 d          -6.888  -2.007  70.966  0.00  0.00    -0.390 OA
ATOM     36  H8  KO1 d          -7.821  -1.837  71.014  0.00  0.00     0.210 HD
ENDBRANCH  16  35
BRANCH  18  37
ATOM     37  O4  KO1 d          -4.241  -1.136  71.280  0.00  0.00    -0.390 OA
ATOM     38  H10 KO1 d          -3.874  -0.746  72.065  0.00  0.00     0.210 HD
ENDBRANCH  18  37
BRANCH  20  39
ATOM     39  O3  KO1 d          -6.348  -0.004  72.934  0.00  0.00    -0.387 OA
ATOM     40  H12 KO1 d          -6.640   0.630  73.579  0.00  0.00     0.210 HD
ENDBRANCH  20  39
ENDBRANCH  12  13
ENDBRANCH   3  12
BRANCH   4  41
ATOM     41  O5  KO1 d          -6.277   1.936  67.533  0.00  0.00    -0.390 OA
ATOM     42  H17 KO1 d          -5.740   1.442  68.142  0.00  0.00     0.210 HD
ENDBRANCH   4  41
BRANCH   1  43
ATOM     43  C1  KO1 d         -10.792   2.726  68.163  0.00  0.00     0.239 C 
ATOM     44  O1A KO1 d         -11.348   2.286  69.207  0.00  0.00    -0.644 OA
ATOM     45  O1B KO1 d         -11.161   2.453  66.972  0.00  0.00    -0.644 OA
ENDBRANCH   1  43
BRANCH   1  46
ATOM     46  O2  KO1 d          -9.933   4.987  68.800  0.00  0.00    -0.343 OA
BRANCH  46  47
ATOM     47  C9  KO1 d         -10.715   5.862  69.547  0.00  0.00     0.038 C 
ATOM     48  H24 KO1 d         -11.744   5.705  69.192  0.00  0.00     0.080 H 
ATOM     49  H25 KO1 d         -10.377   6.869  69.259  0.00  0.00     0.080 H 
BRANCH  47  50
ATOM     50  C10 KO1 d         -10.810   5.894  70.957  0.00  0.00    -0.089 C 
ATOM     51  C11 KO1 d          -9.909   5.238  71.812  0.00  0.00    -0.123 C 
ATOM     52  H27 KO1 d         -10.038   5.301  72.891  0.00  0.00     0.066 H 
ATOM     53  H28 KO1 d          -9.081   4.666  71.395  0.00  0.00     0.066 H 
ATOM     54  H26 KO1 d         -11.627   6.457  71.406  0.00  0.00     0.078 H 
ENDBRANCH  47  50
ENDBRANCH  46  47
ENDBRANCH   1  46
BRANCH   5  55
ATOM     55  C7  KO1 d          -6.795   4.250  65.671  0.00  0.00     0.083 C 
ATOM     56  H19 KO1 d          -5.699   4.177  65.746  0.00  0.00     0.090 H 
BRANCH  55  57
ATOM     57  O7  KO1 d          -7.107   5.518  65.050  0.00  0.00    -0.391 OA
ATOM     58  H20 KO1 d          -7.340   5.374  64.140  0.00  0.00     0.210 HD
ENDBRANCH  55  57
BRANCH  55  59
ATOM     59  C8  KO1 d          -7.268   3.081  64.757  0.00  0.00     0.043 C 
ATOM     60  H21 KO1 d          -8.061   3.452  64.091  0.00  0.00     0.078 H 
ATOM     61  H22 KO1 d          -7.669   2.276  65.390  0.00  0.00     0.078 H 
BRANCH  59  62
ATOM     62  O8  KO1 d          -6.189   2.547  63.948  0.00  0.00    -0.398 OA
ATOM     63  H23 KO1 d          -5.536   3.222  63.807  0.00  0.00     0.209 HD
ENDBRANCH  59  62
ENDBRANCH  55  59
ENDBRANCH   5  55
TORSDOF 19
ENDMDL
MODEL 9
REMARK VINA RESULT:      -3.8      2.043      4.607
REMARK  19 active torsions:
REMARK  status: ('A' for Active; 'I' for Inactive)
REMARK    1  A    between atoms: C2_4  and  C1_2 
REMARK    2  A    between atoms: O2_17  and  C2_4 
REMARK    3  A    between atoms: C6_6  and  C7_7 
REMARK    4  A    between atoms: C7_7  and  C8_8 
REMARK    5  A    between atoms: C7_7  and  O7_10 
REMARK    6  A    between atoms: C8_8  and  O8_9 
REMARK    7  A    between atoms: C5_11  and  O5_12 
REMARK    8  A    between atoms: C4_13  and  O4_14 
REMARK    9  A    between atoms: C3_15  and  O3_16 
REMARK   10  A    between atoms: C4_23  and  O2_17 
REMARK   11  A    between atoms: C2_21  and  C1_18 
REMARK   12  A    between atoms: C2_21  and  O2_32 
REMARK   13  A    between atoms: C5_24  and  O5_25 
REMARK   14  A    between atoms: C6_26  and  C7_28 
REMARK   15  A    between atoms: C7_28  and  O7_29 
REMARK   16  A    between atoms: C7_28  and  C8_30 
REMARK   17  A    between atoms: C8_30  and  O8_31 
REMARK   18  A    between atoms: O2_32  and  C9_33 
REMARK   19  A    between atoms: C9_33  and  C10_34 
ROOT
ATOM      1  C2  KO1 d          -9.002   1.024  71.453  0.00  0.00     0.259 C 
ATOM      2  C3  KO1 d          -9.367   1.219  69.948  0.00  0.00     0.024 C 
ATOM      3  C4  KO1 d          -8.890   2.548  69.308  0.00  0.00     0.075 C 
ATOM      4  C5  KO1 d          -9.200   3.831  70.122  0.00  0.00     0.088 C 
ATOM      5  C6  KO1 d          -8.667   3.610  71.571  0.00  0.00     0.096 C 
ATOM      6  O6  KO1 d          -9.119   2.309  72.131  0.00  0.00    -0.336 OA
ATOM      7  H13 KO1 d         -10.462   1.173  69.857  0.00  0.00     0.045 H 
ATOM      8  H14 KO1 d          -8.917   0.390  69.380  0.00  0.00     0.045 H 
ATOM      9  H15 KO1 d          -7.800   2.467  69.187  0.00  0.00     0.087 H 
ATOM     10  H16 KO1 d          -8.645   4.670  69.677  0.00  0.00     0.091 H 
ATOM     11  H18 KO1 d          -7.571   3.549  71.493  0.00  0.00     0.091 H 
ENDROOT
BRANCH   3  12
ATOM     12  O2  KO1 d          -9.495   2.811  68.002  0.00  0.00    -0.336 OA
BRANCH  12  13
ATOM     13  C2  KO1 d          -8.771   3.610  67.003  0.00  0.00     0.286 C 
ATOM     14  O6  KO1 d          -7.272   3.652  67.422  0.00  0.00    -0.334 OA
ATOM     15  C6  KO1 d          -6.773   2.244  67.650  0.00  0.00     0.096 C 
ATOM     16  C5  KO1 d          -6.793   1.490  66.318  0.00  0.00     0.090 C 
ATOM     17  H1  KO1 d          -7.421   1.709  68.359  0.00  0.00     0.091 H 
ATOM     18  C4  KO1 d          -8.257   1.419  65.807  0.00  0.00     0.093 C 
ATOM     19  H7  KO1 d          -6.397   0.473  66.460  0.00  0.00     0.091 H 
ATOM     20  C3  KO1 d          -8.949   2.810  65.671  0.00  0.00     0.127 C 
ATOM     21  H9  KO1 d          -8.839   0.823  66.525  0.00  0.00     0.091 H 
ATOM     22  H11 KO1 d         -10.012   2.658  65.437  0.00  0.00     0.096 H 
BRANCH  13  23
ATOM     23  C1  KO1 d          -9.226   5.070  66.784  0.00  0.00     0.241 C 
ATOM     24  OA1 KO1 d          -8.438   6.018  67.049  0.00  0.00    -0.644 OA
ATOM     25  O1B KO1 d         -10.356   5.277  66.336  0.00  0.00    -0.644 OA
ENDBRANCH  13  23
BRANCH  15  26
ATOM     26  C7  KO1 d          -5.370   2.461  68.293  0.00  0.00     0.083 C 
ATOM     27  H2  KO1 d          -4.702   1.649  67.972  0.00  0.00     0.090 H 
BRANCH  26  28
ATOM     28  C8  KO1 d          -4.700   3.781  67.859  0.00  0.00     0.043 C 
ATOM     29  H3  KO1 d          -5.108   4.150  66.907  0.00  0.00     0.078 H 
ATOM     30  H4  KO1 d          -3.609   3.672  67.772  0.00  0.00     0.078 H 
BRANCH  28  31
ATOM     31  O8  KO1 d          -5.064   4.637  68.964  0.00  0.00    -0.398 OA
ATOM     32  H5  KO1 d          -5.260   5.508  68.638  0.00  0.00     0.209 HD
ENDBRANCH  28  31
ENDBRANCH  26  28
BRANCH  26  33
ATOM     33  O7  KO1 d          -5.607   2.322  69.686  0.00  0.00    -0.391 OA
ATOM     34  H6  KO1 d          -5.054   2.931  70.162  0.00  0.00     0.210 HD
ENDBRANCH  26  33
ENDBRANCH  15  26
BRANCH  16  35
ATOM     35  O5  KO1 d          -5.988   2.195  65.356  0.00  0.00    -0.390 OA
ATOM     36  H8  KO1 d          -6.016   3.126  65.543  0.00  0.00     0.210 HD
ENDBRANCH  16  35
BRANCH  18  37
ATOM     37  O4  KO1 d          -8.265   0.764  64.560  0.00  0.00    -0.390 OA
ATOM     38  H10 KO1 d          -9.016   1.055  64.056  0.00  0.00     0.210 HD
ENDBRANCH  18  37
BRANCH  20  39
ATOM     39  O3  KO1 d          -8.355   3.666  64.716  0.00  0.00    -0.387 OA
ATOM     40  H12 KO1 d          -8.997   4.301  64.420  0.00  0.00     0.210 HD
ENDBRANCH  20  39
ENDBRANCH  12  13
ENDBRANCH   3  12
BRANCH   4  41
ATOM     41  O5  KO1 d         -10.619   4.169  70.066  0.00  0.00    -0.390 OA
ATOM     42  H17 KO1 d         -10.995   4.101  70.935  0.00  0.00     0.210 HD
ENDBRANCH   4  41
BRANCH   1  43
ATOM     43  C1  KO1 d         -10.051   0.008  72.007  0.00  0.00     0.239 C 
ATOM     44  O1A KO1 d         -10.176  -1.053  71.337  0.00  0.00    -0.644 OA
ATOM     45  O1B KO1 d         -10.722   0.290  73.056  0.00  0.00    -0.644 OA
ENDBRANCH   1  43
BRANCH   1  46
ATOM     46  O2  KO1 d          -7.641   0.598  71.696  0.00  0.00    -0.343 OA
BRANCH  46  47
ATOM     47  C9  KO1 d          -6.669  -0.395  71.765  0.00  0.00     0.038 C 
ATOM     48  H24 KO1 d          -6.935  -0.998  72.646  0.00  0.00     0.080 H 
ATOM     49  H25 KO1 d          -5.725   0.137  71.957  0.00  0.00     0.080 H 
BRANCH  47  50
ATOM     50  C10 KO1 d          -6.366  -1.332  70.751  0.00  0.00    -0.089 C 
ATOM     51  C11 KO1 d          -5.267  -1.214  69.886  0.00  0.00    -0.123 C 
ATOM     52  H27 KO1 d          -5.089  -1.971  69.124  0.00  0.00     0.066 H 
ATOM     53  H28 KO1 d          -4.592  -0.363  69.976  0.00  0.00     0.066 H 
ATOM     54  H26 KO1 d          -7.022  -2.194  70.634  0.00  0.00     0.078 H 
ENDBRANCH  47  50
ENDBRANCH  46  47
ENDBRANCH   1  46
BRANCH   5  55
ATOM     55  C7  KO1 d          -8.967   4.814  72.505  0.00  0.00     0.083 C 
ATOM     56  H19 KO1 d          -9.318   5.635  71.862  0.00  0.00     0.090 H 
BRANCH  55  57
ATOM     57  O7  KO1 d          -7.769   5.263  73.175  0.00  0.00    -0.391 OA
ATOM     58  H20 KO1 d          -7.046   5.270  72.559  0.00  0.00     0.210 HD
ENDBRANCH  55  57
BRANCH  55  59
ATOM     59  C8  KO1 d         -10.089   4.543  73.551  0.00  0.00     0.043 C 
ATOM     60  H21 KO1 d         -10.309   5.480  74.085  0.00  0.00     0.078 H 
ATOM     61  H22 KO1 d          -9.732   3.789  74.268  0.00  0.00     0.078 H 
BRANCH  59  62
ATOM     62  O8  KO1 d         -11.310   4.060  72.933  0.00  0.00    -0.398 OA
ATOM     63  H23 KO1 d         -11.528   3.207  73.292  0.00  0.00     0.209 HD
ENDBRANCH  59  62
ENDBRANCH  55  59
ENDBRANCH   5  55
TORSDOF 19
ENDMDL
MODEL 10
REMARK VINA RESULT:      -3.6      1.951      6.381
REMARK  19 active torsions:
REMARK  status: ('A' for Active; 'I' for Inactive)
REMARK    1  A    between atoms: C2_4  and  C1_2 
REMARK    2  A    between atoms: O2_17  and  C2_4 
REMARK    3  A    between atoms: C6_6  and  C7_7 
REMARK    4  A    between atoms: C7_7  and  C8_8 
REMARK    5  A    between atoms: C7_7  and  O7_10 
REMARK    6  A    between atoms: C8_8  and  O8_9 
REMARK    7  A    between atoms: C5_11  and  O5_12 
REMARK    8  A    between atoms: C4_13  and  O4_14 
REMARK    9  A    between atoms: C3_15  and  O3_16 
REMARK   10  A    between atoms: C4_23  and  O2_17 
REMARK   11  A    between atoms: C2_21  and  C1_18 
REMARK   12  A    between atoms: C2_21  and  O2_32 
REMARK   13  A    between atoms: C5_24  and  O5_25 
REMARK   14  A    between atoms: C6_26  and  C7_28 
REMARK   15  A    between atoms: C7_28  and  O7_29 
REMARK   16  A    between atoms: C7_28  and  C8_30 
REMARK   17  A    between atoms: C8_30  and  O8_31 
REMARK   18  A    between atoms: O2_32  and  C9_33 
REMARK   19  A    between atoms: C9_33  and  C10_34 
ROOT
ATOM      1  C2  KO1 d          -8.216   4.307  69.607  0.00  0.00     0.259 C 
ATOM      2  C3  KO1 d          -8.887   3.089  70.316  0.00  0.00     0.024 C 
ATOM      3  C4  KO1 d          -9.205   1.874  69.408  0.00  0.00     0.075 C 
ATOM      4  C5  KO1 d          -9.928   2.205  68.076  0.00  0.00     0.088 C 
ATOM      5  C6  KO1 d          -9.108   3.322  67.360  0.00  0.00     0.096 C 
ATOM      6  O6  KO1 d          -8.796   4.450  68.277  0.00  0.00    -0.336 OA
ATOM      7  H13 KO1 d          -9.832   3.436  70.760  0.00  0.00     0.045 H 
ATOM      8  H14 KO1 d          -8.211   2.748  71.114  0.00  0.00     0.045 H 
ATOM      9  H15 KO1 d          -8.243   1.396  69.173  0.00  0.00     0.087 H 
ATOM     10  H16 KO1 d          -9.914   1.309  67.439  0.00  0.00     0.091 H 
ATOM     11  H18 KO1 d          -8.142   2.871  67.085  0.00  0.00     0.091 H 
ENDROOT
BRANCH   3  12
ATOM     12  O2  KO1 d         -10.082   0.891  70.044  0.00  0.00    -0.336 OA
BRANCH  12  13
ATOM     13  C2  KO1 d          -9.842  -0.546  69.843  0.00  0.00     0.286 C 
ATOM     14  O6  KO1 d          -8.320  -0.808  70.033  0.00  0.00    -0.334 OA
ATOM     15  C6  KO1 d          -7.870  -0.227  71.354  0.00  0.00     0.096 C 
ATOM     16  C5  KO1 d          -8.550  -0.995  72.489  0.00  0.00     0.090 C 
ATOM     17  H1  KO1 d          -8.156   0.832  71.434  0.00  0.00     0.091 H 
ATOM     18  C4  KO1 d         -10.086  -0.812  72.366  0.00  0.00     0.093 C 
ATOM     19  H7  KO1 d          -8.204  -0.609  73.460  0.00  0.00     0.091 H 
ATOM     20  C3  KO1 d         -10.666  -1.233  70.981  0.00  0.00     0.127 C 
ATOM     21  H9  KO1 d         -10.314   0.254  72.514  0.00  0.00     0.091 H 
ATOM     22  H11 KO1 d         -11.726  -0.946  70.935  0.00  0.00     0.096 H 
BRANCH  13  23
ATOM     23  C1  KO1 d         -10.246  -1.159  68.483  0.00  0.00     0.241 C 
ATOM     24  OA1 KO1 d          -9.446  -1.107  67.511  0.00  0.00    -0.644 OA
ATOM     25  O1B KO1 d         -11.348  -1.701  68.382  0.00  0.00    -0.644 OA
ENDBRANCH  13  23
BRANCH  15  26
ATOM     26  C7  KO1 d          -6.318  -0.340  71.284  0.00  0.00     0.083 C 
ATOM     27  H2  KO1 d          -6.042  -1.398  71.173  0.00  0.00     0.090 H 
BRANCH  26  28
ATOM     28  C8  KO1 d          -5.707   0.404  70.078  0.00  0.00     0.043 C 
ATOM     29  H3  KO1 d          -6.441   0.539  69.270  0.00  0.00     0.078 H 
ATOM     30  H4  KO1 d          -4.822  -0.117  69.686  0.00  0.00     0.078 H 
BRANCH  28  31
ATOM     31  O8  KO1 d          -5.356   1.663  70.696  0.00  0.00    -0.398 OA
ATOM     32  H5  KO1 d          -4.568   1.550  71.215  0.00  0.00     0.209 HD
ENDBRANCH  28  31
ENDBRANCH  26  28
BRANCH  26  33
ATOM     33  O7  KO1 d          -5.884   0.103  72.562  0.00  0.00    -0.391 OA
ATOM     34  H6  KO1 d          -5.009   0.467  72.490  0.00  0.00     0.210 HD
ENDBRANCH  26  33
ENDBRANCH  15  26
BRANCH  16  35
ATOM     35  O5  KO1 d          -8.230  -2.394  72.381  0.00  0.00    -0.390 OA
ATOM     36  H8  KO1 d          -8.943  -2.848  71.948  0.00  0.00     0.210 HD
ENDBRANCH  16  35
BRANCH  18  37
ATOM     37  O4  KO1 d         -10.710  -1.556  73.385  0.00  0.00    -0.390 OA
ATOM     38  H10 KO1 d         -11.429  -2.056  73.016  0.00  0.00     0.210 HD
ENDBRANCH  18  37
BRANCH  20  39
ATOM     39  O3  KO1 d         -10.519  -2.607  70.681  0.00  0.00    -0.387 OA
ATOM     40  H12 KO1 d         -11.310  -2.925  70.262  0.00  0.00     0.210 HD
ENDBRANCH  20  39
ENDBRANCH  12  13
ENDBRANCH   3  12
BRANCH   4  41
ATOM     41  O5  KO1 d         -11.326   2.559  68.302  0.00  0.00    -0.390 OA
ATOM     42  H17 KO1 d         -11.398   3.072  69.098  0.00  0.00     0.210 HD
ENDBRANCH   4  41
BRANCH   1  43
ATOM     43  C1  KO1 d          -8.556   5.546  70.495  0.00  0.00     0.239 C 
ATOM     44  O1A KO1 d          -7.587   6.018  71.150  0.00  0.00    -0.644 OA
ATOM     45  O1B KO1 d          -9.750   5.996  70.535  0.00  0.00    -0.644 OA
ENDBRANCH   1  43
BRANCH   1  46
ATOM     46  O2  KO1 d          -6.794   4.166  69.378  0.00  0.00    -0.343 OA
BRANCH  46  47
ATOM     47  C9  KO1 d          -5.663   4.347  68.588  0.00  0.00     0.038 C 
ATOM     48  H24 KO1 d          -4.824   3.978  69.196  0.00  0.00     0.080 H 
ATOM     49  H25 KO1 d          -5.572   5.436  68.460  0.00  0.00     0.080 H 
BRANCH  47  50
ATOM     50  C10 KO1 d          -5.455   3.804  67.300  0.00  0.00    -0.089 C 
ATOM     51  C11 KO1 d          -5.820   2.497  66.938  0.00  0.00    -0.123 C 
ATOM     52  H27 KO1 d          -5.632   2.139  65.928  0.00  0.00     0.066 H 
ATOM     53  H28 KO1 d          -6.291   1.841  67.670  0.00  0.00     0.066 H 
ATOM     54  H26 KO1 d          -4.986   4.435  66.545  0.00  0.00     0.078 H 
ENDBRANCH  47  50
ENDBRANCH  46  47
ENDBRANCH   1  46
BRANCH   5  55
ATOM     55  C7  KO1 d          -9.765   3.781  66.030  0.00  0.00     0.083 C 
ATOM     56  H19 KO1 d          -9.146   4.602  65.637  0.00  0.00     0.090 H 
BRANCH  55  57
ATOM     57  O7  KO1 d         -11.092   4.303  66.259  0.00  0.00    -0.391 OA
ATOM     58  H20 KO1 d         -11.664   4.034  65.550  0.00  0.00     0.210 HD
ENDBRANCH  55  57
BRANCH  55  59
ATOM     59  C8  KO1 d          -9.812   2.679  64.929  0.00  0.00     0.043 C 
ATOM     60  H21 KO1 d         -10.848   2.324  64.829  0.00  0.00     0.078 H 
ATOM     61  H22 KO1 d          -9.165   1.843  65.236  0.00  0.00     0.078 H 
BRANCH  59  62
ATOM     62  O8  KO1 d          -9.360   3.172  63.641  0.00  0.00    -0.398 OA
ATOM     63  H23 KO1 d         -10.098   3.534  63.166  0.00  0.00     0.209 HD
ENDBRANCH  59  62
ENDBRANCH  55  59
ENDBRANCH   5  55
TORSDOF 19
ENDMDL
