MODEL 1
REMARK VINA RESULT:      -7.7      0.000      0.000
REMARK  4 active torsions:
REMARK  status: ('A' for Active; 'I' for Inactive)
REMARK    1  A    between atoms: C2_2  and  N14_12 
REMARK    2  A    between atoms: C15_13  and  C5_5 
REMARK    3  A    between atoms: C16_15  and  C15_13 
REMARK    4  A    between atoms: C7_14  and  C16_15 
ROOT
ATOM      1  C15 V15 d          -1.507   3.119  11.188  0.00  0.00    -0.020 C 
ATOM      2  H10 V15 d          -0.995   3.247  12.153  0.00  0.00     0.042 H 
ATOM      3  H11 V15 d          -1.253   2.136  10.766  0.00  0.00     0.042 H 
ENDROOT
BRANCH   1   4
ATOM      4  C5  V15 d          -0.958   4.164  10.249  0.00  0.00     0.059 A 
ATOM      5  C4  V15 d          -1.731   4.921   9.401  0.00  0.00     0.007 A 
ATOM      6  C3  V15 d          -1.089   5.873   8.568  0.00  0.00     0.261 A 
ATOM      7  H2  V15 d          -2.812   4.793   9.369  0.00  0.00     0.095 H 
ATOM      8  N1  V15 d           0.267   6.002   8.614  0.00  0.00    -0.155 N 
ATOM      9  O15 V15 d          -1.748   6.571   7.808  0.00  0.00    -0.268 OA
ATOM     10  C2  V15 d           0.980   5.230   9.493  0.00  0.00     0.701 A 
ATOM     11  H1  V15 d           0.735   6.650   8.014  0.00  0.00     0.187 HD
ATOM     12  N6  V15 d           0.370   4.367  10.274  0.00  0.00    -0.070 NA
BRANCH  10  13
ATOM     13  N14 V15 d           2.345   5.379   9.610  0.00  0.00    -0.233 N 
ATOM     14  H8  V15 d           2.959   4.553   9.563  0.00  0.00     0.174 HD
ATOM     15  H9  V15 d           2.752   6.315   9.744  0.00  0.00     0.174 HD
ENDBRANCH  10  13
ENDBRANCH   1   4
BRANCH   1  16
ATOM     16  C16 V15 d          -3.019   3.115  11.473  0.00  0.00    -0.036 C 
ATOM     17  H12 V15 d          -3.505   3.866  10.833  0.00  0.00     0.040 H 
ATOM     18  H13 V15 d          -3.185   3.370  12.529  0.00  0.00     0.040 H 
BRANCH  16  19
ATOM     19  C7  V15 d          -3.627   1.764  11.192  0.00  0.00    -0.058 A 
ATOM     20  C8  V15 d          -4.994   1.602  10.972  0.00  0.00    -0.077 A 
ATOM     21  C9  V15 d          -5.521   0.344  10.728  0.00  0.00    -0.082 A 
ATOM     22  H3  V15 d          -5.649   2.466  10.991  0.00  0.00     0.084 H 
ATOM     23  C10 V15 d          -4.674  -0.759  10.682  0.00  0.00    -0.083 A 
ATOM     24  H4  V15 d          -6.587   0.220  10.574  0.00  0.00     0.083 H 
ATOM     25  C11 V15 d          -3.309  -0.605  10.888  0.00  0.00    -0.082 A 
ATOM     26  H5  V15 d          -5.081  -1.744  10.484  0.00  0.00     0.083 H 
ATOM     27  C12 V15 d          -2.783   0.658  11.137  0.00  0.00    -0.077 A 
ATOM     28  H6  V15 d          -2.654  -1.468  10.854  0.00  0.00     0.083 H 
ATOM     29  H7  V15 d          -1.717   0.781  11.288  0.00  0.00     0.084 H 
ENDBRANCH  16  19
ENDBRANCH   1  16
TORSDOF 4
ENDMDL
MODEL 2
REMARK VINA RESULT:      -6.9      3.589      6.250
REMARK  4 active torsions:
REMARK  status: ('A' for Active; 'I' for Inactive)
REMARK    1  A    between atoms: C2_2  and  N14_12 
REMARK    2  A    between atoms: C15_13  and  C5_5 
REMARK    3  A    between atoms: C16_15  and  C15_13 
REMARK    4  A    between atoms: C7_14  and  C16_15 
ROOT
ATOM      1  C15 V15 d          -1.940   2.383  11.817  0.00  0.00    -0.020 C 
ATOM      2  H10 V15 d          -1.575   1.703  12.601  0.00  0.00     0.042 H 
ATOM      3  H11 V15 d          -2.289   3.319  12.278  0.00  0.00     0.042 H 
ENDROOT
BRANCH   1   4
ATOM      4  C5  V15 d          -3.138   1.726  11.178  0.00  0.00     0.059 A 
ATOM      5  C4  V15 d          -3.062   0.669  10.303  0.00  0.00     0.007 A 
ATOM      6  C3  V15 d          -4.266   0.140   9.773  0.00  0.00     0.261 A 
ATOM      7  H2  V15 d          -2.098   0.246  10.023  0.00  0.00     0.095 H 
ATOM      8  N1  V15 d          -5.459   0.698  10.126  0.00  0.00    -0.155 N 
ATOM      9  O15 V15 d          -4.237  -0.808   8.999  0.00  0.00    -0.268 OA
ATOM     10  C2  V15 d          -5.470   1.740  11.016  0.00  0.00     0.701 A 
ATOM     11  H1  V15 d          -6.314   0.353   9.739  0.00  0.00     0.187 HD
ATOM     12  N6  V15 d          -4.347   2.205  11.515  0.00  0.00    -0.070 NA
BRANCH  10  13
ATOM     13  N14 V15 d          -6.661   2.287  11.441  0.00  0.00    -0.233 N 
ATOM     14  H8  V15 d          -6.929   2.228  12.434  0.00  0.00     0.174 HD
ATOM     15  H9  V15 d          -7.283   2.755  10.767  0.00  0.00     0.174 HD
ENDBRANCH  10  13
ENDBRANCH   1   4
BRANCH   1  16
ATOM     16  C16 V15 d          -0.738   2.737  10.925  0.00  0.00    -0.036 C 
ATOM     17  H12 V15 d          -0.699   2.032  10.082  0.00  0.00     0.040 H 
ATOM     18  H13 V15 d           0.185   2.651  11.517  0.00  0.00     0.040 H 
BRANCH  16  19
ATOM     19  C7  V15 d          -0.847   4.141  10.387  0.00  0.00    -0.058 A 
ATOM     20  C8  V15 d          -2.074   4.701  10.033  0.00  0.00    -0.077 A 
ATOM     21  C9  V15 d          -2.137   5.991   9.531  0.00  0.00    -0.082 A 
ATOM     22  H3  V15 d          -2.984   4.124  10.151  0.00  0.00     0.084 H 
ATOM     23  C10 V15 d          -0.968   6.736   9.402  0.00  0.00    -0.083 A 
ATOM     24  H4  V15 d          -3.090   6.417   9.240  0.00  0.00     0.083 H 
ATOM     25  C11 V15 d           0.257   6.190   9.765  0.00  0.00    -0.082 A 
ATOM     26  H5  V15 d          -1.013   7.748   9.016  0.00  0.00     0.083 H 
ATOM     27  C12 V15 d           0.317   4.894  10.263  0.00  0.00    -0.077 A 
ATOM     28  H6  V15 d           1.164   6.773   9.659  0.00  0.00     0.083 H 
ATOM     29  H7  V15 d           1.271   4.470  10.556  0.00  0.00     0.084 H 
ENDBRANCH  16  19
ENDBRANCH   1  16
TORSDOF 4
ENDMDL
MODEL 3
REMARK VINA RESULT:      -6.8      1.554      2.475
REMARK  4 active torsions:
REMARK  status: ('A' for Active; 'I' for Inactive)
REMARK    1  A    between atoms: C2_2  and  N14_12 
REMARK    2  A    between atoms: C15_13  and  C5_5 
REMARK    3  A    between atoms: C16_15  and  C15_13 
REMARK    4  A    between atoms: C7_14  and  C16_15 
ROOT
ATOM      1  C15 V15 d          -2.076   3.004  11.477  0.00  0.00    -0.020 C 
ATOM      2  H10 V15 d          -3.141   3.277  11.521  0.00  0.00     0.042 H 
ATOM      3  H11 V15 d          -1.608   3.195  12.453  0.00  0.00     0.042 H 
ENDROOT
BRANCH   1   4
ATOM      4  C5  V15 d          -1.419   3.926  10.479  0.00  0.00     0.059 A 
ATOM      5  C4  V15 d          -0.065   4.154  10.416  0.00  0.00     0.007 A 
ATOM      6  C3  V15 d           0.426   5.045   9.428  0.00  0.00     0.261 A 
ATOM      7  H2  V15 d           0.615   3.662  11.109  0.00  0.00     0.095 H 
ATOM      8  N1  V15 d          -0.449   5.662   8.584  0.00  0.00    -0.155 N 
ATOM      9  O15 V15 d           1.627   5.264   9.336  0.00  0.00    -0.268 OA
ATOM     10  C2  V15 d          -1.786   5.380   8.686  0.00  0.00     0.701 A 
ATOM     11  H1  V15 d          -0.119   6.312   7.899  0.00  0.00     0.187 HD
ATOM     12  N6  V15 d          -2.224   4.535   9.593  0.00  0.00    -0.070 NA
BRANCH  10  13
ATOM     13  N14 V15 d          -2.690   5.938   7.809  0.00  0.00    -0.233 N 
ATOM     14  H8  V15 d          -3.373   6.631   8.145  0.00  0.00     0.174 HD
ATOM     15  H9  V15 d          -2.682   5.662   6.816  0.00  0.00     0.174 HD
ENDBRANCH  10  13
ENDBRANCH   1   4
BRANCH   1  16
ATOM     16  C16 V15 d          -2.006   1.488  11.227  0.00  0.00    -0.036 C 
ATOM     17  H12 V15 d          -1.518   1.006  12.086  0.00  0.00     0.040 H 
ATOM     18  H13 V15 d          -1.415   1.302  10.318  0.00  0.00     0.040 H 
BRANCH  16  19
ATOM     19  C7  V15 d          -3.381   0.896  11.048  0.00  0.00    -0.058 A 
ATOM     20  C8  V15 d          -3.573  -0.467  10.823  0.00  0.00    -0.077 A 
ATOM     21  C9  V15 d          -4.851  -0.976  10.652  0.00  0.00    -0.082 A 
ATOM     22  H3  V15 d          -2.718  -1.132  10.783  0.00  0.00     0.084 H 
ATOM     23  C10 V15 d          -5.947  -0.121  10.728  0.00  0.00    -0.083 A 
ATOM     24  H4  V15 d          -4.996  -2.033  10.460  0.00  0.00     0.083 H 
ATOM     25  C11 V15 d          -5.765   1.236  10.964  0.00  0.00    -0.082 A 
ATOM     26  H5  V15 d          -6.949  -0.516  10.602  0.00  0.00     0.083 H 
ATOM     27  C12 V15 d          -4.482   1.744  11.130  0.00  0.00    -0.077 A 
ATOM     28  H6  V15 d          -6.621   1.897  11.019  0.00  0.00     0.083 H 
ATOM     29  H7  V15 d          -4.339   2.801  11.325  0.00  0.00     0.084 H 
ENDBRANCH  16  19
ENDBRANCH   1  16
TORSDOF 4
ENDMDL
MODEL 4
REMARK VINA RESULT:      -6.4      3.395      6.039
REMARK  4 active torsions:
REMARK  status: ('A' for Active; 'I' for Inactive)
REMARK    1  A    between atoms: C2_2  and  N14_12 
REMARK    2  A    between atoms: C15_13  and  C5_5 
REMARK    3  A    between atoms: C16_15  and  C15_13 
REMARK    4  A    between atoms: C7_14  and  C16_15 
ROOT
ATOM      1  C15 V15 d          -1.933   2.357  11.855  0.00  0.00    -0.020 C 
ATOM      2  H10 V15 d          -1.580   1.641  12.611  0.00  0.00     0.042 H 
ATOM      3  H11 V15 d          -2.263   3.282  12.351  0.00  0.00     0.042 H 
ENDROOT
BRANCH   1   4
ATOM      4  C5  V15 d          -3.145   1.748  11.194  0.00  0.00     0.059 A 
ATOM      5  C4  V15 d          -4.442   2.053  11.532  0.00  0.00     0.007 A 
ATOM      6  C3  V15 d          -5.494   1.410  10.831  0.00  0.00     0.261 A 
ATOM      7  H2  V15 d          -4.657   2.773  12.321  0.00  0.00     0.095 H 
ATOM      8  N1  V15 d          -5.198   0.499   9.861  0.00  0.00    -0.155 N 
ATOM      9  O15 V15 d          -6.661   1.665  11.099  0.00  0.00    -0.268 OA
ATOM     10  C2  V15 d          -3.884   0.251   9.558  0.00  0.00     0.701 A 
ATOM     11  H1  V15 d          -5.929   0.019   9.377  0.00  0.00     0.187 HD
ATOM     12  N6  V15 d          -2.921   0.871  10.202  0.00  0.00    -0.070 NA
BRANCH  10  13
ATOM     13  N14 V15 d          -3.551  -0.616   8.541  0.00  0.00    -0.233 N 
ATOM     14  H8  V15 d          -3.074  -0.263   7.699  0.00  0.00     0.174 HD
ATOM     15  H9  V15 d          -3.778  -1.617   8.622  0.00  0.00     0.174 HD
ENDBRANCH  10  13
ENDBRANCH   1   4
BRANCH   1  16
ATOM     16  C16 V15 d          -0.726   2.720  10.974  0.00  0.00    -0.036 C 
ATOM     17  H12 V15 d          -0.674   2.017  10.130  0.00  0.00     0.040 H 
ATOM     18  H13 V15 d           0.192   2.641  11.574  0.00  0.00     0.040 H 
BRANCH  16  19
ATOM     19  C7  V15 d          -0.840   4.124  10.436  0.00  0.00    -0.058 A 
ATOM     20  C8  V15 d          -2.056   4.650  10.001  0.00  0.00    -0.077 A 
ATOM     21  C9  V15 d          -2.124   5.940   9.501  0.00  0.00    -0.082 A 
ATOM     22  H3  V15 d          -2.955   4.045  10.054  0.00  0.00     0.084 H 
ATOM     23  C10 V15 d          -0.972   6.721   9.456  0.00  0.00    -0.083 A 
ATOM     24  H4  V15 d          -3.068   6.340   9.148  0.00  0.00     0.083 H 
ATOM     25  C11 V15 d           0.241   6.209   9.899  0.00  0.00    -0.082 A 
ATOM     26  H5  V15 d          -1.022   7.734   9.072  0.00  0.00     0.083 H 
ATOM     27  C12 V15 d           0.307   4.912  10.395  0.00  0.00    -0.077 A 
ATOM     28  H6  V15 d           1.135   6.820   9.858  0.00  0.00     0.083 H 
ATOM     29  H7  V15 d           1.251   4.515  10.750  0.00  0.00     0.084 H 
ENDBRANCH  16  19
ENDBRANCH   1  16
TORSDOF 4
ENDMDL
MODEL 5
REMARK VINA RESULT:      -5.4      3.569      6.383
REMARK  4 active torsions:
REMARK  status: ('A' for Active; 'I' for Inactive)
REMARK    1  A    between atoms: C2_2  and  N14_12 
REMARK    2  A    between atoms: C15_13  and  C5_5 
REMARK    3  A    between atoms: C16_15  and  C15_13 
REMARK    4  A    between atoms: C7_14  and  C16_15 
ROOT
ATOM      1  C15 V15 d          -2.070   2.440  11.403  0.00  0.00    -0.020 C 
ATOM      2  H10 V15 d          -1.790   1.831  12.275  0.00  0.00     0.042 H 
ATOM      3  H11 V15 d          -2.431   3.422  11.742  0.00  0.00     0.042 H 
ENDROOT
BRANCH   1   4
ATOM      4  C5  V15 d          -3.229   1.746  10.729  0.00  0.00     0.059 A 
ATOM      5  C4  V15 d          -3.781   0.566  11.167  0.00  0.00     0.007 A 
ATOM      6  C3  V15 d          -4.870   0.019  10.443  0.00  0.00     0.261 A 
ATOM      7  H2  V15 d          -3.390   0.063  12.050  0.00  0.00     0.095 H 
ATOM      8  N1  V15 d          -5.329   0.659   9.330  0.00  0.00    -0.155 N 
ATOM      9  O15 V15 d          -5.393  -1.026  10.810  0.00  0.00    -0.268 OA
ATOM     10  C2  V15 d          -4.747   1.842   8.954  0.00  0.00     0.701 A 
ATOM     11  H1  V15 d          -6.079   0.271   8.795  0.00  0.00     0.187 HD
ATOM     12  N6  V15 d          -3.752   2.348   9.648  0.00  0.00    -0.070 NA
BRANCH  10  13
ATOM     13  N14 V15 d          -5.226   2.546   7.872  0.00  0.00    -0.233 N 
ATOM     14  H8  V15 d          -4.882   3.499   7.685  0.00  0.00     0.174 HD
ATOM     15  H9  V15 d          -5.928   2.121   7.249  0.00  0.00     0.174 HD
ENDBRANCH  10  13
ENDBRANCH   1   4
BRANCH   1  16
ATOM     16  C16 V15 d          -0.789   2.683  10.587  0.00  0.00    -0.036 C 
ATOM     17  H12 V15 d          -0.854   2.120   9.644  0.00  0.00     0.040 H 
ATOM     18  H13 V15 d           0.076   2.330  11.166  0.00  0.00     0.040 H 
BRANCH  16  19
ATOM     19  C7  V15 d          -0.607   4.146  10.273  0.00  0.00    -0.058 A 
ATOM     20  C8  V15 d           0.641   4.764  10.339  0.00  0.00    -0.077 A 
ATOM     21  C9  V15 d           0.772   6.114  10.055  0.00  0.00    -0.082 A 
ATOM     22  H3  V15 d           1.516   4.184  10.615  0.00  0.00     0.084 H 
ATOM     23  C10 V15 d          -0.350   6.849   9.680  0.00  0.00    -0.083 A 
ATOM     24  H4  V15 d           1.740   6.595  10.125  0.00  0.00     0.083 H 
ATOM     25  C11 V15 d          -1.595   6.237   9.599  0.00  0.00    -0.082 A 
ATOM     26  H5  V15 d          -0.251   7.903   9.449  0.00  0.00     0.083 H 
ATOM     27  C12 V15 d          -1.723   4.884   9.889  0.00  0.00    -0.077 A 
ATOM     28  H6  V15 d          -2.464   6.814   9.309  0.00  0.00     0.083 H 
ATOM     29  H7  V15 d          -2.692   4.404   9.817  0.00  0.00     0.084 H 
ENDBRANCH  16  19
ENDBRANCH   1  16
TORSDOF 4
ENDMDL
MODEL 6
REMARK VINA RESULT:      -5.3      2.082      3.017
REMARK  4 active torsions:
REMARK  status: ('A' for Active; 'I' for Inactive)
REMARK    1  A    between atoms: C2_2  and  N14_12 
REMARK    2  A    between atoms: C15_13  and  C5_5 
REMARK    3  A    between atoms: C16_15  and  C15_13 
REMARK    4  A    between atoms: C7_14  and  C16_15 
ROOT
ATOM      1  C15 V15 d          -3.912   2.545  11.292  0.00  0.00    -0.020 C 
ATOM      2  H10 V15 d          -4.626   3.024  10.605  0.00  0.00     0.042 H 
ATOM      3  H11 V15 d          -4.035   2.967  12.300  0.00  0.00     0.042 H 
ENDROOT
BRANCH   1   4
ATOM      4  C5  V15 d          -2.526   2.909  10.821  0.00  0.00     0.059 A 
ATOM      5  C4  V15 d          -2.049   4.197  10.753  0.00  0.00     0.007 A 
ATOM      6  C3  V15 d          -0.724   4.404  10.293  0.00  0.00     0.261 A 
ATOM      7  H2  V15 d          -2.675   5.039  11.045  0.00  0.00     0.095 H 
ATOM      8  N1  V15 d           0.033   3.335   9.917  0.00  0.00    -0.155 N 
ATOM      9  O15 V15 d          -0.263   5.537  10.229  0.00  0.00    -0.268 OA
ATOM     10  C2  V15 d          -0.494   2.075  10.025  0.00  0.00     0.701 A 
ATOM     11  H1  V15 d           0.960   3.469   9.566  0.00  0.00     0.187 HD
ATOM     12  N6  V15 d          -1.716   1.896  10.473  0.00  0.00    -0.070 NA
BRANCH  10  13
ATOM     13  N14 V15 d           0.265   0.968   9.712  0.00  0.00    -0.233 N 
ATOM     14  H8  V15 d           0.176   0.108  10.271  0.00  0.00     0.174 HD
ATOM     15  H9  V15 d           0.922   1.001   8.919  0.00  0.00     0.174 HD
ENDBRANCH  10  13
ENDBRANCH   1   4
BRANCH   1  16
ATOM     16  C16 V15 d          -4.288   1.056  11.373  0.00  0.00    -0.036 C 
ATOM     17  H12 V15 d          -4.914   0.893  12.263  0.00  0.00     0.040 H 
ATOM     18  H13 V15 d          -3.369   0.459  11.458  0.00  0.00     0.040 H 
BRANCH  16  19
ATOM     19  C7  V15 d          -5.050   0.614  10.150  0.00  0.00    -0.058 A 
ATOM     20  C8  V15 d          -5.640  -0.647  10.064  0.00  0.00    -0.077 A 
ATOM     21  C9  V15 d          -6.324  -1.025   8.920  0.00  0.00    -0.082 A 
ATOM     22  H3  V15 d          -5.563  -1.336  10.898  0.00  0.00     0.084 H 
ATOM     23  C10 V15 d          -6.439  -0.129   7.860  0.00  0.00    -0.083 A 
ATOM     24  H4  V15 d          -6.766  -2.013   8.850  0.00  0.00     0.083 H 
ATOM     25  C11 V15 d          -5.866   1.133   7.943  0.00  0.00    -0.082 A 
ATOM     26  H5  V15 d          -6.980  -0.419   6.966  0.00  0.00     0.083 H 
ATOM     27  C12 V15 d          -5.176   1.508   9.090  0.00  0.00    -0.077 A 
ATOM     28  H6  V15 d          -5.957   1.825   7.115  0.00  0.00     0.083 H 
ATOM     29  H7  V15 d          -4.737   2.497   9.160  0.00  0.00     0.084 H 
ENDBRANCH  16  19
ENDBRANCH   1  16
TORSDOF 4
ENDMDL
MODEL 7
REMARK VINA RESULT:      -5.2      2.238      3.015
REMARK  4 active torsions:
REMARK  status: ('A' for Active; 'I' for Inactive)
REMARK    1  A    between atoms: C2_2  and  N14_12 
REMARK    2  A    between atoms: C15_13  and  C5_5 
REMARK    3  A    between atoms: C16_15  and  C15_13 
REMARK    4  A    between atoms: C7_14  and  C16_15 
ROOT
ATOM      1  C15 V15 d          -3.731   2.107   7.989  0.00  0.00    -0.020 C 
ATOM      2  H10 V15 d          -3.411   1.085   8.239  0.00  0.00     0.042 H 
ATOM      3  H11 V15 d          -3.484   2.322   6.939  0.00  0.00     0.042 H 
ENDROOT
BRANCH   1   4
ATOM      4  C5  V15 d          -2.915   3.050   8.840  0.00  0.00     0.059 A 
ATOM      5  C4  V15 d          -2.975   4.420   8.747  0.00  0.00     0.007 A 
ATOM      6  C3  V15 d          -2.156   5.193   9.608  0.00  0.00     0.261 A 
ATOM      7  H2  V15 d          -3.637   4.901   8.028  0.00  0.00     0.095 H 
ATOM      8  N1  V15 d          -1.323   4.567  10.487  0.00  0.00    -0.155 N 
ATOM      9  O15 V15 d          -2.192   6.417   9.560  0.00  0.00    -0.268 OA
ATOM     10  C2  V15 d          -1.322   3.198  10.543  0.00  0.00     0.701 A 
ATOM     11  H1  V15 d          -0.721   5.100  11.081  0.00  0.00     0.187 HD
ATOM     12  N6  V15 d          -2.102   2.495   9.754  0.00  0.00    -0.070 NA
BRANCH  10  13
ATOM     13  N14 V15 d          -0.538   2.535  11.462  0.00  0.00    -0.233 N 
ATOM     14  H8  V15 d          -0.966   2.130  12.307  0.00  0.00     0.174 HD
ATOM     15  H9  V15 d           0.476   2.443  11.304  0.00  0.00     0.174 HD
ENDBRANCH  10  13
ENDBRANCH   1   4
BRANCH   1  16
ATOM     16  C16 V15 d          -5.263   2.149   8.115  0.00  0.00    -0.036 C 
ATOM     17  H12 V15 d          -5.709   1.892   7.143  0.00  0.00     0.040 H 
ATOM     18  H13 V15 d          -5.571   3.165   8.402  0.00  0.00     0.040 H 
BRANCH  16  19
ATOM     19  C7  V15 d          -5.756   1.175   9.154  0.00  0.00    -0.058 A 
ATOM     20  C8  V15 d          -6.026  -0.158   8.846  0.00  0.00    -0.077 A 
ATOM     21  C9  V15 d          -6.488  -1.024   9.824  0.00  0.00    -0.082 A 
ATOM     22  H3  V15 d          -5.872  -0.519   7.835  0.00  0.00     0.084 H 
ATOM     23  C10 V15 d          -6.661  -0.562  11.126  0.00  0.00    -0.083 A 
ATOM     24  H4  V15 d          -6.714  -2.055   9.577  0.00  0.00     0.083 H 
ATOM     25  C11 V15 d          -6.382   0.761  11.444  0.00  0.00    -0.082 A 
ATOM     26  H5  V15 d          -7.016  -1.238  11.895  0.00  0.00     0.083 H 
ATOM     27  C12 V15 d          -5.923   1.629  10.460  0.00  0.00    -0.077 A 
ATOM     28  H6  V15 d          -6.522   1.116  12.458  0.00  0.00     0.083 H 
ATOM     29  H7  V15 d          -5.696   2.659  10.709  0.00  0.00     0.084 H 
ENDBRANCH  16  19
ENDBRANCH   1  16
TORSDOF 4
ENDMDL
MODEL 8
REMARK VINA RESULT:      -4.9      3.198      6.255
REMARK  4 active torsions:
REMARK  status: ('A' for Active; 'I' for Inactive)
REMARK    1  A    between atoms: C2_2  and  N14_12 
REMARK    2  A    between atoms: C15_13  and  C5_5 
REMARK    3  A    between atoms: C16_15  and  C15_13 
REMARK    4  A    between atoms: C7_14  and  C16_15 
ROOT
ATOM      1  C15 V15 d          -2.710   4.857   8.861  0.00  0.00    -0.020 C 
ATOM      2  H10 V15 d          -2.974   5.647   9.579  0.00  0.00     0.042 H 
ATOM      3  H11 V15 d          -3.499   4.777   8.098  0.00  0.00     0.042 H 
ENDROOT
BRANCH   1   4
ATOM      4  C5  V15 d          -2.689   3.553   9.619  0.00  0.00     0.059 A 
ATOM      5  C4  V15 d          -2.243   3.421  10.913  0.00  0.00     0.007 A 
ATOM      6  C3  V15 d          -2.278   2.137  11.513  0.00  0.00     0.261 A 
ATOM      7  H2  V15 d          -1.873   4.284  11.465  0.00  0.00     0.095 H 
ATOM      8  N1  V15 d          -2.729   1.070  10.795  0.00  0.00    -0.155 N 
ATOM      9  O15 V15 d          -1.899   1.984  12.668  0.00  0.00    -0.268 OA
ATOM     10  C2  V15 d          -3.176   1.269   9.515  0.00  0.00     0.701 A 
ATOM     11  H1  V15 d          -2.734   0.154  11.197  0.00  0.00     0.187 HD
ATOM     12  N6  V15 d          -3.158   2.469   8.979  0.00  0.00    -0.070 NA
BRANCH  10  13
ATOM     13  N14 V15 d          -3.696   0.225   8.783  0.00  0.00    -0.233 N 
ATOM     14  H8  V15 d          -3.173  -0.153   7.980  0.00  0.00     0.174 HD
ATOM     15  H9  V15 d          -4.609  -0.179   9.038  0.00  0.00     0.174 HD
ENDBRANCH  10  13
ENDBRANCH   1   4
BRANCH   1  16
ATOM     16  C16 V15 d          -1.426   5.305   8.142  0.00  0.00    -0.036 C 
ATOM     17  H12 V15 d          -1.659   6.165   7.497  0.00  0.00     0.040 H 
ATOM     18  H13 V15 d          -1.052   4.475   7.526  0.00  0.00     0.040 H 
BRANCH  16  19
ATOM     19  C7  V15 d          -0.357   5.706   9.127  0.00  0.00    -0.058 A 
ATOM     20  C8  V15 d           0.982   5.365   8.940  0.00  0.00    -0.077 A 
ATOM     21  C9  V15 d           1.938   5.740   9.870  0.00  0.00    -0.082 A 
ATOM     22  H3  V15 d           1.277   4.804   8.061  0.00  0.00     0.084 H 
ATOM     23  C10 V15 d           1.557   6.482  10.986  0.00  0.00    -0.083 A 
ATOM     24  H4  V15 d           2.975   5.459   9.731  0.00  0.00     0.083 H 
ATOM     25  C11 V15 d           0.227   6.836  11.173  0.00  0.00    -0.082 A 
ATOM     26  H5  V15 d           2.303   6.783  11.713  0.00  0.00     0.083 H 
ATOM     27  C12 V15 d          -0.730   6.454  10.240  0.00  0.00    -0.077 A 
ATOM     28  H6  V15 d          -0.064   7.410  12.044  0.00  0.00     0.083 H 
ATOM     29  H7  V15 d          -1.767   6.739  10.380  0.00  0.00     0.084 H 
ENDBRANCH  16  19
ENDBRANCH   1  16
TORSDOF 4
ENDMDL
