MODEL 1
REMARK VINA RESULT:      -7.7      0.000      0.000
REMARK  15 active torsions:
REMARK  status: ('A' for Active; 'I' for Inactive)
REMARK    1  A    between atoms: C27_27  and  C15_15 
REMARK    2  A    between atoms: C16_16  and  C28_28 
REMARK    3  A    between atoms: C35_35  and  C17_17 
REMARK    4  A    between atoms: C35_35  and  C18_18 
REMARK    5  A    between atoms: C19_19  and  C32_32 
REMARK    6  A    between atoms: C33_33  and  C20_20 
REMARK    7  A    between atoms: C23_23  and  O43_43 
REMARK    8  A    between atoms: C24_24  and  O44_44 
REMARK    9  A    between atoms: C34_34  and  C26_26 
REMARK       I    between atoms: N36_36  and  C27_27 
REMARK   10  A    between atoms: O43_43  and  C30_30 
REMARK   11  A    between atoms: O44_44  and  C31_31 
REMARK   12  A    between atoms: C32_32  and  N37_37 
REMARK   13  A    between atoms: N37_37  and  C33_33 
REMARK   14  A    between atoms: N37_37  and  C34_34 
REMARK   15  A    between atoms: C35_35  and  N36_36 
ROOT
ATOM      1  C1  O2N d         -11.162  48.691   5.568  0.00  0.00    -0.082 A 
ATOM      2  C2  O2N d         -12.083  49.417   4.846  0.00  0.00    -0.082 A 
ATOM      3  C3  O2N d         -10.072  48.170   4.882  0.00  0.00    -0.067 A 
ATOM      4  C4  O2N d         -11.941  49.641   3.485  0.00  0.00    -0.074 A 
ATOM      5  C15 O2N d          -9.914  48.379   3.523  0.00  0.00     0.040 A 
ATOM      6  C19 O2N d         -10.854  49.121   2.810  0.00  0.00    -0.017 A 
ATOM      7  H1  O2N d         -11.282  48.532   6.633  0.00  0.00     0.083 H 
ATOM      8  H2  O2N d         -12.946  49.827   5.358  0.00  0.00     0.083 H 
ATOM      9  H3  O2N d          -9.332  47.588   5.420  0.00  0.00     0.085 H 
ATOM     10  H4  O2N d         -12.684  50.224   2.951  0.00  0.00     0.084 H 
ENDROOT
BRANCH   5  11
ATOM     11  C27 O2N d          -8.718  47.826   2.851  0.00  0.00     0.253 C 
ATOM     12  N36 O2N d          -8.583  46.438   2.790  0.00  0.00    -0.344 N 
ATOM     13  H33 O2N d          -9.273  45.866   3.232  0.00  0.00     0.163 HD
ATOM     14  O39 O2N d          -7.894  48.626   2.401  0.00  0.00    -0.268 OA
BRANCH  12  15
ATOM     15  C35 O2N d          -7.473  45.798   2.109  0.00  0.00     0.063 C 
ATOM     16  H32 O2N d          -6.898  46.573   1.580  0.00  0.00     0.088 H 
BRANCH  15  17
ATOM     17  C17 O2N d          -8.027  44.847   1.033  0.00  0.00    -0.031 A 
ATOM     18  C6  O2N d          -7.493  44.848  -0.250  0.00  0.00    -0.072 A 
ATOM     19  C11 O2N d          -7.985  44.012  -1.261  0.00  0.00    -0.050 A 
ATOM     20  H6  O2N d          -6.670  45.517  -0.476  0.00  0.00     0.084 H 
ATOM     21  C23 O2N d          -9.028  43.118  -0.909  0.00  0.00     0.068 A 
ATOM     22  H11 O2N d          -7.585  44.047  -2.268  0.00  0.00     0.087 H 
ATOM     23  C12 O2N d          -9.612  43.115   0.347  0.00  0.00    -0.050 A 
ATOM     24  C7  O2N d          -9.084  43.995   1.304  0.00  0.00    -0.072 A 
ATOM     25  H12 O2N d         -10.443  42.460   0.581  0.00  0.00     0.087 H 
ATOM     26  H7  O2N d          -9.522  44.009   2.295  0.00  0.00     0.084 H 
BRANCH  21  27
ATOM     27  O43 O2N d          -9.511  42.278  -1.927  0.00  0.00    -0.356 OA
BRANCH  27  28
ATOM     28  C30 O2N d         -10.066  40.986  -1.598  0.00  0.00     0.010 C 
ATOM     29  H20 O2N d         -10.387  40.479  -2.520  0.00  0.00     0.066 H 
ATOM     30  H21 O2N d         -10.930  41.117  -0.932  0.00  0.00     0.066 H 
ATOM     31  H22 O2N d          -9.303  40.376  -1.092  0.00  0.00     0.066 H 
ENDBRANCH  27  28
ENDBRANCH  21  27
ENDBRANCH  15  17
BRANCH  15  32
ATOM     32  C18 O2N d          -6.538  45.193   3.154  0.00  0.00    -0.031 A 
ATOM     33  C8  O2N d          -5.238  45.681   3.194  0.00  0.00    -0.072 A 
ATOM     34  C13 O2N d          -4.357  45.189   4.156  0.00  0.00    -0.050 A 
ATOM     35  H8  O2N d          -4.913  46.435   2.487  0.00  0.00     0.084 H 
ATOM     36  C24 O2N d          -4.739  44.211   5.067  0.00  0.00     0.068 A 
ATOM     37  H13 O2N d          -3.347  45.579   4.193  0.00  0.00     0.087 H 
ATOM     38  C14 O2N d          -6.017  43.685   5.068  0.00  0.00    -0.050 A 
ATOM     39  C9  O2N d          -6.892  44.240   4.102  0.00  0.00    -0.072 A 
ATOM     40  H14 O2N d          -6.327  42.908   5.757  0.00  0.00     0.087 H 
ATOM     41  H9  O2N d          -7.918  43.893   4.101  0.00  0.00     0.084 H 
BRANCH  36  42
ATOM     42  O44 O2N d          -3.747  43.796   5.955  0.00  0.00    -0.356 OA
BRANCH  42  43
ATOM     43  C31 O2N d          -4.289  43.222   7.144  0.00  0.00     0.010 C 
ATOM     44  H23 O2N d          -3.468  42.913   7.809  0.00  0.00     0.066 H 
ATOM     45  H24 O2N d          -4.899  42.345   6.882  0.00  0.00     0.066 H 
ATOM     46  H25 O2N d          -4.917  43.965   7.657  0.00  0.00     0.066 H 
ENDBRANCH  42  43
ENDBRANCH  36  42
ENDBRANCH  15  32
ENDBRANCH  12  15
ENDBRANCH   5  11
BRANCH   6  47
ATOM     47  C32 O2N d         -10.730  49.403   1.349  0.00  0.00     0.109 C 
ATOM     48  H26 O2N d          -9.671  49.299   1.071  0.00  0.00     0.083 H 
ATOM     49  H27 O2N d         -11.055  50.439   1.174  0.00  0.00     0.083 H 
BRANCH  47  50
ATOM     50  N37 O2N d         -11.546  48.497   0.439  0.00  0.00    -0.060 N 
ATOM     51  H34 O2N d         -12.515  48.677   0.648  0.00  0.00     0.281 HD
BRANCH  50  52
ATOM     52  C33 O2N d         -11.342  46.955   0.621  0.00  0.00     0.109 C 
ATOM     53  H28 O2N d         -10.268  46.717   0.582  0.00  0.00     0.083 H 
ATOM     54  H29 O2N d         -11.753  46.640   1.591  0.00  0.00     0.083 H 
BRANCH  52  55
ATOM     55  C20 O2N d         -12.068  46.228  -0.502  0.00  0.00    -0.013 A 
ATOM     56  C5  O2N d         -11.420  45.738  -1.671  0.00  0.00    -0.071 A 
ATOM     57  C10 O2N d         -12.123  45.044  -2.706  0.00  0.00    -0.047 A 
ATOM     58  H5  O2N d         -10.353  45.898  -1.781  0.00  0.00     0.084 H 
ATOM     59  C21 O2N d         -13.478  44.914  -2.515  0.00  0.00     0.106 A 
ATOM     60  H10 O2N d         -11.622  44.648  -3.581  0.00  0.00     0.087 H 
ATOM     61  C22 O2N d         -14.112  45.376  -1.376  0.00  0.00     0.122 A 
ATOM     62  O41 O2N d         -14.365  44.315  -3.356  0.00  0.00    -0.323 OA
ATOM     63  C16 O2N d         -13.455  46.045  -0.342  0.00  0.00     0.085 A 
ATOM     64  O42 O2N d         -15.491  45.130  -1.394  0.00  0.00    -0.322 OA
ATOM     65  C29 O2N d         -15.609  44.402  -2.635  0.00  0.00     0.115 A 
ATOM     66  H18 O2N d         -15.957  43.383  -2.412  0.00  0.00     0.118 H 
ATOM     67  H19 O2N d         -16.349  44.911  -3.271  0.00  0.00     0.118 H 
BRANCH  63  68
ATOM     68  C28 O2N d         -14.256  46.449   0.875  0.00  0.00     0.212 C 
ATOM     69  O38 O2N d         -14.654  45.477   1.595  0.00  0.00    -0.644 OA
ATOM     70  O40 O2N d         -14.427  47.643   1.282  0.00  0.00    -0.644 OA
ENDBRANCH  63  68
ENDBRANCH  52  55
ENDBRANCH  50  52
BRANCH  50  71
ATOM     71  C34 O2N d         -11.302  48.907  -0.981  0.00  0.00     0.099 C 
ATOM     72  H30 O2N d         -11.812  48.178  -1.627  0.00  0.00     0.082 H 
ATOM     73  H31 O2N d         -11.755  49.900  -1.120  0.00  0.00     0.082 H 
BRANCH  71  74
ATOM     74  C26 O2N d          -9.872  48.995  -1.440  0.00  0.00    -0.087 C 
ATOM     75  C25 O2N d          -9.399  50.121  -2.003  0.00  0.00    -0.123 C 
ATOM     76  H15 O2N d          -8.361  50.171  -2.331  0.00  0.00     0.066 H 
ATOM     77  H16 O2N d         -10.053  50.983  -2.131  0.00  0.00     0.066 H 
ATOM     78  H17 O2N d          -9.213  48.138  -1.314  0.00  0.00     0.078 H 
ENDBRANCH  71  74
ENDBRANCH  50  71
ENDBRANCH  47  50
ENDBRANCH   6  47
TORSDOF 15
ENDMDL
