MODEL 1
REMARK VINA RESULT:      -7.0      0.000      0.000
REMARK  15 active torsions:
REMARK  status: ('A' for Active; 'I' for Inactive)
REMARK    1  A    between atoms: C27_27  and  C15_15 
REMARK    2  A    between atoms: C16_16  and  C28_28 
REMARK    3  A    between atoms: C35_35  and  C17_17 
REMARK    4  A    between atoms: C35_35  and  C18_18 
REMARK    5  A    between atoms: C19_19  and  C32_32 
REMARK    6  A    between atoms: C33_33  and  C20_20 
REMARK    7  A    between atoms: C23_23  and  O43_43 
REMARK    8  A    between atoms: C24_24  and  O44_44 
REMARK    9  A    between atoms: C34_34  and  C26_26 
REMARK       I    between atoms: N36_36  and  C27_27 
REMARK   10  A    between atoms: O43_43  and  C30_30 
REMARK   11  A    between atoms: O44_44  and  C31_31 
REMARK   12  A    between atoms: C32_32  and  N37_37 
REMARK   13  A    between atoms: N37_37  and  C33_33 
REMARK   14  A    between atoms: N37_37  and  C34_34 
REMARK   15  A    between atoms: C35_35  and  N36_36 
ROOT
ATOM      1  C1  O2N d          -8.846  41.074   0.116  0.00  0.00    -0.082 A 
ATOM      2  C2  O2N d          -9.759  41.735  -0.675  0.00  0.00    -0.082 A 
ATOM      3  C3  O2N d          -7.840  41.827   0.707  0.00  0.00    -0.067 A 
ATOM      4  C4  O2N d          -9.700  43.105  -0.878  0.00  0.00    -0.074 A 
ATOM      5  C15 O2N d          -7.762  43.195   0.515  0.00  0.00     0.040 A 
ATOM      6  C19 O2N d          -8.699  43.849  -0.285  0.00  0.00    -0.017 A 
ATOM      7  H1  O2N d          -8.910  40.003   0.271  0.00  0.00     0.083 H 
ATOM      8  H2  O2N d         -10.547  41.167  -1.154  0.00  0.00     0.083 H 
ATOM      9  H3  O2N d          -7.102  41.334   1.331  0.00  0.00     0.085 H 
ATOM     10  H4  O2N d         -10.441  43.593  -1.503  0.00  0.00     0.084 H 
ENDROOT
BRANCH   5  11
ATOM     11  C27 O2N d          -6.688  43.951   1.194  0.00  0.00     0.253 C 
ATOM     12  N36 O2N d          -6.820  45.337   1.289  0.00  0.00    -0.344 N 
ATOM     13  H33 O2N d          -7.612  45.777   0.867  0.00  0.00     0.163 HD
ATOM     14  O39 O2N d          -5.720  43.313   1.618  0.00  0.00    -0.268 OA
BRANCH  12  15
ATOM     15  C35 O2N d          -5.845  46.161   1.980  0.00  0.00     0.063 C 
ATOM     16  H32 O2N d          -4.982  45.531   2.241  0.00  0.00     0.088 H 
BRANCH  15  17
ATOM     17  C17 O2N d          -6.454  46.650   3.307  0.00  0.00    -0.031 A 
ATOM     18  C6  O2N d          -6.523  45.802   4.405  0.00  0.00    -0.072 A 
ATOM     19  C11 O2N d          -7.089  46.204   5.621  0.00  0.00    -0.050 A 
ATOM     20  H6  O2N d          -6.127  44.796   4.317  0.00  0.00     0.084 H 
ATOM     21  C23 O2N d          -7.551  47.542   5.709  0.00  0.00     0.068 A 
ATOM     22  H11 O2N d          -7.171  45.521   6.460  0.00  0.00     0.087 H 
ATOM     23  C12 O2N d          -7.535  48.405   4.624  0.00  0.00    -0.050 A 
ATOM     24  C7  O2N d          -6.974  47.928   3.430  0.00  0.00    -0.072 A 
ATOM     25  H12 O2N d          -7.939  49.408   4.696  0.00  0.00     0.087 H 
ATOM     26  H7  O2N d          -6.947  48.585   2.569  0.00  0.00     0.084 H 
BRANCH  21  27
ATOM     27  O43 O2N d          -8.110  47.940   6.934  0.00  0.00    -0.356 OA
BRANCH  27  28
ATOM     28  C30 O2N d          -8.801  49.203   7.040  0.00  0.00     0.010 C 
ATOM     29  H20 O2N d          -9.808  49.108   6.610  0.00  0.00     0.066 H 
ATOM     30  H21 O2N d          -8.240  49.975   6.493  0.00  0.00     0.066 H 
ATOM     31  H22 O2N d          -8.881  49.490   8.099  0.00  0.00     0.066 H 
ENDBRANCH  27  28
ENDBRANCH  21  27
ENDBRANCH  15  17
BRANCH  15  32
ATOM     32  C18 O2N d          -5.335  47.230   1.017  0.00  0.00    -0.031 A 
ATOM     33  C8  O2N d          -6.174  47.585  -0.032  0.00  0.00    -0.072 A 
ATOM     34  C13 O2N d          -5.772  48.583  -0.917  0.00  0.00    -0.050 A 
ATOM     35  H8  O2N d          -7.130  47.091  -0.161  0.00  0.00     0.084 H 
ATOM     36  C24 O2N d          -4.544  49.225  -0.788  0.00  0.00     0.068 A 
ATOM     37  H13 O2N d          -6.433  48.868  -1.727  0.00  0.00     0.087 H 
ATOM     38  C14 O2N d          -3.668  48.907   0.232  0.00  0.00    -0.050 A 
ATOM     39  C9  O2N d          -4.131  47.916   1.131  0.00  0.00    -0.072 A 
ATOM     40  H14 O2N d          -2.699  49.382   0.336  0.00  0.00     0.087 H 
ATOM     41  H9  O2N d          -3.497  47.673   1.975  0.00  0.00     0.084 H 
BRANCH  36  42
ATOM     42  O44 O2N d          -4.264  50.186  -1.759  0.00  0.00    -0.356 OA
BRANCH  42  43
ATOM     43  C31 O2N d          -3.485  51.266  -1.244  0.00  0.00     0.010 C 
ATOM     44  H23 O2N d          -2.515  51.299  -1.764  0.00  0.00     0.066 H 
ATOM     45  H24 O2N d          -3.318  51.116  -0.167  0.00  0.00     0.066 H 
ATOM     46  H25 O2N d          -4.020  52.213  -1.404  0.00  0.00     0.066 H 
ENDBRANCH  42  43
ENDBRANCH  36  42
ENDBRANCH  15  32
ENDBRANCH  12  15
ENDBRANCH   5  11
BRANCH   6  47
ATOM     47  C32 O2N d          -8.685  45.324  -0.514  0.00  0.00     0.109 C 
ATOM     48  H26 O2N d          -8.517  45.500  -1.587  0.00  0.00     0.083 H 
ATOM     49  H27 O2N d          -7.851  45.750   0.062  0.00  0.00     0.083 H 
BRANCH  47  50
ATOM     50  N37 O2N d          -9.955  46.058  -0.111  0.00  0.00    -0.060 N 
ATOM     51  H34 O2N d         -10.592  45.359   0.240  0.00  0.00     0.281 HD
BRANCH  50  52
ATOM     52  C33 O2N d         -10.722  46.810  -1.250  0.00  0.00     0.109 C 
ATOM     53  H28 O2N d         -11.105  47.768  -0.868  0.00  0.00     0.083 H 
ATOM     54  H29 O2N d         -10.041  46.997  -2.093  0.00  0.00     0.083 H 
BRANCH  52  55
ATOM     55  C20 O2N d         -11.884  45.944  -1.715  0.00  0.00    -0.013 A 
ATOM     56  C5  O2N d         -11.773  44.958  -2.735  0.00  0.00    -0.071 A 
ATOM     57  C10 O2N d         -12.879  44.146  -3.143  0.00  0.00    -0.047 A 
ATOM     58  H5  O2N d         -10.814  44.816  -3.221  0.00  0.00     0.084 H 
ATOM     59  C21 O2N d         -14.070  44.409  -2.511  0.00  0.00     0.106 A 
ATOM     60  H10 O2N d         -12.783  43.376  -3.900  0.00  0.00     0.087 H 
ATOM     61  C22 O2N d         -14.183  45.357  -1.509  0.00  0.00     0.122 A 
ATOM     62  O41 O2N d         -15.263  43.791  -2.731  0.00  0.00    -0.323 OA
ATOM     63  C16 O2N d         -13.123  46.156  -1.079  0.00  0.00     0.085 A 
ATOM     64  O42 O2N d         -15.487  45.451  -1.006  0.00  0.00    -0.322 OA
ATOM     65  C29 O2N d         -16.132  44.403  -1.758  0.00  0.00     0.115 A 
ATOM     66  H18 O2N d         -16.474  43.627  -1.058  0.00  0.00     0.118 H 
ATOM     67  H19 O2N d         -17.000  44.831  -2.282  0.00  0.00     0.118 H 
BRANCH  63  68
ATOM     68  C28 O2N d         -13.366  47.117   0.064  0.00  0.00     0.212 C 
ATOM     69  O38 O2N d         -13.511  46.563   1.201  0.00  0.00    -0.644 OA
ATOM     70  O40 O2N d         -13.297  48.385  -0.013  0.00  0.00    -0.644 OA
ENDBRANCH  63  68
ENDBRANCH  52  55
ENDBRANCH  50  52
BRANCH  50  71
ATOM     71  C34 O2N d          -9.628  46.985   1.019  0.00  0.00     0.099 C 
ATOM     72  H30 O2N d          -8.539  46.953   1.167  0.00  0.00     0.082 H 
ATOM     73  H31 O2N d          -9.927  47.998   0.712  0.00  0.00     0.082 H 
BRANCH  71  74
ATOM     74  C26 O2N d         -10.273  46.709   2.349  0.00  0.00    -0.087 C 
ATOM     75  C25 O2N d         -10.841  47.701   3.058  0.00  0.00    -0.123 C 
ATOM     76  H15 O2N d         -11.305  47.487   4.020  0.00  0.00     0.066 H 
ATOM     77  H16 O2N d         -10.837  48.719   2.670  0.00  0.00     0.066 H 
ATOM     78  H17 O2N d         -10.281  45.694   2.743  0.00  0.00     0.078 H 
ENDBRANCH  71  74
ENDBRANCH  50  71
ENDBRANCH  47  50
ENDBRANCH   6  47
TORSDOF 15
ENDMDL
MODEL 2
REMARK VINA RESULT:      -6.7      2.233      7.775
REMARK  15 active torsions:
REMARK  status: ('A' for Active; 'I' for Inactive)
REMARK    1  A    between atoms: C27_27  and  C15_15 
REMARK    2  A    between atoms: C16_16  and  C28_28 
REMARK    3  A    between atoms: C35_35  and  C17_17 
REMARK    4  A    between atoms: C35_35  and  C18_18 
REMARK    5  A    between atoms: C19_19  and  C32_32 
REMARK    6  A    between atoms: C33_33  and  C20_20 
REMARK    7  A    between atoms: C23_23  and  O43_43 
REMARK    8  A    between atoms: C24_24  and  O44_44 
REMARK    9  A    between atoms: C34_34  and  C26_26 
REMARK       I    between atoms: N36_36  and  C27_27 
REMARK   10  A    between atoms: O43_43  and  C30_30 
REMARK   11  A    between atoms: O44_44  and  C31_31 
REMARK   12  A    between atoms: C32_32  and  N37_37 
REMARK   13  A    between atoms: N37_37  and  C33_33 
REMARK   14  A    between atoms: N37_37  and  C34_34 
REMARK   15  A    between atoms: C35_35  and  N36_36 
ROOT
ATOM      1  C1  O2N d          -5.527  50.169  -0.910  0.00  0.00    -0.082 A 
ATOM      2  C2  O2N d          -4.918  48.939  -0.801  0.00  0.00    -0.082 A 
ATOM      3  C3  O2N d          -6.905  50.193  -1.091  0.00  0.00    -0.067 A 
ATOM      4  C4  O2N d          -5.636  47.755  -0.855  0.00  0.00    -0.074 A 
ATOM      5  C15 O2N d          -7.639  49.022  -1.150  0.00  0.00     0.040 A 
ATOM      6  C19 O2N d          -7.006  47.785  -1.032  0.00  0.00    -0.017 A 
ATOM      7  H1  O2N d          -4.953  51.087  -0.858  0.00  0.00     0.083 H 
ATOM      8  H2  O2N d          -3.844  48.896  -0.669  0.00  0.00     0.083 H 
ATOM      9  H3  O2N d          -7.413  51.146  -1.186  0.00  0.00     0.085 H 
ATOM     10  H4  O2N d          -5.123  46.804  -0.759  0.00  0.00     0.084 H 
ENDROOT
BRANCH   5  11
ATOM     11  C27 O2N d          -9.107  49.108  -1.313  0.00  0.00     0.253 C 
ATOM     12  N36 O2N d          -9.911  48.688  -0.253  0.00  0.00    -0.344 N 
ATOM     13  H33 O2N d          -9.474  48.311   0.564  0.00  0.00     0.163 HD
ATOM     14  O39 O2N d          -9.538  49.525  -2.392  0.00  0.00    -0.268 OA
BRANCH  12  15
ATOM     15  C35 O2N d         -11.358  48.780  -0.296  0.00  0.00     0.063 C 
ATOM     16  H32 O2N d         -11.638  49.460  -1.114  0.00  0.00     0.088 H 
BRANCH  15  17
ATOM     17  C17 O2N d         -11.858  49.427   1.008  0.00  0.00    -0.031 A 
ATOM     18  C6  O2N d         -11.458  48.926   2.241  0.00  0.00    -0.072 A 
ATOM     19  C11 O2N d         -11.908  49.474   3.449  0.00  0.00    -0.050 A 
ATOM     20  H6  O2N d         -10.777  48.083   2.269  0.00  0.00     0.084 H 
ATOM     21  C23 O2N d         -12.759  50.606   3.368  0.00  0.00     0.068 A 
ATOM     22  H11 O2N d         -11.619  49.051   4.405  0.00  0.00     0.087 H 
ATOM     23  C12 O2N d         -13.210  51.110   2.158  0.00  0.00    -0.050 A 
ATOM     24  C7  O2N d         -12.737  50.497   0.989  0.00  0.00    -0.072 A 
ATOM     25  H12 O2N d         -13.901  51.944   2.118  0.00  0.00     0.087 H 
ATOM     26  H7  O2N d         -13.073  50.875   0.031  0.00  0.00     0.084 H 
BRANCH  21  27
ATOM     27  O43 O2N d         -13.200  51.155   4.583  0.00  0.00    -0.356 OA
BRANCH  27  28
ATOM     28  C30 O2N d         -12.252  51.451   5.631  0.00  0.00     0.010 C 
ATOM     29  H20 O2N d         -11.704  52.372   5.381  0.00  0.00     0.066 H 
ATOM     30  H21 O2N d         -11.541  50.618   5.729  0.00  0.00     0.066 H 
ATOM     31  H22 O2N d         -12.787  51.590   6.582  0.00  0.00     0.066 H 
ENDBRANCH  27  28
ENDBRANCH  21  27
ENDBRANCH  15  17
BRANCH  15  32
ATOM     32  C18 O2N d         -11.927  47.408  -0.650  0.00  0.00    -0.031 A 
ATOM     33  C8  O2N d         -11.198  46.635  -1.545  0.00  0.00    -0.072 A 
ATOM     34  C13 O2N d         -11.654  45.360  -1.871  0.00  0.00    -0.050 A 
ATOM     35  H8  O2N d         -10.285  47.020  -1.985  0.00  0.00     0.084 H 
ATOM     36  C24 O2N d         -12.829  44.843  -1.336  0.00  0.00     0.068 A 
ATOM     37  H13 O2N d         -11.077  44.754  -2.560  0.00  0.00     0.087 H 
ATOM     38  C14 O2N d         -13.597  45.570  -0.446  0.00  0.00    -0.050 A 
ATOM     39  C9  O2N d         -13.079  46.844  -0.112  0.00  0.00    -0.072 A 
ATOM     40  H14 O2N d         -14.526  45.192  -0.036  0.00  0.00     0.087 H 
ATOM     41  H9  O2N d         -13.623  47.427   0.622  0.00  0.00     0.084 H 
BRANCH  36  42
ATOM     42  O44 O2N d         -13.175  43.564  -1.770  0.00  0.00    -0.356 OA
BRANCH  42  43
ATOM     43  C31 O2N d         -12.040  42.709  -1.898  0.00  0.00     0.010 C 
ATOM     44  H23 O2N d         -12.239  41.949  -2.669  0.00  0.00     0.066 H 
ATOM     45  H24 O2N d         -11.844  42.213  -0.936  0.00  0.00     0.066 H 
ATOM     46  H25 O2N d         -11.162  43.305  -2.189  0.00  0.00     0.066 H 
ENDBRANCH  42  43
ENDBRANCH  36  42
ENDBRANCH  15  32
ENDBRANCH  12  15
ENDBRANCH   5  11
BRANCH   6  47
ATOM     47  C32 O2N d          -7.742  46.487  -1.065  0.00  0.00     0.109 C 
ATOM     48  H26 O2N d          -7.137  45.768  -1.637  0.00  0.00     0.083 H 
ATOM     49  H27 O2N d          -8.700  46.652  -1.581  0.00  0.00     0.083 H 
BRANCH  47  50
ATOM     50  N37 O2N d          -8.042  45.874   0.294  0.00  0.00    -0.060 N 
ATOM     51  H34 O2N d          -8.732  46.465   0.731  0.00  0.00     0.281 HD
BRANCH  50  52
ATOM     52  C33 O2N d          -6.847  45.784   1.302  0.00  0.00     0.109 C 
ATOM     53  H28 O2N d          -6.670  44.732   1.573  0.00  0.00     0.083 H 
ATOM     54  H29 O2N d          -5.940  46.201   0.838  0.00  0.00     0.083 H 
BRANCH  52  55
ATOM     55  C20 O2N d          -7.195  46.582   2.550  0.00  0.00    -0.013 A 
ATOM     56  C5  O2N d          -7.736  47.898   2.518  0.00  0.00    -0.071 A 
ATOM     57  C10 O2N d          -8.070  48.621   3.707  0.00  0.00    -0.047 A 
ATOM     58  H5  O2N d          -7.901  48.370   1.556  0.00  0.00     0.084 H 
ATOM     59  C21 O2N d          -7.797  47.975   4.888  0.00  0.00     0.106 A 
ATOM     60  H10 O2N d          -8.508  49.612   3.678  0.00  0.00     0.087 H 
ATOM     61  C22 O2N d          -7.283  46.690   4.927  0.00  0.00     0.122 A 
ATOM     62  O41 O2N d          -8.004  48.453   6.146  0.00  0.00    -0.323 OA
ATOM     63  C16 O2N d          -6.959  45.953   3.788  0.00  0.00     0.085 A 
ATOM     64  O42 O2N d          -7.090  46.231   6.237  0.00  0.00    -0.322 OA
ATOM     65  C29 O2N d          -7.614  47.348   6.985  0.00  0.00     0.115 A 
ATOM     66  H18 O2N d          -8.494  47.009   7.550  0.00  0.00     0.118 H 
ATOM     67  H19 O2N d          -6.840  47.695   7.685  0.00  0.00     0.118 H 
BRANCH  63  68
ATOM     68  C28 O2N d          -6.457  44.537   3.968  0.00  0.00     0.212 C 
ATOM     69  O38 O2N d          -5.200  44.438   4.139  0.00  0.00    -0.644 OA
ATOM     70  O40 O2N d          -7.192  43.506   4.095  0.00  0.00    -0.644 OA
ENDBRANCH  63  68
ENDBRANCH  52  55
ENDBRANCH  50  52
BRANCH  50  71
ATOM     71  C34 O2N d          -8.665  44.528   0.080  0.00  0.00     0.099 C 
ATOM     72  H30 O2N d          -9.197  44.561  -0.882  0.00  0.00     0.082 H 
ATOM     73  H31 O2N d          -7.850  43.792   0.024  0.00  0.00     0.082 H 
BRANCH  71  74
ATOM     74  C26 O2N d          -9.639  44.044   1.119  0.00  0.00    -0.087 C 
ATOM     75  C25 O2N d         -10.507  44.893   1.697  0.00  0.00    -0.123 C 
ATOM     76  H15 O2N d         -11.208  44.528   2.447  0.00  0.00     0.066 H 
ATOM     77  H16 O2N d         -10.511  45.945   1.415  0.00  0.00     0.066 H 
ATOM     78  H17 O2N d          -9.642  42.993   1.406  0.00  0.00     0.078 H 
ENDBRANCH  71  74
ENDBRANCH  50  71
ENDBRANCH  47  50
ENDBRANCH   6  47
TORSDOF 15
ENDMDL
MODEL 3
REMARK VINA RESULT:      -6.7      2.346      5.720
REMARK  15 active torsions:
REMARK  status: ('A' for Active; 'I' for Inactive)
REMARK    1  A    between atoms: C27_27  and  C15_15 
REMARK    2  A    between atoms: C16_16  and  C28_28 
REMARK    3  A    between atoms: C35_35  and  C17_17 
REMARK    4  A    between atoms: C35_35  and  C18_18 
REMARK    5  A    between atoms: C19_19  and  C32_32 
REMARK    6  A    between atoms: C33_33  and  C20_20 
REMARK    7  A    between atoms: C23_23  and  O43_43 
REMARK    8  A    between atoms: C24_24  and  O44_44 
REMARK    9  A    between atoms: C34_34  and  C26_26 
REMARK       I    between atoms: N36_36  and  C27_27 
REMARK   10  A    between atoms: O43_43  and  C30_30 
REMARK   11  A    between atoms: O44_44  and  C31_31 
REMARK   12  A    between atoms: C32_32  and  N37_37 
REMARK   13  A    between atoms: N37_37  and  C33_33 
REMARK   14  A    between atoms: N37_37  and  C34_34 
REMARK   15  A    between atoms: C35_35  and  N36_36 
ROOT
ATOM      1  C1  O2N d          -6.812  49.248  -1.238  0.00  0.00    -0.082 A 
ATOM      2  C2  O2N d          -7.595  50.155  -0.558  0.00  0.00    -0.082 A 
ATOM      3  C3  O2N d          -6.804  47.935  -0.782  0.00  0.00    -0.067 A 
ATOM      4  C4  O2N d          -8.362  49.790   0.537  0.00  0.00    -0.074 A 
ATOM      5  C15 O2N d          -7.561  47.551   0.310  0.00  0.00     0.040 A 
ATOM      6  C19 O2N d          -8.351  48.482   0.983  0.00  0.00    -0.017 A 
ATOM      7  H1  O2N d          -6.224  49.547  -2.097  0.00  0.00     0.083 H 
ATOM      8  H2  O2N d          -7.610  51.186  -0.890  0.00  0.00     0.083 H 
ATOM      9  H3  O2N d          -6.193  47.199  -1.293  0.00  0.00     0.085 H 
ATOM     10  H4  O2N d          -8.971  50.531   1.043  0.00  0.00     0.084 H 
ENDROOT
BRANCH   5  11
ATOM     11  C27 O2N d          -7.536  46.134   0.732  0.00  0.00     0.253 C 
ATOM     12  N36 O2N d          -6.436  45.359   0.365  0.00  0.00    -0.344 N 
ATOM     13  H33 O2N d          -5.721  45.772  -0.199  0.00  0.00     0.163 HD
ATOM     14  O39 O2N d          -8.506  45.710   1.367  0.00  0.00    -0.268 OA
BRANCH  12  15
ATOM     15  C35 O2N d          -6.295  43.973   0.773  0.00  0.00     0.063 C 
ATOM     16  H32 O2N d          -5.355  43.583   0.355  0.00  0.00     0.088 H 
BRANCH  15  17
ATOM     17  C17 O2N d          -7.434  43.148   0.146  0.00  0.00    -0.031 A 
ATOM     18  C6  O2N d          -8.125  43.629  -0.959  0.00  0.00    -0.072 A 
ATOM     19  C11 O2N d          -9.181  42.917  -1.543  0.00  0.00    -0.050 A 
ATOM     20  H6  O2N d          -7.839  44.585  -1.383  0.00  0.00     0.084 H 
ATOM     21  C23 O2N d          -9.491  41.649  -0.989  0.00  0.00     0.068 A 
ATOM     22  H11 O2N d          -9.737  43.318  -2.383  0.00  0.00     0.087 H 
ATOM     23  C12 O2N d          -8.851  41.154   0.136  0.00  0.00    -0.050 A 
ATOM     24  C7  O2N d          -7.818  41.931   0.683  0.00  0.00    -0.072 A 
ATOM     25  H12 O2N d          -9.137  40.206   0.576  0.00  0.00     0.087 H 
ATOM     26  H7  O2N d          -7.300  41.564   1.561  0.00  0.00     0.084 H 
BRANCH  21  27
ATOM     27  O43 O2N d         -10.546  40.938  -1.585  0.00  0.00    -0.356 OA
BRANCH  27  28
ATOM     28  C30 O2N d         -11.836  41.563  -1.755  0.00  0.00     0.010 C 
ATOM     29  H20 O2N d         -12.513  41.229  -0.955  0.00  0.00     0.066 H 
ATOM     30  H21 O2N d         -12.255  41.280  -2.731  0.00  0.00     0.066 H 
ATOM     31  H22 O2N d         -11.724  42.656  -1.708  0.00  0.00     0.066 H 
ENDBRANCH  27  28
ENDBRANCH  21  27
ENDBRANCH  15  17
BRANCH  15  32
ATOM     32  C18 O2N d          -6.157  43.921   2.292  0.00  0.00    -0.031 A 
ATOM     33  C8  O2N d          -4.982  44.425   2.836  0.00  0.00    -0.072 A 
ATOM     34  C13 O2N d          -4.824  44.436   4.221  0.00  0.00    -0.050 A 
ATOM     35  H8  O2N d          -4.199  44.806   2.192  0.00  0.00     0.084 H 
ATOM     36  C24 O2N d          -5.804  43.940   5.074  0.00  0.00     0.068 A 
ATOM     37  H13 O2N d          -3.912  44.841   4.644  0.00  0.00     0.087 H 
ATOM     38  C14 O2N d          -6.989  43.421   4.588  0.00  0.00    -0.050 A 
ATOM     39  C9  O2N d          -7.126  43.464   3.179  0.00  0.00    -0.072 A 
ATOM     40  H14 O2N d          -7.754  43.012   5.237  0.00  0.00     0.087 H 
ATOM     41  H9  O2N d          -8.061  43.114   2.759  0.00  0.00     0.084 H 
BRANCH  36  42
ATOM     42  O44 O2N d          -5.499  43.993   6.434  0.00  0.00    -0.356 OA
BRANCH  42  43
ATOM     43  C31 O2N d          -4.195  44.521   6.678  0.00  0.00     0.010 C 
ATOM     44  H23 O2N d          -3.975  45.309   5.942  0.00  0.00     0.066 H 
ATOM     45  H24 O2N d          -3.452  43.716   6.588  0.00  0.00     0.066 H 
ATOM     46  H25 O2N d          -4.156  44.945   7.692  0.00  0.00     0.066 H 
ENDBRANCH  42  43
ENDBRANCH  36  42
ENDBRANCH  15  32
ENDBRANCH  12  15
ENDBRANCH   5  11
BRANCH   6  47
ATOM     47  C32 O2N d          -9.208  48.129   2.153  0.00  0.00     0.109 C 
ATOM     48  H26 O2N d          -9.324  49.029   2.774  0.00  0.00     0.083 H 
ATOM     49  H27 O2N d          -8.689  47.349   2.731  0.00  0.00     0.083 H 
BRANCH  47  50
ATOM     50  N37 O2N d         -10.597  47.612   1.811  0.00  0.00    -0.060 N 
ATOM     51  H34 O2N d         -10.488  46.644   1.552  0.00  0.00     0.281 HD
BRANCH  50  52
ATOM     52  C33 O2N d         -11.326  48.303   0.609  0.00  0.00     0.109 C 
ATOM     53  H28 O2N d         -12.212  48.843   0.976  0.00  0.00     0.083 H 
ATOM     54  H29 O2N d         -10.641  49.011   0.120  0.00  0.00     0.083 H 
BRANCH  52  55
ATOM     55  C20 O2N d         -11.753  47.234  -0.386  0.00  0.00    -0.013 A 
ATOM     56  C5  O2N d         -10.863  46.615  -1.307  0.00  0.00    -0.071 A 
ATOM     57  C10 O2N d         -11.288  45.601  -2.224  0.00  0.00    -0.047 A 
ATOM     58  H5  O2N d          -9.824  46.923  -1.315  0.00  0.00     0.084 H 
ATOM     59  C21 O2N d         -12.626  45.290  -2.183  0.00  0.00     0.106 A 
ATOM     60  H10 O2N d         -10.601  45.111  -2.904  0.00  0.00     0.087 H 
ATOM     61  C22 O2N d         -13.495  45.879  -1.281  0.00  0.00     0.122 A 
ATOM     62  O41 O2N d         -13.275  44.380  -2.959  0.00  0.00    -0.323 OA
ATOM     63  C16 O2N d         -13.111  46.861  -0.366  0.00  0.00     0.085 A 
ATOM     64  O42 O2N d         -14.807  45.407  -1.416  0.00  0.00    -0.322 OA
ATOM     65  C29 O2N d         -14.621  44.414  -2.447  0.00  0.00     0.115 A 
ATOM     66  H18 O2N d         -14.863  43.426  -2.029  0.00  0.00     0.118 H 
ATOM     67  H19 O2N d         -15.308  44.638  -3.277  0.00  0.00     0.118 H 
BRANCH  63  68
ATOM     68  C28 O2N d         -14.148  47.383   0.603  0.00  0.00     0.212 C 
ATOM     69  O38 O2N d         -14.446  46.579   1.545  0.00  0.00    -0.644 OA
ATOM     70  O40 O2N d         -14.612  48.568   0.618  0.00  0.00    -0.644 OA
ENDBRANCH  63  68
ENDBRANCH  52  55
ENDBRANCH  50  52
BRANCH  50  71
ATOM     71  C34 O2N d         -11.439  47.660   3.049  0.00  0.00     0.099 C 
ATOM     72  H30 O2N d         -12.487  47.530   2.741  0.00  0.00     0.082 H 
ATOM     73  H31 O2N d         -11.137  46.816   3.687  0.00  0.00     0.082 H 
BRANCH  71  74
ATOM     74  C26 O2N d         -11.366  48.907   3.887  0.00  0.00    -0.087 C 
ATOM     75  C25 O2N d         -12.282  49.883   3.750  0.00  0.00    -0.123 C 
ATOM     76  H15 O2N d         -12.218  50.780   4.364  0.00  0.00     0.066 H 
ATOM     77  H16 O2N d         -13.089  49.775   3.026  0.00  0.00     0.066 H 
ATOM     78  H17 O2N d         -10.563  49.022   4.613  0.00  0.00     0.078 H 
ENDBRANCH  71  74
ENDBRANCH  50  71
ENDBRANCH  47  50
ENDBRANCH   6  47
TORSDOF 15
ENDMDL
MODEL 4
REMARK VINA RESULT:      -6.6      2.180      7.670
REMARK  15 active torsions:
REMARK  status: ('A' for Active; 'I' for Inactive)
REMARK    1  A    between atoms: C27_27  and  C15_15 
REMARK    2  A    between atoms: C16_16  and  C28_28 
REMARK    3  A    between atoms: C35_35  and  C17_17 
REMARK    4  A    between atoms: C35_35  and  C18_18 
REMARK    5  A    between atoms: C19_19  and  C32_32 
REMARK    6  A    between atoms: C33_33  and  C20_20 
REMARK    7  A    between atoms: C23_23  and  O43_43 
REMARK    8  A    between atoms: C24_24  and  O44_44 
REMARK    9  A    between atoms: C34_34  and  C26_26 
REMARK       I    between atoms: N36_36  and  C27_27 
REMARK   10  A    between atoms: O43_43  and  C30_30 
REMARK   11  A    between atoms: O44_44  and  C31_31 
REMARK   12  A    between atoms: C32_32  and  N37_37 
REMARK   13  A    between atoms: N37_37  and  C33_33 
REMARK   14  A    between atoms: N37_37  and  C34_34 
REMARK   15  A    between atoms: C35_35  and  N36_36 
ROOT
ATOM      1  C1  O2N d          -5.724  50.494  -1.154  0.00  0.00    -0.082 A 
ATOM      2  C2  O2N d          -4.955  49.352  -1.199  0.00  0.00    -0.082 A 
ATOM      3  C3  O2N d          -7.094  50.342  -0.980  0.00  0.00    -0.067 A 
ATOM      4  C4  O2N d          -5.507  48.088  -1.066  0.00  0.00    -0.074 A 
ATOM      5  C15 O2N d          -7.664  49.088  -0.848  0.00  0.00     0.040 A 
ATOM      6  C19 O2N d          -6.869  47.944  -0.890  0.00  0.00    -0.017 A 
ATOM      7  H1  O2N d          -5.276  51.476  -1.252  0.00  0.00     0.083 H 
ATOM      8  H2  O2N d          -3.885  49.446  -1.343  0.00  0.00     0.083 H 
ATOM      9  H3  O2N d          -7.727  51.221  -0.947  0.00  0.00     0.085 H 
ATOM     10  H4  O2N d          -4.868  47.211  -1.099  0.00  0.00     0.084 H 
ENDROOT
BRANCH   5  11
ATOM     11  C27 O2N d          -9.124  48.988  -0.635  0.00  0.00     0.253 C 
ATOM     12  N36 O2N d          -9.576  48.493   0.589  0.00  0.00    -0.344 N 
ATOM     13  H33 O2N d          -8.904  48.189   1.265  0.00  0.00     0.163 HD
ATOM     14  O39 O2N d          -9.862  49.326  -1.564  0.00  0.00    -0.268 OA
BRANCH  12  15
ATOM     15  C35 O2N d         -10.988  48.404   0.914  0.00  0.00     0.063 C 
ATOM     16  H32 O2N d         -11.514  49.220   0.397  0.00  0.00     0.088 H 
BRANCH  15  17
ATOM     17  C17 O2N d         -11.170  48.644   2.423  0.00  0.00    -0.031 A 
ATOM     18  C6  O2N d         -12.158  49.506   2.885  0.00  0.00    -0.072 A 
ATOM     19  C11 O2N d         -12.341  49.766   4.249  0.00  0.00    -0.050 A 
ATOM     20  H6  O2N d         -12.807  49.992   2.166  0.00  0.00     0.084 H 
ATOM     21  C23 O2N d         -11.502  49.071   5.157  0.00  0.00     0.068 A 
ATOM     22  H11 O2N d         -13.090  50.468   4.595  0.00  0.00     0.087 H 
ATOM     23  C12 O2N d         -10.481  48.235   4.735  0.00  0.00    -0.050 A 
ATOM     24  C7  O2N d         -10.341  48.038   3.352  0.00  0.00    -0.072 A 
ATOM     25  H12 O2N d          -9.818  47.752   5.443  0.00  0.00     0.087 H 
ATOM     26  H7  O2N d          -9.552  47.386   2.997  0.00  0.00     0.084 H 
BRANCH  21  27
ATOM     27  O43 O2N d         -11.697  49.331   6.524  0.00  0.00    -0.356 OA
BRANCH  27  28
ATOM     28  C30 O2N d         -13.030  49.334   7.079  0.00  0.00     0.010 C 
ATOM     29  H20 O2N d         -13.551  48.411   6.785  0.00  0.00     0.066 H 
ATOM     30  H21 O2N d         -13.583  50.205   6.700  0.00  0.00     0.066 H 
ATOM     31  H22 O2N d         -12.970  49.387   8.176  0.00  0.00     0.066 H 
ENDBRANCH  27  28
ENDBRANCH  21  27
ENDBRANCH  15  17
BRANCH  15  32
ATOM     32  C18 O2N d         -11.539  47.097   0.349  0.00  0.00    -0.031 A 
ATOM     33  C8  O2N d         -12.161  47.159  -0.892  0.00  0.00    -0.072 A 
ATOM     34  C13 O2N d         -12.647  45.988  -1.469  0.00  0.00    -0.050 A 
ATOM     35  H8  O2N d         -12.267  48.108  -1.405  0.00  0.00     0.084 H 
ATOM     36  C24 O2N d         -12.541  44.758  -0.829  0.00  0.00     0.068 A 
ATOM     37  H13 O2N d         -13.121  46.037  -2.442  0.00  0.00     0.087 H 
ATOM     38  C14 O2N d         -11.938  44.638   0.409  0.00  0.00    -0.050 A 
ATOM     39  C9  O2N d         -11.424  45.844   0.942  0.00  0.00    -0.072 A 
ATOM     40  H14 O2N d         -11.865  43.691   0.931  0.00  0.00     0.087 H 
ATOM     41  H9  O2N d         -10.897  45.787   1.887  0.00  0.00     0.084 H 
BRANCH  36  42
ATOM     42  O44 O2N d         -13.093  43.675  -1.513  0.00  0.00    -0.356 OA
BRANCH  42  43
ATOM     43  C31 O2N d         -12.102  42.737  -1.933  0.00  0.00     0.010 C 
ATOM     44  H23 O2N d         -12.345  42.375  -2.944  0.00  0.00     0.066 H 
ATOM     45  H24 O2N d         -12.082  41.888  -1.234  0.00  0.00     0.066 H 
ATOM     46  H25 O2N d         -11.116  43.226  -1.946  0.00  0.00     0.066 H 
ENDBRANCH  42  43
ENDBRANCH  36  42
ENDBRANCH  15  32
ENDBRANCH  12  15
ENDBRANCH   5  11
BRANCH   6  47
ATOM     47  C32 O2N d          -7.418  46.565  -0.731  0.00  0.00     0.109 C 
ATOM     48  H26 O2N d          -6.784  45.877  -1.310  0.00  0.00     0.083 H 
ATOM     49  H27 O2N d          -8.438  46.555  -1.143  0.00  0.00     0.083 H 
BRANCH  47  50
ATOM     50  N37 O2N d          -7.485  46.051   0.699  0.00  0.00    -0.060 N 
ATOM     51  H34 O2N d          -8.081  46.687   1.205  0.00  0.00     0.281 HD
BRANCH  50  52
ATOM     52  C33 O2N d          -6.135  46.000   1.489  0.00  0.00     0.109 C 
ATOM     53  H28 O2N d          -5.628  45.042   1.294  0.00  0.00     0.083 H 
ATOM     54  H29 O2N d          -5.487  46.829   1.169  0.00  0.00     0.083 H 
BRANCH  52  55
ATOM     55  C20 O2N d          -6.430  46.127   2.977  0.00  0.00    -0.013 A 
ATOM     56  C5  O2N d          -6.575  45.012   3.849  0.00  0.00    -0.071 A 
ATOM     57  C10 O2N d          -6.839  45.160   5.248  0.00  0.00    -0.047 A 
ATOM     58  H5  O2N d          -6.483  44.013   3.438  0.00  0.00     0.084 H 
ATOM     59  C21 O2N d          -6.981  46.454   5.689  0.00  0.00     0.106 A 
ATOM     60  H10 O2N d          -6.920  44.309   5.915  0.00  0.00     0.087 H 
ATOM     61  C22 O2N d          -6.829  47.543   4.849  0.00  0.00     0.122 A 
ATOM     62  O41 O2N d          -7.251  46.856   6.962  0.00  0.00    -0.323 OA
ATOM     63  C16 O2N d          -6.560  47.435   3.484  0.00  0.00     0.085 A 
ATOM     64  O42 O2N d          -7.013  48.761   5.515  0.00  0.00    -0.322 OA
ATOM     65  C29 O2N d          -7.218  48.293   6.864  0.00  0.00     0.115 A 
ATOM     66  H18 O2N d          -6.399  48.668   7.495  0.00  0.00     0.118 H 
ATOM     67  H19 O2N d          -8.175  48.691   7.232  0.00  0.00     0.118 H 
BRANCH  63  68
ATOM     68  C28 O2N d          -6.360  48.705   2.689  0.00  0.00     0.212 C 
ATOM     69  O38 O2N d          -7.433  49.336   2.419  0.00  0.00    -0.644 OA
ATOM     70  O40 O2N d          -5.235  49.231   2.411  0.00  0.00    -0.644 OA
ENDBRANCH  63  68
ENDBRANCH  52  55
ENDBRANCH  50  52
BRANCH  50  71
ATOM     71  C34 O2N d          -8.153  44.710   0.690  0.00  0.00     0.099 C 
ATOM     72  H30 O2N d          -8.525  44.520   1.708  0.00  0.00     0.082 H 
ATOM     73  H31 O2N d          -9.003  44.769  -0.006  0.00  0.00     0.082 H 
BRANCH  71  74
ATOM     74  C26 O2N d          -7.321  43.525   0.285  0.00  0.00    -0.087 C 
ATOM     75  C25 O2N d          -7.273  42.422   1.055  0.00  0.00    -0.123 C 
ATOM     76  H15 O2N d          -6.666  41.571   0.749  0.00  0.00     0.066 H 
ATOM     77  H16 O2N d          -7.841  42.381   1.983  0.00  0.00     0.066 H 
ATOM     78  H17 O2N d          -6.750  43.559  -0.642  0.00  0.00     0.078 H 
ENDBRANCH  71  74
ENDBRANCH  50  71
ENDBRANCH  47  50
ENDBRANCH   6  47
TORSDOF 15
ENDMDL
MODEL 5
REMARK VINA RESULT:      -6.6      2.520      7.295
REMARK  15 active torsions:
REMARK  status: ('A' for Active; 'I' for Inactive)
REMARK    1  A    between atoms: C27_27  and  C15_15 
REMARK    2  A    between atoms: C16_16  and  C28_28 
REMARK    3  A    between atoms: C35_35  and  C17_17 
REMARK    4  A    between atoms: C35_35  and  C18_18 
REMARK    5  A    between atoms: C19_19  and  C32_32 
REMARK    6  A    between atoms: C33_33  and  C20_20 
REMARK    7  A    between atoms: C23_23  and  O43_43 
REMARK    8  A    between atoms: C24_24  and  O44_44 
REMARK    9  A    between atoms: C34_34  and  C26_26 
REMARK       I    between atoms: N36_36  and  C27_27 
REMARK   10  A    between atoms: O43_43  and  C30_30 
REMARK   11  A    between atoms: O44_44  and  C31_31 
REMARK   12  A    between atoms: C32_32  and  N37_37 
REMARK   13  A    between atoms: N37_37  and  C33_33 
REMARK   14  A    between atoms: N37_37  and  C34_34 
REMARK   15  A    between atoms: C35_35  and  N36_36 
ROOT
ATOM      1  C1  O2N d          -6.376  51.202  -1.983  0.00  0.00    -0.082 A 
ATOM      2  C2  O2N d          -5.649  50.124  -1.531  0.00  0.00    -0.082 A 
ATOM      3  C3  O2N d          -7.761  51.126  -1.900  0.00  0.00    -0.067 A 
ATOM      4  C4  O2N d          -6.256  48.998  -0.998  0.00  0.00    -0.074 A 
ATOM      5  C15 O2N d          -8.386  50.010  -1.373  0.00  0.00     0.040 A 
ATOM      6  C19 O2N d          -7.633  48.930  -0.916  0.00  0.00    -0.017 A 
ATOM      7  H1  O2N d          -5.886  52.079  -2.390  0.00  0.00     0.083 H 
ATOM      8  H2  O2N d          -4.567  50.157  -1.595  0.00  0.00     0.083 H 
ATOM      9  H3  O2N d          -8.362  51.957  -2.253  0.00  0.00     0.085 H 
ATOM     10  H4  O2N d          -5.650  48.170  -0.646  0.00  0.00     0.084 H 
ENDROOT
BRANCH   5  11
ATOM     11  C27 O2N d          -9.863  49.997  -1.281  0.00  0.00     0.253 C 
ATOM     12  N36 O2N d         -10.444  49.449  -0.137  0.00  0.00    -0.344 N 
ATOM     13  H33 O2N d          -9.850  49.051   0.563  0.00  0.00     0.163 HD
ATOM     14  O39 O2N d         -10.499  50.452  -2.236  0.00  0.00    -0.268 OA
BRANCH  12  15
ATOM     15  C35 O2N d         -11.880  49.435   0.071  0.00  0.00     0.063 C 
ATOM     16  H32 O2N d         -12.332  50.194  -0.585  0.00  0.00     0.088 H 
BRANCH  15  17
ATOM     17  C17 O2N d         -12.181  49.864   1.518  0.00  0.00    -0.031 A 
ATOM     18  C6  O2N d         -11.725  49.102   2.587  0.00  0.00    -0.072 A 
ATOM     19  C11 O2N d         -11.997  49.448   3.917  0.00  0.00    -0.050 A 
ATOM     20  H6  O2N d         -11.141  48.211   2.385  0.00  0.00     0.084 H 
ATOM     21  C23 O2N d         -12.722  50.647   4.137  0.00  0.00     0.068 A 
ATOM     22  H11 O2N d         -11.668  48.826   4.742  0.00  0.00     0.087 H 
ATOM     23  C12 O2N d         -13.226  51.412   3.097  0.00  0.00    -0.050 A 
ATOM     24  C7  O2N d         -12.935  50.993   1.790  0.00  0.00    -0.072 A 
ATOM     25  H12 O2N d         -13.822  52.297   3.286  0.00  0.00     0.087 H 
ATOM     26  H7  O2N d         -13.315  51.576   0.961  0.00  0.00     0.084 H 
BRANCH  21  27
ATOM     27  O43 O2N d         -12.984  50.991   5.474  0.00  0.00    -0.356 OA
BRANCH  27  28
ATOM     28  C30 O2N d         -13.263  49.961   6.446  0.00  0.00     0.010 C 
ATOM     29  H20 O2N d         -12.377  49.322   6.569  0.00  0.00     0.066 H 
ATOM     30  H21 O2N d         -14.110  49.351   6.101  0.00  0.00     0.066 H 
ATOM     31  H22 O2N d         -13.516  50.426   7.411  0.00  0.00     0.066 H 
ENDBRANCH  27  28
ENDBRANCH  21  27
ENDBRANCH  15  17
BRANCH  15  32
ATOM     32  C18 O2N d         -12.428  48.083  -0.379  0.00  0.00    -0.031 A 
ATOM     33  C8  O2N d         -13.751  47.802  -0.063  0.00  0.00    -0.072 A 
ATOM     34  C13 O2N d         -14.311  46.598  -0.485  0.00  0.00    -0.050 A 
ATOM     35  H8  O2N d         -14.342  48.513   0.504  0.00  0.00     0.084 H 
ATOM     36  C24 O2N d         -13.575  45.660  -1.201  0.00  0.00     0.068 A 
ATOM     37  H13 O2N d         -15.347  46.387  -0.248  0.00  0.00     0.087 H 
ATOM     38  C14 O2N d         -12.253  45.882  -1.536  0.00  0.00    -0.050 A 
ATOM     39  C9  O2N d         -11.735  47.134  -1.123  0.00  0.00    -0.072 A 
ATOM     40  H14 O2N d         -11.659  45.154  -2.076  0.00  0.00     0.087 H 
ATOM     41  H9  O2N d         -10.717  47.371  -1.410  0.00  0.00     0.084 H 
BRANCH  36  42
ATOM     42  O44 O2N d         -14.257  44.490  -1.535  0.00  0.00    -0.356 OA
BRANCH  42  43
ATOM     43  C31 O2N d         -14.642  44.461  -2.910  0.00  0.00     0.010 C 
ATOM     44  H23 O2N d         -15.503  43.788  -3.035  0.00  0.00     0.066 H 
ATOM     45  H24 O2N d         -13.801  44.097  -3.518  0.00  0.00     0.066 H 
ATOM     46  H25 O2N d         -14.918  45.475  -3.235  0.00  0.00     0.066 H 
ENDBRANCH  42  43
ENDBRANCH  36  42
ENDBRANCH  15  32
ENDBRANCH  12  15
ENDBRANCH   5  11
BRANCH   6  47
ATOM     47  C32 O2N d          -8.245  47.707  -0.316  0.00  0.00     0.109 C 
ATOM     48  H26 O2N d          -8.184  46.898  -1.059  0.00  0.00     0.083 H 
ATOM     49  H27 O2N d          -9.300  47.926  -0.099  0.00  0.00     0.083 H 
BRANCH  47  50
ATOM     50  N37 O2N d          -7.594  47.216   0.968  0.00  0.00    -0.060 N 
ATOM     51  H34 O2N d          -7.031  47.977   1.314  0.00  0.00     0.281 HD
BRANCH  50  52
ATOM     52  C33 O2N d          -6.632  45.987   0.841  0.00  0.00     0.109 C 
ATOM     53  H28 O2N d          -5.771  46.255   0.211  0.00  0.00     0.083 H 
ATOM     54  H29 O2N d          -6.278  45.690   1.839  0.00  0.00     0.083 H 
BRANCH  52  55
ATOM     55  C20 O2N d          -7.391  44.832   0.204  0.00  0.00    -0.013 A 
ATOM     56  C5  O2N d          -8.147  44.953  -0.995  0.00  0.00    -0.071 A 
ATOM     57  C10 O2N d          -8.840  43.846  -1.582  0.00  0.00    -0.047 A 
ATOM     58  H5  O2N d          -8.200  45.919  -1.483  0.00  0.00     0.084 H 
ATOM     59  C21 O2N d          -8.760  42.663  -0.887  0.00  0.00     0.106 A 
ATOM     60  H10 O2N d          -9.392  43.935  -2.511  0.00  0.00     0.087 H 
ATOM     61  C22 O2N d          -8.017  42.535   0.273  0.00  0.00     0.122 A 
ATOM     62  O41 O2N d          -9.342  41.479  -1.224  0.00  0.00    -0.323 OA
ATOM     63  C16 O2N d          -7.319  43.589   0.864  0.00  0.00     0.085 A 
ATOM     64  O42 O2N d          -8.075  41.241   0.805  0.00  0.00    -0.322 OA
ATOM     65  C29 O2N d          -8.872  40.581  -0.200  0.00  0.00     0.115 A 
ATOM     66  H18 O2N d          -8.263  39.798  -0.674  0.00  0.00     0.118 H 
ATOM     67  H19 O2N d          -9.743  40.121   0.290  0.00  0.00     0.118 H 
BRANCH  63  68
ATOM     68  C28 O2N d          -6.499  43.302   2.101  0.00  0.00     0.212 C 
ATOM     69  O38 O2N d          -7.141  43.392   3.197  0.00  0.00    -0.644 OA
ATOM     70  O40 O2N d          -5.305  42.860   2.108  0.00  0.00    -0.644 OA
ENDBRANCH  63  68
ENDBRANCH  52  55
ENDBRANCH  50  52
BRANCH  50  71
ATOM     71  C34 O2N d          -8.672  46.952   1.975  0.00  0.00     0.099 C 
ATOM     72  H30 O2N d          -9.610  47.356   1.567  0.00  0.00     0.082 H 
ATOM     73  H31 O2N d          -8.760  45.861   2.086  0.00  0.00     0.082 H 
BRANCH  71  74
ATOM     74  C26 O2N d          -8.491  47.532   3.350  0.00  0.00    -0.087 C 
ATOM     75  C25 O2N d          -7.599  47.006   4.208  0.00  0.00    -0.123 C 
ATOM     76  H15 O2N d          -7.478  47.437   5.201  0.00  0.00     0.066 H 
ATOM     77  H16 O2N d          -6.996  46.149   3.909  0.00  0.00     0.066 H 
ATOM     78  H17 O2N d          -9.090  48.389   3.656  0.00  0.00     0.078 H 
ENDBRANCH  71  74
ENDBRANCH  50  71
ENDBRANCH  47  50
ENDBRANCH   6  47
TORSDOF 15
ENDMDL
MODEL 6
REMARK VINA RESULT:      -6.1      2.161      8.318
REMARK  15 active torsions:
REMARK  status: ('A' for Active; 'I' for Inactive)
REMARK    1  A    between atoms: C27_27  and  C15_15 
REMARK    2  A    between atoms: C16_16  and  C28_28 
REMARK    3  A    between atoms: C35_35  and  C17_17 
REMARK    4  A    between atoms: C35_35  and  C18_18 
REMARK    5  A    between atoms: C19_19  and  C32_32 
REMARK    6  A    between atoms: C33_33  and  C20_20 
REMARK    7  A    between atoms: C23_23  and  O43_43 
REMARK    8  A    between atoms: C24_24  and  O44_44 
REMARK    9  A    between atoms: C34_34  and  C26_26 
REMARK       I    between atoms: N36_36  and  C27_27 
REMARK   10  A    between atoms: O43_43  and  C30_30 
REMARK   11  A    between atoms: O44_44  and  C31_31 
REMARK   12  A    between atoms: C32_32  and  N37_37 
REMARK   13  A    between atoms: N37_37  and  C33_33 
REMARK   14  A    between atoms: N37_37  and  C34_34 
REMARK   15  A    between atoms: C35_35  and  N36_36 
ROOT
ATOM      1  C1  O2N d         -12.168  50.498   2.789  0.00  0.00    -0.082 A 
ATOM      2  C2  O2N d         -11.260  51.441   2.361  0.00  0.00    -0.082 A 
ATOM      3  C3  O2N d         -12.090  49.229   2.229  0.00  0.00    -0.067 A 
ATOM      4  C4  O2N d         -10.289  51.153   1.416  0.00  0.00    -0.074 A 
ATOM      5  C15 O2N d         -11.130  48.921   1.282  0.00  0.00     0.040 A 
ATOM      6  C19 O2N d         -10.215  49.888   0.866  0.00  0.00    -0.017 A 
ATOM      7  H1  O2N d         -12.917  50.738   3.535  0.00  0.00     0.083 H 
ATOM      8  H2  O2N d         -11.307  52.441   2.777  0.00  0.00     0.083 H 
ATOM      9  H3  O2N d         -12.795  48.466   2.540  0.00  0.00     0.085 H 
ATOM     10  H4  O2N d          -9.586  51.920   1.108  0.00  0.00     0.084 H 
ENDROOT
BRANCH   5  11
ATOM     11  C27 O2N d         -11.075  47.545   0.743  0.00  0.00     0.253 C 
ATOM     12  N36 O2N d         -11.486  46.499   1.570  0.00  0.00    -0.344 N 
ATOM     13  H33 O2N d         -11.768  46.707   2.507  0.00  0.00     0.163 HD
ATOM     14  O39 O2N d         -10.644  47.398  -0.404  0.00  0.00    -0.268 OA
BRANCH  12  15
ATOM     15  C35 O2N d         -11.517  45.121   1.117  0.00  0.00     0.063 C 
ATOM     16  H32 O2N d         -12.116  44.536   1.831  0.00  0.00     0.088 H 
BRANCH  15  17
ATOM     17  C17 O2N d         -10.090  44.547   1.161  0.00  0.00    -0.031 A 
ATOM     18  C6  O2N d          -9.831  43.267   0.686  0.00  0.00    -0.072 A 
ATOM     19  C11 O2N d          -8.550  42.702   0.729  0.00  0.00    -0.050 A 
ATOM     20  H6  O2N d         -10.647  42.687   0.270  0.00  0.00     0.084 H 
ATOM     21  C23 O2N d          -7.503  43.514   1.236  0.00  0.00     0.068 A 
ATOM     22  H11 O2N d          -8.367  41.689   0.389  0.00  0.00     0.087 H 
ATOM     23  C12 O2N d          -7.728  44.779   1.754  0.00  0.00    -0.050 A 
ATOM     24  C7  O2N d          -9.041  45.272   1.700  0.00  0.00    -0.072 A 
ATOM     25  H12 O2N d          -6.923  45.363   2.185  0.00  0.00     0.087 H 
ATOM     26  H7  O2N d          -9.241  46.260   2.096  0.00  0.00     0.084 H 
BRANCH  21  27
ATOM     27  O43 O2N d          -6.219  42.943   1.268  0.00  0.00    -0.356 OA
BRANCH  27  28
ATOM     28  C30 O2N d          -5.251  43.391   2.241  0.00  0.00     0.010 C 
ATOM     29  H20 O2N d          -4.842  44.363   1.931  0.00  0.00     0.066 H 
ATOM     30  H21 O2N d          -4.435  42.656   2.311  0.00  0.00     0.066 H 
ATOM     31  H22 O2N d          -5.737  43.493   3.222  0.00  0.00     0.066 H 
ENDBRANCH  27  28
ENDBRANCH  21  27
ENDBRANCH  15  17
BRANCH  15  32
ATOM     32  C18 O2N d         -12.247  45.061  -0.223  0.00  0.00    -0.031 A 
ATOM     33  C8  O2N d         -13.546  45.552  -0.256  0.00  0.00    -0.072 A 
ATOM     34  C13 O2N d         -14.241  45.556  -1.463  0.00  0.00    -0.050 A 
ATOM     35  H8  O2N d         -14.013  45.928   0.647  0.00  0.00     0.084 H 
ATOM     36  C24 O2N d         -13.676  45.067  -2.635  0.00  0.00     0.068 A 
ATOM     37  H13 O2N d         -15.250  45.951  -1.489  0.00  0.00     0.087 H 
ATOM     38  C14 O2N d         -12.390  44.561  -2.660  0.00  0.00    -0.050 A 
ATOM     39  C9  O2N d         -11.705  44.611  -1.422  0.00  0.00    -0.072 A 
ATOM     40  H14 O2N d         -11.940  44.157  -3.559  0.00  0.00     0.087 H 
ATOM     41  H9  O2N d         -10.676  44.271  -1.407  0.00  0.00     0.084 H 
BRANCH  36  42
ATOM     42  O44 O2N d         -14.495  45.112  -3.763  0.00  0.00    -0.356 OA
BRANCH  42  43
ATOM     43  C31 O2N d         -15.750  44.465  -3.547  0.00  0.00     0.010 C 
ATOM     44  H23 O2N d         -15.794  44.086  -2.515  0.00  0.00     0.066 H 
ATOM     45  H24 O2N d         -15.855  43.626  -4.251  0.00  0.00     0.066 H 
ATOM     46  H25 O2N d         -16.566  45.185  -3.709  0.00  0.00     0.066 H 
ENDBRANCH  42  43
ENDBRANCH  36  42
ENDBRANCH  15  32
ENDBRANCH  12  15
ENDBRANCH   5  11
BRANCH   6  47
ATOM     47  C32 O2N d          -9.141  49.614  -0.135  0.00  0.00     0.109 C 
ATOM     48  H26 O2N d          -8.755  50.581  -0.492  0.00  0.00     0.083 H 
ATOM     49  H27 O2N d          -9.591  49.066  -0.975  0.00  0.00     0.083 H 
BRANCH  47  50
ATOM     50  N37 O2N d          -7.964  48.800   0.380  0.00  0.00    -0.060 N 
ATOM     51  H34 O2N d          -8.348  47.951   0.764  0.00  0.00     0.281 HD
BRANCH  50  52
ATOM     52  C33 O2N d          -7.110  49.446   1.522  0.00  0.00     0.109 C 
ATOM     53  H28 O2N d          -6.058  49.509   1.207  0.00  0.00     0.083 H 
ATOM     54  H29 O2N d          -7.488  50.456   1.740  0.00  0.00     0.083 H 
BRANCH  52  55
ATOM     55  C20 O2N d          -7.220  48.579   2.768  0.00  0.00    -0.013 A 
ATOM     56  C5  O2N d          -8.397  48.486   3.562  0.00  0.00    -0.071 A 
ATOM     57  C10 O2N d          -8.479  47.651   4.721  0.00  0.00    -0.047 A 
ATOM     58  H5  O2N d          -9.265  49.070   3.277  0.00  0.00     0.084 H 
ATOM     59  C21 O2N d          -7.329  46.971   5.042  0.00  0.00     0.106 A 
ATOM     60  H10 O2N d          -9.387  47.561   5.307  0.00  0.00     0.087 H 
ATOM     61  C22 O2N d          -6.184  47.047   4.268  0.00  0.00     0.122 A 
ATOM     62  O41 O2N d          -7.146  46.134   6.100  0.00  0.00    -0.323 OA
ATOM     63  C16 O2N d          -6.075  47.841   3.126  0.00  0.00     0.085 A 
ATOM     64  O42 O2N d          -5.139  46.268   4.782  0.00  0.00    -0.322 OA
ATOM     65  C29 O2N d          -5.800  45.655   5.908  0.00  0.00     0.115 A 
ATOM     66  H18 O2N d          -5.835  44.568   5.745  0.00  0.00     0.118 H 
ATOM     67  H19 O2N d          -5.218  45.871   6.816  0.00  0.00     0.118 H 
BRANCH  63  68
ATOM     68  C28 O2N d          -4.785  47.790   2.338  0.00  0.00     0.212 C 
ATOM     69  O38 O2N d          -4.720  46.845   1.487  0.00  0.00    -0.644 OA
ATOM     70  O40 O2N d          -3.868  48.672   2.369  0.00  0.00    -0.644 OA
ENDBRANCH  63  68
ENDBRANCH  52  55
ENDBRANCH  50  52
BRANCH  50  71
ATOM     71  C34 O2N d          -7.102  48.423  -0.786  0.00  0.00     0.099 C 
ATOM     72  H30 O2N d          -6.714  47.412  -0.596  0.00  0.00     0.082 H 
ATOM     73  H31 O2N d          -7.745  48.407  -1.680  0.00  0.00     0.082 H 
BRANCH  71  74
ATOM     74  C26 O2N d          -5.926  49.309  -1.093  0.00  0.00    -0.087 C 
ATOM     75  C25 O2N d          -4.733  48.781  -1.416  0.00  0.00    -0.123 C 
ATOM     76  H15 O2N d          -3.889  49.434  -1.636  0.00  0.00     0.066 H 
ATOM     77  H16 O2N d          -4.609  47.699  -1.459  0.00  0.00     0.066 H 
ATOM     78  H17 O2N d          -6.042  50.391  -1.052  0.00  0.00     0.078 H 
ENDBRANCH  71  74
ENDBRANCH  50  71
ENDBRANCH  47  50
ENDBRANCH   6  47
TORSDOF 15
ENDMDL
MODEL 7
REMARK VINA RESULT:      -6.1      2.260      3.904
REMARK  15 active torsions:
REMARK  status: ('A' for Active; 'I' for Inactive)
REMARK    1  A    between atoms: C27_27  and  C15_15 
REMARK    2  A    between atoms: C16_16  and  C28_28 
REMARK    3  A    between atoms: C35_35  and  C17_17 
REMARK    4  A    between atoms: C35_35  and  C18_18 
REMARK    5  A    between atoms: C19_19  and  C32_32 
REMARK    6  A    between atoms: C33_33  and  C20_20 
REMARK    7  A    between atoms: C23_23  and  O43_43 
REMARK    8  A    between atoms: C24_24  and  O44_44 
REMARK    9  A    between atoms: C34_34  and  C26_26 
REMARK       I    between atoms: N36_36  and  C27_27 
REMARK   10  A    between atoms: O43_43  and  C30_30 
REMARK   11  A    between atoms: O44_44  and  C31_31 
REMARK   12  A    between atoms: C32_32  and  N37_37 
REMARK   13  A    between atoms: N37_37  and  C33_33 
REMARK   14  A    between atoms: N37_37  and  C34_34 
REMARK   15  A    between atoms: C35_35  and  N36_36 
ROOT
ATOM      1  C1  O2N d          -6.696  42.972   2.491  0.00  0.00    -0.082 A 
ATOM      2  C2  O2N d          -6.856  42.427   1.236  0.00  0.00    -0.082 A 
ATOM      3  C3  O2N d          -7.149  44.269   2.693  0.00  0.00    -0.067 A 
ATOM      4  C4  O2N d          -7.455  43.128   0.201  0.00  0.00    -0.074 A 
ATOM      5  C15 O2N d          -7.747  44.986   1.672  0.00  0.00     0.040 A 
ATOM      6  C19 O2N d          -7.906  44.417   0.409  0.00  0.00    -0.017 A 
ATOM      7  H1  O2N d          -6.233  42.408   3.292  0.00  0.00     0.083 H 
ATOM      8  H2  O2N d          -6.503  41.420   1.052  0.00  0.00     0.083 H 
ATOM      9  H3  O2N d          -7.032  44.728   3.668  0.00  0.00     0.085 H 
ATOM     10  H4  O2N d          -7.570  42.664  -0.773  0.00  0.00     0.084 H 
ENDROOT
BRANCH   5  11
ATOM     11  C27 O2N d          -8.238  46.353   1.953  0.00  0.00     0.253 C 
ATOM     12  N36 O2N d          -7.304  47.325   2.312  0.00  0.00    -0.344 N 
ATOM     13  H33 O2N d          -6.343  47.061   2.404  0.00  0.00     0.163 HD
ATOM     14  O39 O2N d          -9.454  46.550   1.877  0.00  0.00    -0.268 OA
BRANCH  12  15
ATOM     15  C35 O2N d          -7.678  48.705   2.558  0.00  0.00     0.063 C 
ATOM     16  H32 O2N d          -6.864  49.191   3.117  0.00  0.00     0.088 H 
BRANCH  15  17
ATOM     17  C17 O2N d          -8.919  48.733   3.469  0.00  0.00    -0.031 A 
ATOM     18  C6  O2N d          -8.844  48.263   4.775  0.00  0.00    -0.072 A 
ATOM     19  C11 O2N d          -9.955  48.252   5.627  0.00  0.00    -0.050 A 
ATOM     20  H6  O2N d          -7.894  47.893   5.146  0.00  0.00     0.084 H 
ATOM     21  C23 O2N d         -11.165  48.790   5.118  0.00  0.00     0.068 A 
ATOM     22  H11 O2N d          -9.894  47.849   6.632  0.00  0.00     0.087 H 
ATOM     23  C12 O2N d         -11.289  49.231   3.811  0.00  0.00    -0.050 A 
ATOM     24  C7  O2N d         -10.140  49.192   3.006  0.00  0.00    -0.072 A 
ATOM     25  H12 O2N d         -12.236  49.591   3.425  0.00  0.00     0.087 H 
ATOM     26  H7  O2N d         -10.211  49.534   1.981  0.00  0.00     0.084 H 
BRANCH  21  27
ATOM     27  O43 O2N d         -12.273  48.782   5.982  0.00  0.00    -0.356 OA
BRANCH  27  28
ATOM     28  C30 O2N d         -13.098  49.960   6.113  0.00  0.00     0.010 C 
ATOM     29  H20 O2N d         -14.156  49.682   5.995  0.00  0.00     0.066 H 
ATOM     30  H21 O2N d         -12.823  50.689   5.338  0.00  0.00     0.066 H 
ATOM     31  H22 O2N d         -12.945  50.406   7.107  0.00  0.00     0.066 H 
ENDBRANCH  27  28
ENDBRANCH  21  27
ENDBRANCH  15  17
BRANCH  15  32
ATOM     32  C18 O2N d          -7.787  49.430   1.219  0.00  0.00    -0.031 A 
ATOM     33  C8  O2N d          -7.224  48.803   0.115  0.00  0.00    -0.072 A 
ATOM     34  C13 O2N d          -7.330  49.404  -1.137  0.00  0.00    -0.050 A 
ATOM     35  H8  O2N d          -6.708  47.856   0.226  0.00  0.00     0.084 H 
ATOM     36  C24 O2N d          -7.972  50.626  -1.311  0.00  0.00     0.068 A 
ATOM     37  H13 O2N d          -6.901  48.907  -2.000  0.00  0.00     0.087 H 
ATOM     38  C14 O2N d          -8.545  51.297  -0.248  0.00  0.00    -0.050 A 
ATOM     39  C9  O2N d          -8.449  50.634   1.000  0.00  0.00    -0.072 A 
ATOM     40  H14 O2N d          -9.031  52.260  -0.360  0.00  0.00     0.087 H 
ATOM     41  H9  O2N d          -8.929  51.101   1.851  0.00  0.00     0.084 H 
BRANCH  36  42
ATOM     42  O44 O2N d          -7.982  51.120  -2.615  0.00  0.00    -0.356 OA
BRANCH  42  43
ATOM     43  C31 O2N d          -9.302  51.398  -3.080  0.00  0.00     0.010 C 
ATOM     44  H23 O2N d          -9.797  50.457  -3.364  0.00  0.00     0.066 H 
ATOM     45  H24 O2N d          -9.250  52.063  -3.955  0.00  0.00     0.066 H 
ATOM     46  H25 O2N d          -9.877  51.888  -2.281  0.00  0.00     0.066 H 
ENDBRANCH  42  43
ENDBRANCH  36  42
ENDBRANCH  15  32
ENDBRANCH  12  15
ENDBRANCH   5  11
BRANCH   6  47
ATOM     47  C32 O2N d          -8.563  45.128  -0.728  0.00  0.00     0.109 C 
ATOM     48  H26 O2N d          -7.773  45.504  -1.395  0.00  0.00     0.083 H 
ATOM     49  H27 O2N d          -9.129  45.976  -0.316  0.00  0.00     0.083 H 
BRANCH  47  50
ATOM     50  N37 O2N d          -9.518  44.284  -1.558  0.00  0.00    -0.060 N 
ATOM     51  H34 O2N d          -8.947  43.721  -2.169  0.00  0.00     0.281 HD
BRANCH  50  52
ATOM     52  C33 O2N d         -10.512  45.060  -2.487  0.00  0.00     0.109 C 
ATOM     53  H28 O2N d          -9.973  45.445  -3.366  0.00  0.00     0.083 H 
ATOM     54  H29 O2N d         -11.314  44.384  -2.816  0.00  0.00     0.083 H 
BRANCH  52  55
ATOM     55  C20 O2N d         -11.110  46.221  -1.705  0.00  0.00    -0.013 A 
ATOM     56  C5  O2N d         -10.350  47.331  -1.239  0.00  0.00    -0.071 A 
ATOM     57  C10 O2N d         -10.940  48.418  -0.519  0.00  0.00    -0.047 A 
ATOM     58  H5  O2N d          -9.284  47.353  -1.437  0.00  0.00     0.084 H 
ATOM     59  C21 O2N d         -12.287  48.301  -0.272  0.00  0.00     0.106 A 
ATOM     60  H10 O2N d         -10.364  49.275  -0.190  0.00  0.00     0.087 H 
ATOM     61  C22 O2N d         -13.034  47.232  -0.733  0.00  0.00     0.122 A 
ATOM     62  O41 O2N d         -13.071  49.186   0.404  0.00  0.00    -0.323 OA
ATOM     63  C16 O2N d         -12.493  46.163  -1.449  0.00  0.00     0.085 A 
ATOM     64  O42 O2N d         -14.384  47.326  -0.369  0.00  0.00    -0.322 OA
ATOM     65  C29 O2N d         -14.385  48.605   0.298  0.00  0.00     0.115 A 
ATOM     66  H18 O2N d         -15.028  49.295  -0.268  0.00  0.00     0.118 H 
ATOM     67  H19 O2N d         -14.793  48.472   1.311  0.00  0.00     0.118 H 
BRANCH  63  68
ATOM     68  C28 O2N d         -13.430  45.084  -1.944  0.00  0.00     0.212 C 
ATOM     69  O38 O2N d         -13.994  45.340  -3.056  0.00  0.00    -0.644 OA
ATOM     70  O40 O2N d         -13.574  43.934  -1.417  0.00  0.00    -0.644 OA
ENDBRANCH  63  68
ENDBRANCH  52  55
ENDBRANCH  50  52
BRANCH  50  71
ATOM     71  C34 O2N d         -10.254  43.358  -0.640  0.00  0.00     0.099 C 
ATOM     72  H30 O2N d          -9.576  43.110   0.191  0.00  0.00     0.082 H 
ATOM     73  H31 O2N d         -11.127  43.902  -0.251  0.00  0.00     0.082 H 
BRANCH  71  74
ATOM     74  C26 O2N d         -10.751  42.061  -1.217  0.00  0.00    -0.087 C 
ATOM     75  C25 O2N d          -9.933  41.001  -1.335  0.00  0.00    -0.123 C 
ATOM     76  H15 O2N d         -10.307  40.068  -1.754  0.00  0.00     0.066 H 
ATOM     77  H16 O2N d          -8.896  41.074  -1.009  0.00  0.00     0.066 H 
ATOM     78  H17 O2N d         -11.787  41.980  -1.545  0.00  0.00     0.078 H 
ENDBRANCH  71  74
ENDBRANCH  50  71
ENDBRANCH  47  50
ENDBRANCH   6  47
TORSDOF 15
ENDMDL
MODEL 8
REMARK VINA RESULT:      -5.9      1.827      4.308
REMARK  15 active torsions:
REMARK  status: ('A' for Active; 'I' for Inactive)
REMARK    1  A    between atoms: C27_27  and  C15_15 
REMARK    2  A    between atoms: C16_16  and  C28_28 
REMARK    3  A    between atoms: C35_35  and  C17_17 
REMARK    4  A    between atoms: C35_35  and  C18_18 
REMARK    5  A    between atoms: C19_19  and  C32_32 
REMARK    6  A    between atoms: C33_33  and  C20_20 
REMARK    7  A    between atoms: C23_23  and  O43_43 
REMARK    8  A    between atoms: C24_24  and  O44_44 
REMARK    9  A    between atoms: C34_34  and  C26_26 
REMARK       I    between atoms: N36_36  and  C27_27 
REMARK   10  A    between atoms: O43_43  and  C30_30 
REMARK   11  A    between atoms: O44_44  and  C31_31 
REMARK   12  A    between atoms: C32_32  and  N37_37 
REMARK   13  A    between atoms: N37_37  and  C33_33 
REMARK   14  A    between atoms: N37_37  and  C34_34 
REMARK   15  A    between atoms: C35_35  and  N36_36 
ROOT
ATOM      1  C1  O2N d          -8.255  41.390   0.475  0.00  0.00    -0.082 A 
ATOM      2  C2  O2N d          -9.151  41.813  -0.481  0.00  0.00    -0.082 A 
ATOM      3  C3  O2N d          -7.585  42.364   1.205  0.00  0.00    -0.067 A 
ATOM      4  C4  O2N d          -9.399  43.156  -0.716  0.00  0.00    -0.074 A 
ATOM      5  C15 O2N d          -7.816  43.711   0.984  0.00  0.00     0.040 A 
ATOM      6  C19 O2N d          -8.732  44.119   0.015  0.00  0.00    -0.017 A 
ATOM      7  H1  O2N d          -8.078  40.336   0.652  0.00  0.00     0.083 H 
ATOM      8  H2  O2N d          -9.679  41.071  -1.069  0.00  0.00     0.083 H 
ATOM      9  H3  O2N d          -6.869  42.064   1.961  0.00  0.00     0.085 H 
ATOM     10  H4  O2N d         -10.117  43.451  -1.473  0.00  0.00     0.084 H 
ENDROOT
BRANCH   5  11
ATOM     11  C27 O2N d          -7.097  44.703   1.812  0.00  0.00     0.253 C 
ATOM     12  N36 O2N d          -7.727  45.178   2.963  0.00  0.00    -0.344 N 
ATOM     13  H33 O2N d          -8.654  44.864   3.171  0.00  0.00     0.163 HD
ATOM     14  O39 O2N d          -5.986  45.073   1.423  0.00  0.00    -0.268 OA
BRANCH  12  15
ATOM     15  C35 O2N d          -7.085  46.114   3.867  0.00  0.00     0.063 C 
ATOM     16  H32 O2N d          -7.863  46.600   4.473  0.00  0.00     0.088 H 
BRANCH  15  17
ATOM     17  C17 O2N d          -6.408  47.223   3.041  0.00  0.00    -0.031 A 
ATOM     18  C6  O2N d          -5.029  47.386   3.078  0.00  0.00    -0.072 A 
ATOM     19  C11 O2N d          -4.379  48.397   2.358  0.00  0.00    -0.050 A 
ATOM     20  H6  O2N d          -4.436  46.710   3.683  0.00  0.00     0.084 H 
ATOM     21  C23 O2N d          -5.187  49.229   1.540  0.00  0.00     0.068 A 
ATOM     22  H11 O2N d          -3.306  48.538   2.423  0.00  0.00     0.087 H 
ATOM     23  C12 O2N d          -6.568  49.123   1.508  0.00  0.00    -0.050 A 
ATOM     24  C7  O2N d          -7.153  48.102   2.272  0.00  0.00    -0.072 A 
ATOM     25  H12 O2N d          -7.172  49.801   0.916  0.00  0.00     0.087 H 
ATOM     26  H7  O2N d          -8.231  47.996   2.261  0.00  0.00     0.084 H 
BRANCH  21  27
ATOM     27  O43 O2N d          -4.527  50.235   0.816  0.00  0.00    -0.356 OA
BRANCH  27  28
ATOM     28  C30 O2N d          -5.195  50.896  -0.281  0.00  0.00     0.010 C 
ATOM     29  H20 O2N d          -5.338  50.183  -1.106  0.00  0.00     0.066 H 
ATOM     30  H21 O2N d          -4.582  51.740  -0.628  0.00  0.00     0.066 H 
ATOM     31  H22 O2N d          -6.174  51.268   0.056  0.00  0.00     0.066 H 
ENDBRANCH  27  28
ENDBRANCH  21  27
ENDBRANCH  15  17
BRANCH  15  32
ATOM     32  C18 O2N d          -6.198  45.332   4.833  0.00  0.00    -0.031 A 
ATOM     33  C8  O2N d          -5.949  44.001   4.524  0.00  0.00    -0.072 A 
ATOM     34  C13 O2N d          -5.114  43.255   5.353  0.00  0.00    -0.050 A 
ATOM     35  H8  O2N d          -6.398  43.549   3.647  0.00  0.00     0.084 H 
ATOM     36  C24 O2N d          -4.536  43.802   6.493  0.00  0.00     0.068 A 
ATOM     37  H13 O2N d          -4.911  42.220   5.103  0.00  0.00     0.087 H 
ATOM     38  C14 O2N d          -4.754  45.118   6.853  0.00  0.00    -0.050 A 
ATOM     39  C9  O2N d          -5.576  45.852   5.963  0.00  0.00    -0.072 A 
ATOM     40  H14 O2N d          -4.328  45.555   7.749  0.00  0.00     0.087 H 
ATOM     41  H9  O2N d          -5.732  46.902   6.180  0.00  0.00     0.084 H 
BRANCH  36  42
ATOM     42  O44 O2N d          -3.743  42.932   7.241  0.00  0.00    -0.356 OA
BRANCH  42  43
ATOM     43  C31 O2N d          -4.105  41.565   7.048  0.00  0.00     0.010 C 
ATOM     44  H23 O2N d          -3.264  41.024   6.588  0.00  0.00     0.066 H 
ATOM     45  H24 O2N d          -4.983  41.509   6.386  0.00  0.00     0.066 H 
ATOM     46  H25 O2N d          -4.348  41.109   8.019  0.00  0.00     0.066 H 
ENDBRANCH  42  43
ENDBRANCH  36  42
ENDBRANCH  15  32
ENDBRANCH  12  15
ENDBRANCH   5  11
BRANCH   6  47
ATOM     47  C32 O2N d          -9.044  45.554  -0.256  0.00  0.00     0.109 C 
ATOM     48  H26 O2N d          -8.923  45.729  -1.336  0.00  0.00     0.083 H 
ATOM     49  H27 O2N d          -8.321  46.170   0.299  0.00  0.00     0.083 H 
BRANCH  47  50
ATOM     50  N37 O2N d         -10.443  46.002   0.139  0.00  0.00    -0.060 N 
ATOM     51  H34 O2N d         -10.988  45.163   0.269  0.00  0.00     0.281 HD
BRANCH  50  52
ATOM     52  C33 O2N d         -11.223  46.868  -0.907  0.00  0.00     0.109 C 
ATOM     53  H28 O2N d         -11.684  47.730  -0.402  0.00  0.00     0.083 H 
ATOM     54  H29 O2N d         -10.529  47.224  -1.682  0.00  0.00     0.083 H 
BRANCH  52  55
ATOM     55  C20 O2N d         -12.306  46.010  -1.545  0.00  0.00    -0.013 A 
ATOM     56  C5  O2N d         -12.085  45.174  -2.674  0.00  0.00    -0.071 A 
ATOM     57  C10 O2N d         -13.118  44.365  -3.246  0.00  0.00    -0.047 A 
ATOM     58  H5  O2N d         -11.096  45.148  -3.118  0.00  0.00     0.084 H 
ATOM     59  C21 O2N d         -14.353  44.479  -2.655  0.00  0.00     0.106 A 
ATOM     60  H10 O2N d         -12.939  43.707  -4.089  0.00  0.00     0.087 H 
ATOM     61  C22 O2N d         -14.573  45.281  -1.549  0.00  0.00     0.122 A 
ATOM     62  O41 O2N d         -15.495  43.834  -3.022  0.00  0.00    -0.323 OA
ATOM     63  C16 O2N d         -13.586  46.071  -0.959  0.00  0.00     0.085 A 
ATOM     64  O42 O2N d         -15.904  45.238  -1.113  0.00  0.00    -0.322 OA
ATOM     65  C29 O2N d         -16.447  44.265  -2.030  0.00  0.00     0.115 A 
ATOM     66  H18 O2N d         -16.776  43.387  -1.455  0.00  0.00     0.118 H 
ATOM     67  H19 O2N d         -17.311  44.712  -2.544  0.00  0.00     0.118 H 
BRANCH  63  68
ATOM     68  C28 O2N d         -13.943  46.859   0.281  0.00  0.00     0.212 C 
ATOM     69  O38 O2N d         -14.257  48.074   0.066  0.00  0.00    -0.644 OA
ATOM     70  O40 O2N d         -14.082  46.372   1.449  0.00  0.00    -0.644 OA
ENDBRANCH  63  68
ENDBRANCH  52  55
ENDBRANCH  50  52
BRANCH  50  71
ATOM     71  C34 O2N d         -10.361  46.701   1.461  0.00  0.00     0.099 C 
ATOM     72  H30 O2N d         -10.855  46.060   2.205  0.00  0.00     0.082 H 
ATOM     73  H31 O2N d          -9.295  46.804   1.715  0.00  0.00     0.082 H 
BRANCH  71  74
ATOM     74  C26 O2N d         -10.981  48.068   1.560  0.00  0.00    -0.087 C 
ATOM     75  C25 O2N d         -11.547  48.485   2.707  0.00  0.00    -0.123 C 
ATOM     76  H15 O2N d         -11.992  49.478   2.765  0.00  0.00     0.066 H 
ATOM     77  H16 O2N d         -11.560  47.831   3.578  0.00  0.00     0.066 H 
ATOM     78  H17 O2N d         -10.972  48.728   0.694  0.00  0.00     0.078 H 
ENDBRANCH  71  74
ENDBRANCH  50  71
ENDBRANCH  47  50
ENDBRANCH   6  47
TORSDOF 15
ENDMDL
MODEL 9
REMARK VINA RESULT:      -5.8      2.224      3.589
REMARK  15 active torsions:
REMARK  status: ('A' for Active; 'I' for Inactive)
REMARK    1  A    between atoms: C27_27  and  C15_15 
REMARK    2  A    between atoms: C16_16  and  C28_28 
REMARK    3  A    between atoms: C35_35  and  C17_17 
REMARK    4  A    between atoms: C35_35  and  C18_18 
REMARK    5  A    between atoms: C19_19  and  C32_32 
REMARK    6  A    between atoms: C33_33  and  C20_20 
REMARK    7  A    between atoms: C23_23  and  O43_43 
REMARK    8  A    between atoms: C24_24  and  O44_44 
REMARK    9  A    between atoms: C34_34  and  C26_26 
REMARK       I    between atoms: N36_36  and  C27_27 
REMARK   10  A    between atoms: O43_43  and  C30_30 
REMARK   11  A    between atoms: O44_44  and  C31_31 
REMARK   12  A    between atoms: C32_32  and  N37_37 
REMARK   13  A    between atoms: N37_37  and  C33_33 
REMARK   14  A    between atoms: N37_37  and  C34_34 
REMARK   15  A    between atoms: C35_35  and  N36_36 
ROOT
ATOM      1  C1  O2N d          -8.994  41.661   0.714  0.00  0.00    -0.082 A 
ATOM      2  C2  O2N d          -9.918  42.132  -0.192  0.00  0.00    -0.082 A 
ATOM      3  C3  O2N d          -8.068  42.566   1.219  0.00  0.00    -0.067 A 
ATOM      4  C4  O2N d          -9.948  43.459  -0.591  0.00  0.00    -0.074 A 
ATOM      5  C15 O2N d          -8.079  43.894   0.831  0.00  0.00     0.040 A 
ATOM      6  C19 O2N d          -9.026  44.353  -0.083  0.00  0.00    -0.017 A 
ATOM      7  H1  O2N d          -8.989  40.622   1.022  0.00  0.00     0.083 H 
ATOM      8  H2  O2N d         -10.645  41.443  -0.606  0.00  0.00     0.083 H 
ATOM      9  H3  O2N d          -7.324  42.224   1.929  0.00  0.00     0.085 H 
ATOM     10  H4  O2N d         -10.695  43.795  -1.302  0.00  0.00     0.084 H 
ENDROOT
BRANCH   5  11
ATOM     11  C27 O2N d          -7.089  44.818   1.424  0.00  0.00     0.253 C 
ATOM     12  N36 O2N d          -7.508  45.651   2.462  0.00  0.00    -0.344 N 
ATOM     13  H33 O2N d          -8.466  45.624   2.747  0.00  0.00     0.163 HD
ATOM     14  O39 O2N d          -5.950  44.817   0.949  0.00  0.00    -0.268 OA
BRANCH  12  15
ATOM     15  C35 O2N d          -6.600  46.555   3.143  0.00  0.00     0.063 C 
ATOM     16  H32 O2N d          -5.838  46.888   2.423  0.00  0.00     0.088 H 
BRANCH  15  17
ATOM     17  C17 O2N d          -5.858  45.783   4.248  0.00  0.00    -0.031 A 
ATOM     18  C6  O2N d          -4.471  45.696   4.238  0.00  0.00    -0.072 A 
ATOM     19  C11 O2N d          -3.763  44.985   5.214  0.00  0.00    -0.050 A 
ATOM     20  H6  O2N d          -3.921  46.196   3.449  0.00  0.00     0.084 H 
ATOM     21  C23 O2N d          -4.519  44.388   6.255  0.00  0.00     0.068 A 
ATOM     22  H11 O2N d          -2.683  44.894   5.175  0.00  0.00     0.087 H 
ATOM     23  C12 O2N d          -5.904  44.418   6.278  0.00  0.00    -0.050 A 
ATOM     24  C7  O2N d          -6.549  45.130   5.256  0.00  0.00    -0.072 A 
ATOM     25  H12 O2N d          -6.466  43.913   7.055  0.00  0.00     0.087 H 
ATOM     26  H7  O2N d          -7.632  45.172   5.255  0.00  0.00     0.084 H 
BRANCH  21  27
ATOM     27  O43 O2N d          -3.800  43.682   7.234  0.00  0.00    -0.356 OA
BRANCH  27  28
ATOM     28  C30 O2N d          -3.800  42.238   7.234  0.00  0.00     0.010 C 
ATOM     29  H20 O2N d          -4.267  41.872   6.309  0.00  0.00     0.066 H 
ATOM     30  H21 O2N d          -4.367  41.872   8.101  0.00  0.00     0.066 H 
ATOM     31  H22 O2N d          -2.764  41.871   7.292  0.00  0.00     0.066 H 
ENDBRANCH  27  28
ENDBRANCH  21  27
ENDBRANCH  15  17
BRANCH  15  32
ATOM     32  C18 O2N d          -7.375  47.800   3.569  0.00  0.00    -0.031 A 
ATOM     33  C8  O2N d          -8.508  47.601   4.350  0.00  0.00    -0.072 A 
ATOM     34  C13 O2N d          -9.228  48.706   4.797  0.00  0.00    -0.050 A 
ATOM     35  H8  O2N d          -8.826  46.598   4.607  0.00  0.00     0.084 H 
ATOM     36  C24 O2N d          -8.854  50.005   4.471  0.00  0.00     0.068 A 
ATOM     37  H13 O2N d         -10.104  48.549   5.416  0.00  0.00     0.087 H 
ATOM     38  C14 O2N d          -7.741  50.262   3.693  0.00  0.00    -0.050 A 
ATOM     39  C9  O2N d          -7.015  49.114   3.292  0.00  0.00    -0.072 A 
ATOM     40  H14 O2N d          -7.446  51.266   3.412  0.00  0.00     0.087 H 
ATOM     41  H9  O2N d          -6.106  49.272   2.723  0.00  0.00     0.084 H 
BRANCH  36  42
ATOM     42  O44 O2N d          -9.681  51.012   4.968  0.00  0.00    -0.356 OA
BRANCH  42  43
ATOM     43  C31 O2N d         -10.805  50.490   5.676  0.00  0.00     0.010 C 
ATOM     44  H23 O2N d         -11.454  49.939   4.979  0.00  0.00     0.066 H 
ATOM     45  H24 O2N d         -11.371  51.318   6.127  0.00  0.00     0.066 H 
ATOM     46  H25 O2N d         -10.457  49.810   6.468  0.00  0.00     0.066 H 
ENDBRANCH  42  43
ENDBRANCH  36  42
ENDBRANCH  15  32
ENDBRANCH  12  15
ENDBRANCH   5  11
BRANCH   6  47
ATOM     47  C32 O2N d          -9.107  45.777  -0.525  0.00  0.00     0.109 C 
ATOM     48  H26 O2N d          -9.121  45.791  -1.625  0.00  0.00     0.083 H 
ATOM     49  H27 O2N d          -8.208  46.297  -0.163  0.00  0.00     0.083 H 
BRANCH  47  50
ATOM     50  N37 O2N d         -10.323  46.545  -0.030  0.00  0.00    -0.060 N 
ATOM     51  H34 O2N d         -10.900  45.882   0.465  0.00  0.00     0.281 HD
BRANCH  50  52
ATOM     52  C33 O2N d         -11.241  47.186  -1.124  0.00  0.00     0.109 C 
ATOM     53  H28 O2N d         -11.744  48.073  -0.711  0.00  0.00     0.083 H 
ATOM     54  H29 O2N d         -10.632  47.481  -1.991  0.00  0.00     0.083 H 
BRANCH  52  55
ATOM     55  C20 O2N d         -12.281  46.162  -1.554  0.00  0.00    -0.013 A 
ATOM     56  C5  O2N d         -12.047  45.171  -2.548  0.00  0.00    -0.071 A 
ATOM     57  C10 O2N d         -13.038  44.209  -2.924  0.00  0.00    -0.047 A 
ATOM     58  H5  O2N d         -11.080  45.143  -3.039  0.00  0.00     0.084 H 
ATOM     59  C21 O2N d         -14.250  44.331  -2.288  0.00  0.00     0.106 A 
ATOM     60  H10 O2N d         -12.846  43.438  -3.660  0.00  0.00     0.087 H 
ATOM     61  C22 O2N d         -14.481  45.284  -1.311  0.00  0.00     0.122 A 
ATOM     62  O41 O2N d         -15.353  43.556  -2.480  0.00  0.00    -0.323 OA
ATOM     63  C16 O2N d         -13.534  46.227  -0.913  0.00  0.00     0.085 A 
ATOM     64  O42 O2N d         -15.783  45.219  -0.798  0.00  0.00    -0.322 OA
ATOM     65  C29 O2N d         -16.289  44.074  -1.516  0.00  0.00     0.115 A 
ATOM     66  H18 O2N d         -16.522  43.280  -0.792  0.00  0.00     0.118 H 
ATOM     67  H19 O2N d         -17.209  44.370  -2.043  0.00  0.00     0.118 H 
BRANCH  63  68
ATOM     68  C28 O2N d         -13.895  47.179   0.206  0.00  0.00     0.212 C 
ATOM     69  O38 O2N d         -14.248  48.340  -0.178  0.00  0.00    -0.644 OA
ATOM     70  O40 O2N d         -14.000  46.865   1.435  0.00  0.00    -0.644 OA
ENDBRANCH  63  68
ENDBRANCH  52  55
ENDBRANCH  50  52
BRANCH  50  71
ATOM     71  C34 O2N d          -9.864  47.575   0.957  0.00  0.00     0.099 C 
ATOM     72  H30 O2N d          -9.369  47.043   1.782  0.00  0.00     0.082 H 
ATOM     73  H31 O2N d          -9.134  48.220   0.445  0.00  0.00     0.082 H 
BRANCH  71  74
ATOM     74  C26 O2N d         -10.911  48.471   1.560  0.00  0.00    -0.087 C 
ATOM     75  C25 O2N d         -10.841  49.806   1.414  0.00  0.00    -0.123 C 
ATOM     76  H15 O2N d         -11.606  50.442   1.856  0.00  0.00     0.066 H 
ATOM     77  H16 O2N d         -10.020  50.251   0.854  0.00  0.00     0.066 H 
ATOM     78  H17 O2N d         -11.735  48.033   2.121  0.00  0.00     0.078 H 
ENDBRANCH  71  74
ENDBRANCH  50  71
ENDBRANCH  47  50
ENDBRANCH   6  47
TORSDOF 15
ENDMDL
MODEL 10
REMARK VINA RESULT:      -5.7      2.126      4.710
REMARK  15 active torsions:
REMARK  status: ('A' for Active; 'I' for Inactive)
REMARK    1  A    between atoms: C27_27  and  C15_15 
REMARK    2  A    between atoms: C16_16  and  C28_28 
REMARK    3  A    between atoms: C35_35  and  C17_17 
REMARK    4  A    between atoms: C35_35  and  C18_18 
REMARK    5  A    between atoms: C19_19  and  C32_32 
REMARK    6  A    between atoms: C33_33  and  C20_20 
REMARK    7  A    between atoms: C23_23  and  O43_43 
REMARK    8  A    between atoms: C24_24  and  O44_44 
REMARK    9  A    between atoms: C34_34  and  C26_26 
REMARK       I    between atoms: N36_36  and  C27_27 
REMARK   10  A    between atoms: O43_43  and  C30_30 
REMARK   11  A    between atoms: O44_44  and  C31_31 
REMARK   12  A    between atoms: C32_32  and  N37_37 
REMARK   13  A    between atoms: N37_37  and  C33_33 
REMARK   14  A    between atoms: N37_37  and  C34_34 
REMARK   15  A    between atoms: C35_35  and  N36_36 
ROOT
ATOM      1  C1  O2N d          -9.001  42.712   0.763  0.00  0.00    -0.082 A 
ATOM      2  C2  O2N d          -9.186  42.967  -0.578  0.00  0.00    -0.082 A 
ATOM      3  C3  O2N d          -8.338  43.673   1.516  0.00  0.00    -0.067 A 
ATOM      4  C4  O2N d          -8.745  44.139  -1.172  0.00  0.00    -0.074 A 
ATOM      5  C15 O2N d          -7.887  44.848   0.941  0.00  0.00     0.040 A 
ATOM      6  C19 O2N d          -8.089  45.091  -0.417  0.00  0.00    -0.017 A 
ATOM      7  H1  O2N d          -9.359  41.794   1.214  0.00  0.00     0.083 H 
ATOM      8  H2  O2N d          -9.693  42.228  -1.187  0.00  0.00     0.083 H 
ATOM      9  H3  O2N d          -8.171  43.499   2.573  0.00  0.00     0.085 H 
ATOM     10  H4  O2N d          -8.915  44.308  -2.230  0.00  0.00     0.084 H 
ENDROOT
BRANCH   5  11
ATOM     11  C27 O2N d          -7.214  45.849   1.797  0.00  0.00     0.253 C 
ATOM     12  N36 O2N d          -7.940  46.404   2.852  0.00  0.00    -0.344 N 
ATOM     13  H33 O2N d          -8.897  46.138   2.973  0.00  0.00     0.163 HD
ATOM     14  O39 O2N d          -6.053  46.154   1.514  0.00  0.00    -0.268 OA
BRANCH  12  15
ATOM     15  C35 O2N d          -7.354  47.355   3.778  0.00  0.00     0.063 C 
ATOM     16  H32 O2N d          -6.753  48.074   3.202  0.00  0.00     0.088 H 
BRANCH  15  17
ATOM     17  C17 O2N d          -6.382  46.611   4.711  0.00  0.00    -0.031 A 
ATOM     18  C6  O2N d          -5.009  46.762   4.562  0.00  0.00    -0.072 A 
ATOM     19  C11 O2N d          -4.093  46.085   5.377  0.00  0.00    -0.050 A 
ATOM     20  H6  O2N d          -4.634  47.424   3.789  0.00  0.00     0.084 H 
ATOM     21  C23 O2N d          -4.625  45.268   6.407  0.00  0.00     0.068 A 
ATOM     22  H11 O2N d          -3.023  46.182   5.228  0.00  0.00     0.087 H 
ATOM     23  C12 O2N d          -5.987  45.062   6.562  0.00  0.00    -0.050 A 
ATOM     24  C7  O2N d          -6.845  45.754   5.695  0.00  0.00    -0.072 A 
ATOM     25  H12 O2N d          -6.372  44.393   7.323  0.00  0.00     0.087 H 
ATOM     26  H7  O2N d          -7.914  45.612   5.799  0.00  0.00     0.084 H 
BRANCH  21  27
ATOM     27  O43 O2N d          -3.700  44.599   7.225  0.00  0.00    -0.356 OA
BRANCH  27  28
ATOM     28  C30 O2N d          -3.509  43.174   7.089  0.00  0.00     0.010 C 
ATOM     29  H20 O2N d          -4.485  42.668   7.118  0.00  0.00     0.066 H 
ATOM     30  H21 O2N d          -2.881  42.808   7.914  0.00  0.00     0.066 H 
ATOM     31  H22 O2N d          -3.013  42.960   6.130  0.00  0.00     0.066 H 
ENDBRANCH  27  28
ENDBRANCH  21  27
ENDBRANCH  15  17
BRANCH  15  32
ATOM     32  C18 O2N d          -8.477  48.151   4.440  0.00  0.00    -0.031 A 
ATOM     33  C8  O2N d          -8.154  49.413   4.923  0.00  0.00    -0.072 A 
ATOM     34  C13 O2N d          -9.152  50.195   5.500  0.00  0.00    -0.050 A 
ATOM     35  H8  O2N d          -7.139  49.785   4.851  0.00  0.00     0.084 H 
ATOM     36  C24 O2N d         -10.461  49.741   5.622  0.00  0.00     0.068 A 
ATOM     37  H13 O2N d          -8.902  51.185   5.865  0.00  0.00     0.087 H 
ATOM     38  C14 O2N d         -10.836  48.492   5.165  0.00  0.00    -0.050 A 
ATOM     39  C9  O2N d          -9.802  47.745   4.550  0.00  0.00    -0.072 A 
ATOM     40  H14 O2N d         -11.847  48.113   5.270  0.00  0.00     0.087 H 
ATOM     41  H9  O2N d         -10.065  46.780   4.132  0.00  0.00     0.084 H 
BRANCH  36  42
ATOM     42  O44 O2N d         -11.348  50.621   6.242  0.00  0.00    -0.356 OA
BRANCH  42  43
ATOM     43  C31 O2N d         -12.155  49.973   7.225  0.00  0.00     0.010 C 
ATOM     44  H23 O2N d         -13.151  50.441   7.247  0.00  0.00     0.066 H 
ATOM     45  H24 O2N d         -11.681  50.074   8.213  0.00  0.00     0.066 H 
ATOM     46  H25 O2N d         -12.256  48.907   6.973  0.00  0.00     0.066 H 
ENDBRANCH  42  43
ENDBRANCH  36  42
ENDBRANCH  15  32
ENDBRANCH  12  15
ENDBRANCH   5  11
BRANCH   6  47
ATOM     47  C32 O2N d          -7.648  46.347  -1.093  0.00  0.00     0.109 C 
ATOM     48  H26 O2N d          -7.782  46.215  -2.177  0.00  0.00     0.083 H 
ATOM     49  H27 O2N d          -6.582  46.497  -0.871  0.00  0.00     0.083 H 
BRANCH  47  50
ATOM     50  N37 O2N d          -8.394  47.607  -0.678  0.00  0.00    -0.060 N 
ATOM     51  H34 O2N d          -8.795  47.418   0.227  0.00  0.00     0.281 HD
BRANCH  50  52
ATOM     52  C33 O2N d          -9.582  48.052  -1.595  0.00  0.00     0.109 C 
ATOM     53  H28 O2N d          -9.761  49.131  -1.471  0.00  0.00     0.083 H 
ATOM     54  H29 O2N d          -9.338  47.840  -2.646  0.00  0.00     0.083 H 
BRANCH  52  55
ATOM     55  C20 O2N d         -10.830  47.278  -1.194  0.00  0.00    -0.013 A 
ATOM     56  C5  O2N d         -11.237  46.065  -1.815  0.00  0.00    -0.071 A 
ATOM     57  C10 O2N d         -12.407  45.348  -1.408  0.00  0.00    -0.047 A 
ATOM     58  H5  O2N d         -10.638  45.668  -2.627  0.00  0.00     0.084 H 
ATOM     59  C21 O2N d         -13.137  45.931  -0.400  0.00  0.00     0.106 A 
ATOM     60  H10 O2N d         -12.699  44.409  -1.864  0.00  0.00     0.087 H 
ATOM     61  C22 O2N d         -12.740  47.104   0.217  0.00  0.00     0.122 A 
ATOM     62  O41 O2N d         -14.291  45.460   0.148  0.00  0.00    -0.323 OA
ATOM     63  C16 O2N d         -11.599  47.821  -0.146  0.00  0.00     0.085 A 
ATOM     64  O42 O2N d         -13.632  47.509   1.219  0.00  0.00    -0.322 OA
ATOM     65  C29 O2N d         -14.570  46.414   1.191  0.00  0.00     0.115 A 
ATOM     66  H18 O2N d         -14.532  45.895   2.160  0.00  0.00     0.118 H 
ATOM     67  H19 O2N d         -15.580  46.821   1.033  0.00  0.00     0.118 H 
BRANCH  63  68
ATOM     68  C28 O2N d         -11.247  49.059   0.647  0.00  0.00     0.212 C 
ATOM     69  O38 O2N d         -12.012  50.056   0.442  0.00  0.00    -0.644 OA
ATOM     70  O40 O2N d         -10.367  49.121   1.565  0.00  0.00    -0.644 OA
ENDBRANCH  63  68
ENDBRANCH  52  55
ENDBRANCH  50  52
BRANCH  50  71
ATOM     71  C34 O2N d          -7.399  48.714  -0.513  0.00  0.00     0.099 C 
ATOM     72  H30 O2N d          -7.799  49.597  -1.032  0.00  0.00     0.082 H 
ATOM     73  H31 O2N d          -7.317  48.927   0.563  0.00  0.00     0.082 H 
BRANCH  71  74
ATOM     74  C26 O2N d          -6.007  48.477  -1.033  0.00  0.00    -0.087 C 
ATOM     75  C25 O2N d          -5.331  49.455  -1.661  0.00  0.00    -0.123 C 
ATOM     76  H15 O2N d          -4.324  49.270  -2.032  0.00  0.00     0.066 H 
ATOM     77  H16 O2N d          -5.791  50.434  -1.799  0.00  0.00     0.066 H 
ATOM     78  H17 O2N d          -5.541  47.502  -0.899  0.00  0.00     0.078 H 
ENDBRANCH  71  74
ENDBRANCH  50  71
ENDBRANCH  47  50
ENDBRANCH   6  47
TORSDOF 15
ENDMDL
