MODEL 1
REMARK VINA RESULT:      -6.3      0.000      0.000
REMARK  16 active torsions:
REMARK  status: ('A' for Active; 'I' for Inactive)
REMARK    1  A    between atoms: C1_1  and  C2_4 
REMARK    2  A    between atoms: C2_4  and  O2_16 
REMARK    3  A    between atoms: C4_6  and  O4_7 
REMARK    4  A    between atoms: C5_8  and  O5_9 
REMARK    5  A    between atoms: C6_10  and  C7_12 
REMARK    6  A    between atoms: C7_12  and  O7_13 
REMARK    7  A    between atoms: C7_12  and  C8_14 
REMARK    8  A    between atoms: C8_14  and  O8_15 
REMARK    9  A    between atoms: O8_15  and  C2_20 
REMARK   10  A    between atoms: O2_16  and  C9_17 
REMARK   11  A    between atoms: C10_18  and  C11_19 
REMARK   12  A    between atoms: C2_20  and  C1_21 
REMARK   13  A    between atoms: C6_27  and  C7_29 
REMARK   14  A    between atoms: C7_29  and  O7_30 
REMARK   15  A    between atoms: C7_29  and  C8_31 
REMARK   16  A    between atoms: C8_31  and  O8_32 
ROOT
ATOM      1  C7  KDA d          29.676  -5.067   1.825  0.00  0.00     0.083 C 
ATOM      2  H8  KDA d          30.754  -5.086   1.603  0.00  0.00     0.090 H 
ENDROOT
BRANCH   1   3
ATOM      3  C6  KDA d          29.045  -3.825   1.207  0.00  0.00     0.096 C 
ATOM      4  C5  KDA d          28.221  -4.064  -0.076  0.00  0.00     0.088 C 
ATOM      5  C4  KDA d          27.726  -2.712  -0.632  0.00  0.00     0.068 C 
ATOM      6  H5  KDA d          27.349  -4.695   0.150  0.00  0.00     0.091 H 
ATOM      7  C3  KDA d          28.832  -1.646  -0.783  0.00  0.00     0.024 C 
ATOM      8  H3  KDA d          26.971  -2.324   0.067  0.00  0.00     0.087 H 
ATOM      9  C2  KDA d          29.726  -1.615   0.479  0.00  0.00     0.262 C 
ATOM     10  H1  KDA d          29.451  -1.888  -1.659  0.00  0.00     0.045 H 
ATOM     11  H2  KDA d          28.368  -0.659  -0.923  0.00  0.00     0.045 H 
ATOM     12  O6  KDA d          30.136  -2.918   0.890  0.00  0.00    -0.335 OA
ATOM     13  H7  KDA d          28.383  -3.365   1.955  0.00  0.00     0.091 H 
BRANCH   4  14
ATOM     14  O5  KDA d          29.097  -4.761  -1.011  0.00  0.00    -0.390 OA
ATOM     15  H6  KDA d          30.002  -4.571  -0.796  0.00  0.00     0.210 HD
ENDBRANCH   4  14
BRANCH   5  16
ATOM     16  O4  KDA d          27.121  -2.884  -1.914  0.00  0.00    -0.393 OA
ATOM     17  H4  KDA d          26.178  -2.941  -1.813  0.00  0.00     0.210 HD
ENDBRANCH   5  16
BRANCH   9  18
ATOM     18  C1  KDA d          30.949  -0.749   0.108  0.00  0.00     0.239 C 
ATOM     19  O1A KDA d          30.846   0.495   0.222  0.00  0.00    -0.644 OA
ATOM     20  O1B KDA d          31.965  -1.374  -0.290  0.00  0.00    -0.644 OA
ENDBRANCH   9  18
BRANCH   9  21
ATOM     21  O2  KDA d          28.977  -0.971   1.562  0.00  0.00    -0.317 OA
BRANCH  21  22
ATOM     22  C9  KDA d          29.828  -0.870   2.643  0.00  0.00     0.013 C 
ATOM     23  C10 KDA d          29.608  -0.063   3.754  0.00  0.00    -0.086 C 
ATOM     24  H13 KDA d          30.367  -0.023   4.534  0.00  0.00     0.079 H 
ATOM     25  H12 KDA d          30.739  -1.465   2.625  0.00  0.00     0.122 H 
BRANCH  23  26
ATOM     26  C11 KDA d          28.464   0.686   3.899  0.00  0.00    -0.058 C 
ATOM     27  H14 KDA d          28.312   1.301   3.000  0.00  0.00     0.032 H 
ATOM     28  H15 KDA d          28.563   1.340   4.778  0.00  0.00     0.032 H 
ATOM     29  H16 KDA d          27.602   0.017   4.036  0.00  0.00     0.032 H 
ENDBRANCH  23  26
ENDBRANCH  21  22
ENDBRANCH   9  21
ENDBRANCH   1   3
BRANCH   1  30
ATOM     30  O7  KDA d          29.037  -6.226   1.277  0.00  0.00    -0.391 OA
ATOM     31  H9  KDA d          28.345  -5.955   0.686  0.00  0.00     0.210 HD
ENDBRANCH   1  30
BRANCH   1  32
ATOM     32  C8  KDA d          29.457  -5.070   3.339  0.00  0.00     0.050 C 
ATOM     33  H10 KDA d          30.416  -5.052   3.877  0.00  0.00     0.078 H 
ATOM     34  H11 KDA d          28.878  -5.951   3.652  0.00  0.00     0.078 H 
BRANCH  32  35
ATOM     35  O8  KDA d          28.703  -3.838   3.567  0.00  0.00    -0.341 OA
BRANCH  35  36
ATOM     36  C2  KDA d          27.615  -3.962   4.544  0.00  0.00     0.276 C 
ATOM     37  C3  KDA d          27.072  -2.711   4.845  0.00  0.00    -0.036 C 
ATOM     38  C4  KDA d          27.200  -2.056   6.090  0.00  0.00    -0.099 C 
ATOM     39  H17 KDA d          26.507  -2.205   4.063  0.00  0.00     0.085 H 
ATOM     40  C5  KDA d          27.915  -2.604   7.162  0.00  0.00    -0.023 C 
ATOM     41  H18 KDA d          26.724  -1.085   6.221  0.00  0.00     0.076 H 
ATOM     42  C6  KDA d          28.796  -3.769   6.711  0.00  0.00     0.072 C 
ATOM     43  H19 KDA d          27.203  -2.967   7.918  0.00  0.00     0.042 H 
ATOM     44  H20 KDA d          28.553  -1.824   7.603  0.00  0.00     0.042 H 
ATOM     45  O6  KDA d          28.095  -4.604   5.750  0.00  0.00    -0.335 OA
ATOM     46  H21 KDA d          29.706  -3.345   6.263  0.00  0.00     0.088 H 
BRANCH  36  47
ATOM     47  C1  KDA d          26.512  -4.846   3.949  0.00  0.00     0.243 C 
ATOM     48  O1B KDA d          25.943  -4.420   2.950  0.00  0.00    -0.644 OA
ATOM     49  O1A KDA d          26.277  -5.929   4.519  0.00  0.00    -0.644 OA
ENDBRANCH  36  47
BRANCH  42  50
ATOM     50  C7  KDA d          29.189  -4.798   7.788  0.00  0.00     0.081 C 
ATOM     51  H22 KDA d          28.273  -5.124   8.302  0.00  0.00     0.090 H 
BRANCH  50  52
ATOM     52  O7  KDA d          30.049  -4.171   8.727  0.00  0.00    -0.391 OA
ATOM     53  H23 KDA d          29.815  -4.448   9.605  0.00  0.00     0.210 HD
ENDBRANCH  50  52
BRANCH  50  54
ATOM     54  C8  KDA d          29.883  -6.031   7.228  0.00  0.00     0.043 C 
ATOM     55  H24 KDA d          30.514  -6.476   8.012  0.00  0.00     0.078 H 
ATOM     56  H25 KDA d          30.513  -5.735   6.376  0.00  0.00     0.078 H 
BRANCH  54  57
ATOM     57  O8  KDA d          28.925  -7.007   6.787  0.00  0.00    -0.398 OA
ATOM     58  H26 KDA d          28.056  -6.744   7.066  0.00  0.00     0.209 HD
ENDBRANCH  54  57
ENDBRANCH  50  54
ENDBRANCH  42  50
ENDBRANCH  35  36
ENDBRANCH  32  35
ENDBRANCH   1  32
TORSDOF 16
ENDMDL
MODEL 2
REMARK VINA RESULT:      -5.6      1.825      4.206
REMARK  16 active torsions:
REMARK  status: ('A' for Active; 'I' for Inactive)
REMARK    1  A    between atoms: C1_1  and  C2_4 
REMARK    2  A    between atoms: C2_4  and  O2_16 
REMARK    3  A    between atoms: C4_6  and  O4_7 
REMARK    4  A    between atoms: C5_8  and  O5_9 
REMARK    5  A    between atoms: C6_10  and  C7_12 
REMARK    6  A    between atoms: C7_12  and  O7_13 
REMARK    7  A    between atoms: C7_12  and  C8_14 
REMARK    8  A    between atoms: C8_14  and  O8_15 
REMARK    9  A    between atoms: O8_15  and  C2_20 
REMARK   10  A    between atoms: O2_16  and  C9_17 
REMARK   11  A    between atoms: C10_18  and  C11_19 
REMARK   12  A    between atoms: C2_20  and  C1_21 
REMARK   13  A    between atoms: C6_27  and  C7_29 
REMARK   14  A    between atoms: C7_29  and  O7_30 
REMARK   15  A    between atoms: C7_29  and  C8_31 
REMARK   16  A    between atoms: C8_31  and  O8_32 
ROOT
ATOM      1  C7  KDA d          30.424  -0.692   1.423  0.00  0.00     0.083 C 
ATOM      2  H8  KDA d          29.677   0.110   1.329  0.00  0.00     0.090 H 
ENDROOT
BRANCH   1   3
ATOM      3  C6  KDA d          29.922  -1.948   0.721  0.00  0.00     0.096 C 
ATOM      4  C5  KDA d          28.837  -1.725  -0.352  0.00  0.00     0.088 C 
ATOM      5  C4  KDA d          28.366  -3.087  -0.904  0.00  0.00     0.068 C 
ATOM      6  H5  KDA d          29.245  -1.128  -1.181  0.00  0.00     0.091 H 
ATOM      7  C3  KDA d          27.976  -4.110   0.183  0.00  0.00     0.024 C 
ATOM      8  H3  KDA d          29.196  -3.510  -1.490  0.00  0.00     0.087 H 
ATOM      9  C2  KDA d          29.031  -4.125   1.313  0.00  0.00     0.262 C 
ATOM     10  H1  KDA d          26.997  -3.837   0.604  0.00  0.00     0.045 H 
ATOM     11  H2  KDA d          27.913  -5.112  -0.268  0.00  0.00     0.045 H 
ATOM     12  O6  KDA d          29.375  -2.812   1.754  0.00  0.00    -0.335 OA
ATOM     13  H7  KDA d          30.780  -2.441   0.239  0.00  0.00     0.091 H 
BRANCH   4  14
ATOM     14  O5  KDA d          27.758  -0.986   0.293  0.00  0.00    -0.390 OA
ATOM     15  H6  KDA d          28.068  -0.121   0.534  0.00  0.00     0.210 HD
ENDBRANCH   4  14
BRANCH   5  16
ATOM     16  O4  KDA d          27.235  -2.922  -1.761  0.00  0.00    -0.393 OA
ATOM     17  H4  KDA d          27.153  -3.683  -2.324  0.00  0.00     0.210 HD
ENDBRANCH   5  16
BRANCH   9  18
ATOM     18  C1  KDA d          28.406  -4.941   2.464  0.00  0.00     0.239 C 
ATOM     19  O1A KDA d          28.295  -4.389   3.584  0.00  0.00    -0.644 OA
ATOM     20  O1B KDA d          28.056  -6.115   2.180  0.00  0.00    -0.644 OA
ENDBRANCH   9  18
BRANCH   9  21
ATOM     21  O2  KDA d          30.231  -4.807   0.820  0.00  0.00    -0.317 OA
BRANCH  21  22
ATOM     22  C9  KDA d          31.125  -4.871   1.868  0.00  0.00     0.013 C 
ATOM     23  C10 KDA d          32.454  -4.471   1.804  0.00  0.00    -0.086 C 
ATOM     24  H13 KDA d          33.088  -4.606   2.680  0.00  0.00     0.079 H 
ATOM     25  H12 KDA d          30.762  -5.265   2.817  0.00  0.00     0.122 H 
BRANCH  23  26
ATOM     26  C11 KDA d          32.996  -3.911   0.671  0.00  0.00    -0.058 C 
ATOM     27  H14 KDA d          33.691  -3.107   0.956  0.00  0.00     0.032 H 
ATOM     28  H15 KDA d          32.192  -3.496   0.047  0.00  0.00     0.032 H 
ATOM     29  H16 KDA d          33.539  -4.682   0.104  0.00  0.00     0.032 H 
ENDBRANCH  23  26
ENDBRANCH  21  22
ENDBRANCH   9  21
ENDBRANCH   1   3
BRANCH   1  30
ATOM     30  O7  KDA d          31.659  -0.292   0.816  0.00  0.00    -0.391 OA
ATOM     31  H9  KDA d          32.162   0.223   1.436  0.00  0.00     0.210 HD
ENDBRANCH   1  30
BRANCH   1  32
ATOM     32  C8  KDA d          30.689  -0.985   2.900  0.00  0.00     0.050 C 
ATOM     33  H10 KDA d          31.767  -1.079   3.098  0.00  0.00     0.078 H 
ATOM     34  H11 KDA d          30.177  -1.905   3.219  0.00  0.00     0.078 H 
BRANCH  32  35
ATOM     35  O8  KDA d          30.131   0.187   3.576  0.00  0.00    -0.341 OA
BRANCH  35  36
ATOM     36  C2  KDA d          28.945  -0.090   4.394  0.00  0.00     0.276 C 
ATOM     37  C3  KDA d          28.740   0.924   5.332  0.00  0.00    -0.036 C 
ATOM     38  C4  KDA d          28.900   0.775   6.728  0.00  0.00    -0.099 C 
ATOM     39  H17 KDA d          28.435   1.902   4.960  0.00  0.00     0.085 H 
ATOM     40  C5  KDA d          29.302  -0.430   7.317  0.00  0.00    -0.023 C 
ATOM     41  H18 KDA d          28.701   1.631   7.371  0.00  0.00     0.076 H 
ATOM     42  C6  KDA d          29.870  -1.399   6.280  0.00  0.00     0.072 C 
ATOM     43  H19 KDA d          28.434  -0.898   7.804  0.00  0.00     0.042 H 
ATOM     44  H20 KDA d          30.076  -0.219   8.070  0.00  0.00     0.042 H 
ATOM     45  O6  KDA d          29.083  -1.369   5.060  0.00  0.00    -0.335 OA
ATOM     46  H21 KDA d          30.909  -1.099   6.077  0.00  0.00     0.088 H 
BRANCH  36  47
ATOM     47  C1  KDA d          27.717  -0.167   3.479  0.00  0.00     0.243 C 
ATOM     48  O1B KDA d          27.460   0.832   2.816  0.00  0.00    -0.644 OA
ATOM     49  O1A KDA d          27.075  -1.235   3.471  0.00  0.00    -0.644 OA
ENDBRANCH  36  47
BRANCH  42  50
ATOM     50  C7  KDA d          29.832  -2.897   6.638  0.00  0.00     0.081 C 
ATOM     51  H22 KDA d          30.547  -3.072   7.456  0.00  0.00     0.090 H 
BRANCH  50  52
ATOM     52  O7  KDA d          30.233  -3.649   5.503  0.00  0.00    -0.391 OA
ATOM     53  H23 KDA d          29.948  -4.550   5.604  0.00  0.00     0.210 HD
ENDBRANCH  50  52
BRANCH  50  54
ATOM     54  C8  KDA d          28.463  -3.380   7.093  0.00  0.00     0.043 C 
ATOM     55  H24 KDA d          28.102  -2.728   7.902  0.00  0.00     0.078 H 
ATOM     56  H25 KDA d          28.551  -4.411   7.467  0.00  0.00     0.078 H 
BRANCH  54  57
ATOM     57  O8  KDA d          27.519  -3.352   6.010  0.00  0.00    -0.398 OA
ATOM     58  H26 KDA d          27.620  -4.136   5.483  0.00  0.00     0.209 HD
ENDBRANCH  54  57
ENDBRANCH  50  54
ENDBRANCH  42  50
ENDBRANCH  35  36
ENDBRANCH  32  35
ENDBRANCH   1  32
TORSDOF 16
ENDMDL
MODEL 3
REMARK VINA RESULT:      -5.4      1.896      3.448
REMARK  16 active torsions:
REMARK  status: ('A' for Active; 'I' for Inactive)
REMARK    1  A    between atoms: C1_1  and  C2_4 
REMARK    2  A    between atoms: C2_4  and  O2_16 
REMARK    3  A    between atoms: C4_6  and  O4_7 
REMARK    4  A    between atoms: C5_8  and  O5_9 
REMARK    5  A    between atoms: C6_10  and  C7_12 
REMARK    6  A    between atoms: C7_12  and  O7_13 
REMARK    7  A    between atoms: C7_12  and  C8_14 
REMARK    8  A    between atoms: C8_14  and  O8_15 
REMARK    9  A    between atoms: O8_15  and  C2_20 
REMARK   10  A    between atoms: O2_16  and  C9_17 
REMARK   11  A    between atoms: C10_18  and  C11_19 
REMARK   12  A    between atoms: C2_20  and  C1_21 
REMARK   13  A    between atoms: C6_27  and  C7_29 
REMARK   14  A    between atoms: C7_29  and  O7_30 
REMARK   15  A    between atoms: C7_29  and  C8_31 
REMARK   16  A    between atoms: C8_31  and  O8_32 
ROOT
ATOM      1  C7  KDA d          28.264  -4.989   0.323  0.00  0.00     0.083 C 
ATOM      2  H8  KDA d          28.769  -5.591  -0.448  0.00  0.00     0.090 H 
ENDROOT
BRANCH   1   3
ATOM      3  C6  KDA d          28.784  -3.557   0.280  0.00  0.00     0.096 C 
ATOM      4  C5  KDA d          27.860  -2.532  -0.411  0.00  0.00     0.088 C 
ATOM      5  C4  KDA d          28.557  -1.156  -0.459  0.00  0.00     0.068 C 
ATOM      6  H5  KDA d          26.920  -2.434   0.151  0.00  0.00     0.091 H 
ATOM      7  C3  KDA d          29.992  -1.192  -1.025  0.00  0.00     0.024 C 
ATOM      8  H3  KDA d          28.606  -0.775   0.572  0.00  0.00     0.087 H 
ATOM      9  C2  KDA d          30.784  -2.372  -0.413  0.00  0.00     0.262 C 
ATOM     10  H1  KDA d          29.948  -1.313  -2.117  0.00  0.00     0.045 H 
ATOM     11  H2  KDA d          30.502  -0.248  -0.781  0.00  0.00     0.045 H 
ATOM     12  O6  KDA d          30.047  -3.594  -0.439  0.00  0.00    -0.335 OA
ATOM     13  H7  KDA d          28.953  -3.219   1.313  0.00  0.00     0.091 H 
BRANCH   4  14
ATOM     14  O5  KDA d          27.577  -3.056  -1.742  0.00  0.00    -0.390 OA
ATOM     15  H6  KDA d          27.430  -2.334  -2.341  0.00  0.00     0.210 HD
ENDBRANCH   4  14
BRANCH   5  16
ATOM     16  O4  KDA d          27.808  -0.236  -1.254  0.00  0.00    -0.393 OA
ATOM     17  H4  KDA d          28.234  -0.129  -2.097  0.00  0.00     0.210 HD
ENDBRANCH   5  16
BRANCH   9  18
ATOM     18  C1  KDA d          32.074  -2.494  -1.251  0.00  0.00     0.239 C 
ATOM     19  O1A KDA d          32.337  -3.607  -1.766  0.00  0.00    -0.644 OA
ATOM     20  O1B KDA d          32.769  -1.451  -1.346  0.00  0.00    -0.644 OA
ENDBRANCH   9  18
BRANCH   9  21
ATOM     21  O2  KDA d          31.125  -2.034   0.971  0.00  0.00    -0.317 OA
BRANCH  21  22
ATOM     22  C9  KDA d          31.979  -3.014   1.432  0.00  0.00     0.013 C 
ATOM     23  C10 KDA d          32.437  -3.116   2.741  0.00  0.00    -0.086 C 
ATOM     24  H13 KDA d          33.147  -3.905   2.991  0.00  0.00     0.079 H 
ATOM     25  H12 KDA d          32.320  -3.762   0.719  0.00  0.00     0.122 H 
BRANCH  23  26
ATOM     26  C11 KDA d          32.025  -2.255   3.731  0.00  0.00    -0.058 C 
ATOM     27  H14 KDA d          31.979  -1.232   3.330  0.00  0.00     0.032 H 
ATOM     28  H15 KDA d          32.738  -2.289   4.567  0.00  0.00     0.032 H 
ATOM     29  H16 KDA d          31.028  -2.555   4.086  0.00  0.00     0.032 H 
ENDBRANCH  23  26
ENDBRANCH  21  22
ENDBRANCH   9  21
ENDBRANCH   1   3
BRANCH   1  30
ATOM     30  O7  KDA d          26.851  -4.969   0.089  0.00  0.00    -0.391 OA
ATOM     31  H9  KDA d          26.600  -4.121  -0.257  0.00  0.00     0.210 HD
ENDBRANCH   1  30
BRANCH   1  32
ATOM     32  C8  KDA d          28.513  -5.597   1.704  0.00  0.00     0.050 C 
ATOM     33  H10 KDA d          29.235  -6.425   1.647  0.00  0.00     0.078 H 
ATOM     34  H11 KDA d          27.576  -5.959   2.151  0.00  0.00     0.078 H 
BRANCH  32  35
ATOM     35  O8  KDA d          29.060  -4.475   2.467  0.00  0.00    -0.341 OA
BRANCH  35  36
ATOM     36  C2  KDA d          28.283  -4.112   3.657  0.00  0.00     0.276 C 
ATOM     37  C3  KDA d          26.922  -4.341   3.451  0.00  0.00    -0.036 C 
ATOM     38  C4  KDA d          25.943  -3.329   3.339  0.00  0.00    -0.099 C 
ATOM     39  H17 KDA d          26.590  -5.375   3.372  0.00  0.00     0.085 H 
ATOM     40  C5  KDA d          26.255  -1.965   3.410  0.00  0.00    -0.023 C 
ATOM     41  H18 KDA d          24.904  -3.621   3.191  0.00  0.00     0.076 H 
ATOM     42  C6  KDA d          27.757  -1.725   3.263  0.00  0.00     0.072 C 
ATOM     43  H19 KDA d          25.924  -1.572   4.382  0.00  0.00     0.042 H 
ATOM     44  H20 KDA d          25.728  -1.436   2.602  0.00  0.00     0.042 H 
ATOM     45  O6  KDA d          28.513  -2.723   4.000  0.00  0.00    -0.335 OA
ATOM     46  H21 KDA d          27.999  -1.771   2.192  0.00  0.00     0.088 H 
BRANCH  36  47
ATOM     47  C1  KDA d          28.753  -4.970   4.838  0.00  0.00     0.243 C 
ATOM     48  O1B KDA d          27.926  -5.731   5.329  0.00  0.00    -0.644 OA
ATOM     49  O1A KDA d          29.935  -4.837   5.209  0.00  0.00    -0.644 OA
ENDBRANCH  36  47
BRANCH  42  50
ATOM     50  C7  KDA d          28.311  -0.415   3.856  0.00  0.00     0.081 C 
ATOM     51  H22 KDA d          27.468   0.275   4.007  0.00  0.00     0.090 H 
BRANCH  50  52
ATOM     52  O7  KDA d          29.220   0.158   2.929  0.00  0.00    -0.391 OA
ATOM     53  H23 KDA d          29.969  -0.417   2.825  0.00  0.00     0.210 HD
ENDBRANCH  50  52
BRANCH  50  54
ATOM     54  C8  KDA d          29.016  -0.601   5.191  0.00  0.00     0.043 C 
ATOM     55  H24 KDA d          29.420   0.367   5.522  0.00  0.00     0.078 H 
ATOM     56  H25 KDA d          29.841  -1.318   5.066  0.00  0.00     0.078 H 
BRANCH  54  57
ATOM     57  O8  KDA d          28.110  -1.099   6.190  0.00  0.00    -0.398 OA
ATOM     58  H26 KDA d          27.372  -0.506   6.269  0.00  0.00     0.209 HD
ENDBRANCH  54  57
ENDBRANCH  50  54
ENDBRANCH  42  50
ENDBRANCH  35  36
ENDBRANCH  32  35
ENDBRANCH   1  32
TORSDOF 16
ENDMDL
MODEL 4
REMARK VINA RESULT:      -5.3      1.759      2.300
REMARK  16 active torsions:
REMARK  status: ('A' for Active; 'I' for Inactive)
REMARK    1  A    between atoms: C1_1  and  C2_4 
REMARK    2  A    between atoms: C2_4  and  O2_16 
REMARK    3  A    between atoms: C4_6  and  O4_7 
REMARK    4  A    between atoms: C5_8  and  O5_9 
REMARK    5  A    between atoms: C6_10  and  C7_12 
REMARK    6  A    between atoms: C7_12  and  O7_13 
REMARK    7  A    between atoms: C7_12  and  C8_14 
REMARK    8  A    between atoms: C8_14  and  O8_15 
REMARK    9  A    between atoms: O8_15  and  C2_20 
REMARK   10  A    between atoms: O2_16  and  C9_17 
REMARK   11  A    between atoms: C10_18  and  C11_19 
REMARK   12  A    between atoms: C2_20  and  C1_21 
REMARK   13  A    between atoms: C6_27  and  C7_29 
REMARK   14  A    between atoms: C7_29  and  O7_30 
REMARK   15  A    between atoms: C7_29  and  C8_31 
REMARK   16  A    between atoms: C8_31  and  O8_32 
ROOT
ATOM      1  C7  KDA d          28.157  -4.805   0.737  0.00  0.00     0.083 C 
ATOM      2  H8  KDA d          28.509  -5.455  -0.078  0.00  0.00     0.090 H 
ENDROOT
BRANCH   1   3
ATOM      3  C6  KDA d          28.683  -3.390   0.531  0.00  0.00     0.096 C 
ATOM      4  C5  KDA d          27.774  -2.453  -0.292  0.00  0.00     0.088 C 
ATOM      5  C4  KDA d          28.477  -1.094  -0.493  0.00  0.00     0.068 C 
ATOM      6  H5  KDA d          26.826  -2.287   0.239  0.00  0.00     0.091 H 
ATOM      7  C3  KDA d          29.920  -1.201  -1.028  0.00  0.00     0.024 C 
ATOM      8  H3  KDA d          28.511  -0.593   0.485  0.00  0.00     0.087 H 
ATOM      9  C2  KDA d          30.697  -2.301  -0.267  0.00  0.00     0.262 C 
ATOM     10  H1  KDA d          29.893  -1.451  -2.099  0.00  0.00     0.045 H 
ATOM     11  H2  KDA d          30.430  -0.236  -0.891  0.00  0.00     0.045 H 
ATOM     12  O6  KDA d          29.957  -3.515  -0.159  0.00  0.00    -0.335 OA
ATOM     13  H7  KDA d          28.837  -2.931   1.519  0.00  0.00     0.091 H 
BRANCH   4  14
ATOM     14  O5  KDA d          27.509  -3.132  -1.555  0.00  0.00    -0.390 OA
ATOM     15  H6  KDA d          26.913  -3.856  -1.406  0.00  0.00     0.210 HD
ENDBRANCH   4  14
BRANCH   5  16
ATOM     16  O4  KDA d          27.744  -0.275  -1.405  0.00  0.00    -0.393 OA
ATOM     17  H4  KDA d          28.351   0.219  -1.943  0.00  0.00     0.210 HD
ENDBRANCH   5  16
BRANCH   9  18
ATOM     18  C1  KDA d          32.000  -2.525  -1.064  0.00  0.00     0.239 C 
ATOM     19  O1A KDA d          32.720  -1.528  -1.306  0.00  0.00    -0.644 OA
ATOM     20  O1B KDA d          32.233  -3.710  -1.416  0.00  0.00    -0.644 OA
ENDBRANCH   9  18
BRANCH   9  21
ATOM     21  O2  KDA d          31.019  -1.800   1.072  0.00  0.00    -0.317 OA
BRANCH  21  22
ATOM     22  C9  KDA d          31.657  -2.819   1.747  0.00  0.00     0.013 C 
ATOM     23  C10 KDA d          32.332  -2.673   2.953  0.00  0.00    -0.086 C 
ATOM     24  H13 KDA d          32.841  -3.536   3.381  0.00  0.00     0.079 H 
ATOM     25  H12 KDA d          31.629  -3.813   1.303  0.00  0.00     0.122 H 
BRANCH  23  26
ATOM     26  C11 KDA d          32.379  -1.473   3.624  0.00  0.00    -0.058 C 
ATOM     27  H14 KDA d          33.184  -1.504   4.373  0.00  0.00     0.032 H 
ATOM     28  H15 KDA d          31.417  -1.296   4.127  0.00  0.00     0.032 H 
ATOM     29  H16 KDA d          32.574  -0.660   2.909  0.00  0.00     0.032 H 
ENDBRANCH  23  26
ENDBRANCH  21  22
ENDBRANCH   9  21
ENDBRANCH   1   3
BRANCH   1  30
ATOM     30  O7  KDA d          26.725  -4.763   0.752  0.00  0.00    -0.391 OA
ATOM     31  H9  KDA d          26.382  -5.637   0.609  0.00  0.00     0.210 HD
ENDBRANCH   1  30
BRANCH   1  32
ATOM     32  C8  KDA d          28.634  -5.353   2.082  0.00  0.00     0.050 C 
ATOM     33  H10 KDA d          29.652  -5.762   2.004  0.00  0.00     0.078 H 
ATOM     34  H11 KDA d          27.954  -6.133   2.455  0.00  0.00     0.078 H 
BRANCH  32  35
ATOM     35  O8  KDA d          28.606  -4.174   2.949  0.00  0.00    -0.341 OA
BRANCH  35  36
ATOM     36  C2  KDA d          28.218  -4.448   4.337  0.00  0.00     0.276 C 
ATOM     37  C3  KDA d          28.003  -3.260   5.037  0.00  0.00    -0.036 C 
ATOM     38  C4  KDA d          28.827  -2.779   6.079  0.00  0.00    -0.099 C 
ATOM     39  H17 KDA d          27.137  -2.660   4.761  0.00  0.00     0.085 H 
ATOM     40  C5  KDA d          29.974  -3.458   6.509  0.00  0.00    -0.023 C 
ATOM     41  H18 KDA d          28.560  -1.843   6.567  0.00  0.00     0.076 H 
ATOM     42  C6  KDA d          30.395  -4.536   5.510  0.00  0.00     0.072 C 
ATOM     43  H19 KDA d          29.767  -3.932   7.480  0.00  0.00     0.042 H 
ATOM     44  H20 KDA d          30.796  -2.735   6.622  0.00  0.00     0.042 H 
ATOM     45  O6  KDA d          29.236  -5.242   4.995  0.00  0.00    -0.335 OA
ATOM     46  H21 KDA d          30.940  -4.039   4.694  0.00  0.00     0.088 H 
BRANCH  36  47
ATOM     47  C1  KDA d          26.917  -5.260   4.338  0.00  0.00     0.243 C 
ATOM     48  O1B KDA d          26.929  -6.321   4.951  0.00  0.00    -0.644 OA
ATOM     49  O1A KDA d          25.944  -4.783   3.722  0.00  0.00    -0.644 OA
ENDBRANCH  36  47
BRANCH  42  50
ATOM     50  C7  KDA d          31.247  -5.696   6.061  0.00  0.00     0.081 C 
ATOM     51  H22 KDA d          31.676  -5.379   7.023  0.00  0.00     0.090 H 
BRANCH  50  52
ATOM     52  O7  KDA d          32.300  -5.963   5.149  0.00  0.00    -0.391 OA
ATOM     53  H23 KDA d          32.195  -5.419   4.376  0.00  0.00     0.210 HD
ENDBRANCH  50  52
BRANCH  50  54
ATOM     54  C8  KDA d          30.456  -6.975   6.292  0.00  0.00     0.043 C 
ATOM     55  H24 KDA d          31.126  -7.742   6.708  0.00  0.00     0.078 H 
ATOM     56  H25 KDA d          30.050  -7.326   5.332  0.00  0.00     0.078 H 
BRANCH  54  57
ATOM     57  O8  KDA d          29.371  -6.753   7.208  0.00  0.00    -0.398 OA
ATOM     58  H26 KDA d          29.006  -7.589   7.474  0.00  0.00     0.209 HD
ENDBRANCH  54  57
ENDBRANCH  50  54
ENDBRANCH  42  50
ENDBRANCH  35  36
ENDBRANCH  32  35
ENDBRANCH   1  32
TORSDOF 16
ENDMDL
MODEL 5
REMARK VINA RESULT:      -5.3      1.701      2.207
REMARK  16 active torsions:
REMARK  status: ('A' for Active; 'I' for Inactive)
REMARK    1  A    between atoms: C1_1  and  C2_4 
REMARK    2  A    between atoms: C2_4  and  O2_16 
REMARK    3  A    between atoms: C4_6  and  O4_7 
REMARK    4  A    between atoms: C5_8  and  O5_9 
REMARK    5  A    between atoms: C6_10  and  C7_12 
REMARK    6  A    between atoms: C7_12  and  O7_13 
REMARK    7  A    between atoms: C7_12  and  C8_14 
REMARK    8  A    between atoms: C8_14  and  O8_15 
REMARK    9  A    between atoms: O8_15  and  C2_20 
REMARK   10  A    between atoms: O2_16  and  C9_17 
REMARK   11  A    between atoms: C10_18  and  C11_19 
REMARK   12  A    between atoms: C2_20  and  C1_21 
REMARK   13  A    between atoms: C6_27  and  C7_29 
REMARK   14  A    between atoms: C7_29  and  O7_30 
REMARK   15  A    between atoms: C7_29  and  C8_31 
REMARK   16  A    between atoms: C8_31  and  O8_32 
ROOT
ATOM      1  C7  KDA d          29.396  -5.074   2.311  0.00  0.00     0.083 C 
ATOM      2  H8  KDA d          30.235  -5.734   2.046  0.00  0.00     0.090 H 
ENDROOT
BRANCH   1   3
ATOM      3  C6  KDA d          29.304  -3.929   1.309  0.00  0.00     0.096 C 
ATOM      4  C5  KDA d          28.156  -4.029   0.284  0.00  0.00     0.088 C 
ATOM      5  C4  KDA d          28.248  -2.855  -0.714  0.00  0.00     0.068 C 
ATOM      6  H5  KDA d          27.186  -3.981   0.799  0.00  0.00     0.091 H 
ATOM      7  C3  KDA d          29.643  -2.670  -1.347  0.00  0.00     0.024 C 
ATOM      8  H3  KDA d          27.998  -1.936  -0.165  0.00  0.00     0.087 H 
ATOM      9  C2  KDA d          30.745  -2.776  -0.265  0.00  0.00     0.262 C 
ATOM     10  H1  KDA d          29.804  -3.450  -2.105  0.00  0.00     0.045 H 
ATOM     11  H2  KDA d          29.697  -1.680  -1.823  0.00  0.00     0.045 H 
ATOM     12  O6  KDA d          30.565  -3.907   0.586  0.00  0.00    -0.335 OA
ATOM     13  H7  KDA d          29.179  -2.990   1.869  0.00  0.00     0.091 H 
BRANCH   4  14
ATOM     14  O5  KDA d          28.293  -5.325  -0.371  0.00  0.00    -0.390 OA
ATOM     15  H6  KDA d          28.658  -5.952   0.242  0.00  0.00     0.210 HD
ENDBRANCH   4  14
BRANCH   5  16
ATOM     16  O4  KDA d          27.315  -3.023  -1.781  0.00  0.00    -0.393 OA
ATOM     17  H4  KDA d          26.477  -3.297  -1.427  0.00  0.00     0.210 HD
ENDBRANCH   5  16
BRANCH   9  18
ATOM     18  C1  KDA d          32.081  -2.876  -1.032  0.00  0.00     0.239 C 
ATOM     19  O1A KDA d          32.643  -1.809  -1.374  0.00  0.00    -0.644 OA
ATOM     20  O1B KDA d          32.500  -4.039  -1.258  0.00  0.00    -0.644 OA
ENDBRANCH   9  18
BRANCH   9  21
ATOM     21  O2  KDA d          30.726  -1.550   0.537  0.00  0.00    -0.317 OA
BRANCH  21  22
ATOM     22  C9  KDA d          31.729  -1.662   1.477  0.00  0.00     0.013 C 
ATOM     23  C10 KDA d          32.052  -0.687   2.415  0.00  0.00    -0.086 C 
ATOM     24  H13 KDA d          32.893  -0.859   3.085  0.00  0.00     0.079 H 
ATOM     25  H12 KDA d          32.312  -2.582   1.486  0.00  0.00     0.122 H 
BRANCH  23  26
ATOM     26  C11 KDA d          31.343   0.486   2.524  0.00  0.00    -0.058 C 
ATOM     27  H14 KDA d          30.361   0.280   2.975  0.00  0.00     0.032 H 
ATOM     28  H15 KDA d          31.203   0.924   1.525  0.00  0.00     0.032 H 
ATOM     29  H16 KDA d          31.898   1.192   3.159  0.00  0.00     0.032 H 
ENDBRANCH  23  26
ENDBRANCH  21  22
ENDBRANCH   9  21
ENDBRANCH   1   3
BRANCH   1  30
ATOM     30  O7  KDA d          28.164  -5.805   2.283  0.00  0.00    -0.391 OA
ATOM     31  H9  KDA d          27.436  -5.201   2.369  0.00  0.00     0.210 HD
ENDBRANCH   1  30
BRANCH   1  32
ATOM     32  C8  KDA d          29.593  -4.522   3.724  0.00  0.00     0.050 C 
ATOM     33  H10 KDA d          30.594  -4.768   4.107  0.00  0.00     0.078 H 
ATOM     34  H11 KDA d          28.831  -4.916   4.411  0.00  0.00     0.078 H 
BRANCH  32  35
ATOM     35  O8  KDA d          29.440  -3.079   3.540  0.00  0.00    -0.341 OA
BRANCH  35  36
ATOM     36  C2  KDA d          28.454  -2.454   4.430  0.00  0.00     0.276 C 
ATOM     37  C3  KDA d          28.428  -1.070   4.248  0.00  0.00    -0.036 C 
ATOM     38  C4  KDA d          28.875  -0.124   5.198  0.00  0.00    -0.099 C 
ATOM     39  H17 KDA d          28.033  -0.691   3.306  0.00  0.00     0.085 H 
ATOM     40  C5  KDA d          29.415  -0.495   6.436  0.00  0.00    -0.023 C 
ATOM     41  H18 KDA d          28.797   0.935   4.957  0.00  0.00     0.076 H 
ATOM     42  C6  KDA d          29.775  -1.980   6.469  0.00  0.00     0.072 C 
ATOM     43  H19 KDA d          28.676  -0.289   7.224  0.00  0.00     0.042 H 
ATOM     44  H20 KDA d          30.323   0.097   6.622  0.00  0.00     0.042 H 
ATOM     45  O6  KDA d          28.752  -2.773   5.811  0.00  0.00    -0.335 OA
ATOM     46  H21 KDA d          30.743  -2.099   5.960  0.00  0.00     0.088 H 
BRANCH  36  47
ATOM     47  C1  KDA d          27.065  -3.017   4.106  0.00  0.00     0.243 C 
ATOM     48  O1B KDA d          26.618  -3.858   4.878  0.00  0.00    -0.644 OA
ATOM     49  O1A KDA d          26.492  -2.580   3.089  0.00  0.00    -0.644 OA
ENDBRANCH  36  47
BRANCH  42  50
ATOM     50  C7  KDA d          29.842  -2.646   7.856  0.00  0.00     0.081 C 
ATOM     51  H22 KDA d          29.820  -1.853   8.618  0.00  0.00     0.090 H 
BRANCH  50  52
ATOM     52  O7  KDA d          31.064  -3.360   7.963  0.00  0.00    -0.391 OA
ATOM     53  H23 KDA d          31.330  -3.395   8.874  0.00  0.00     0.210 HD
ENDBRANCH  50  52
BRANCH  50  54
ATOM     54  C8  KDA d          28.687  -3.599   8.131  0.00  0.00     0.043 C 
ATOM     55  H24 KDA d          28.906  -4.176   9.041  0.00  0.00     0.078 H 
ATOM     56  H25 KDA d          28.577  -4.286   7.279  0.00  0.00     0.078 H 
BRANCH  54  57
ATOM     57  O8  KDA d          27.457  -2.879   8.314  0.00  0.00    -0.398 OA
ATOM     58  H26 KDA d          26.881  -3.378   8.882  0.00  0.00     0.209 HD
ENDBRANCH  54  57
ENDBRANCH  50  54
ENDBRANCH  42  50
ENDBRANCH  35  36
ENDBRANCH  32  35
ENDBRANCH   1  32
TORSDOF 16
ENDMDL
MODEL 6
REMARK VINA RESULT:      -5.3      2.126      6.616
REMARK  16 active torsions:
REMARK  status: ('A' for Active; 'I' for Inactive)
REMARK    1  A    between atoms: C1_1  and  C2_4 
REMARK    2  A    between atoms: C2_4  and  O2_16 
REMARK    3  A    between atoms: C4_6  and  O4_7 
REMARK    4  A    between atoms: C5_8  and  O5_9 
REMARK    5  A    between atoms: C6_10  and  C7_12 
REMARK    6  A    between atoms: C7_12  and  O7_13 
REMARK    7  A    between atoms: C7_12  and  C8_14 
REMARK    8  A    between atoms: C8_14  and  O8_15 
REMARK    9  A    between atoms: O8_15  and  C2_20 
REMARK   10  A    between atoms: O2_16  and  C9_17 
REMARK   11  A    between atoms: C10_18  and  C11_19 
REMARK   12  A    between atoms: C2_20  and  C1_21 
REMARK   13  A    between atoms: C6_27  and  C7_29 
REMARK   14  A    between atoms: C7_29  and  O7_30 
REMARK   15  A    between atoms: C7_29  and  C8_31 
REMARK   16  A    between atoms: C8_31  and  O8_32 
ROOT
ATOM      1  C7  KDA d          31.416  -0.476   2.382  0.00  0.00     0.083 C 
ATOM      2  H8  KDA d          31.866   0.185   3.138  0.00  0.00     0.090 H 
ENDROOT
BRANCH   1   3
ATOM      3  C6  KDA d          30.156  -1.121   2.946  0.00  0.00     0.096 C 
ATOM      4  C5  KDA d          28.872  -0.271   2.852  0.00  0.00     0.088 C 
ATOM      5  C4  KDA d          27.708  -1.013   3.543  0.00  0.00     0.068 C 
ATOM      6  H5  KDA d          28.609  -0.102   1.798  0.00  0.00     0.091 H 
ATOM      7  C3  KDA d          28.031  -1.512   4.967  0.00  0.00     0.024 C 
ATOM      8  H3  KDA d          27.461  -1.888   2.923  0.00  0.00     0.087 H 
ATOM      9  C2  KDA d          29.425  -2.182   5.001  0.00  0.00     0.262 C 
ATOM     10  H1  KDA d          28.023  -0.658   5.660  0.00  0.00     0.045 H 
ATOM     11  H2  KDA d          27.269  -2.243   5.276  0.00  0.00     0.045 H 
ATOM     12  O6  KDA d          30.422  -1.398   4.348  0.00  0.00    -0.335 OA
ATOM     13  H7  KDA d          29.980  -2.064   2.407  0.00  0.00     0.091 H 
BRANCH   4  14
ATOM     14  O5  KDA d          29.170   1.007   3.489  0.00  0.00    -0.390 OA
ATOM     15  H6  KDA d          28.612   1.681   3.120  0.00  0.00     0.210 HD
ENDBRANCH   4  14
BRANCH   5  16
ATOM     16  O4  KDA d          26.557  -0.174   3.635  0.00  0.00    -0.393 OA
ATOM     17  H4  KDA d          26.050  -0.417   4.402  0.00  0.00     0.210 HD
ENDBRANCH   5  16
BRANCH   9  18
ATOM     18  C1  KDA d          29.767  -2.368   6.494  0.00  0.00     0.239 C 
ATOM     19  O1A KDA d          28.943  -1.953   7.342  0.00  0.00    -0.644 OA
ATOM     20  O1B KDA d          30.866  -2.927   6.741  0.00  0.00    -0.644 OA
ENDBRANCH   9  18
BRANCH   9  21
ATOM     21  O2  KDA d          29.326  -3.491   4.350  0.00  0.00    -0.317 OA
BRANCH  21  22
ATOM     22  C9  KDA d          28.179  -4.095   4.819  0.00  0.00     0.013 C 
ATOM     23  C10 KDA d          27.998  -5.468   4.946  0.00  0.00    -0.086 C 
ATOM     24  H13 KDA d          27.034  -5.844   5.286  0.00  0.00     0.079 H 
ATOM     25  H12 KDA d          27.353  -3.450   5.113  0.00  0.00     0.122 H 
BRANCH  23  26
ATOM     26  C11 KDA d          28.997  -6.367   4.654  0.00  0.00    -0.058 C 
ATOM     27  H14 KDA d          28.738  -6.920   3.739  0.00  0.00     0.032 H 
ATOM     28  H15 KDA d          29.110  -7.073   5.490  0.00  0.00     0.032 H 
ATOM     29  H16 KDA d          29.943  -5.827   4.501  0.00  0.00     0.032 H 
ENDBRANCH  23  26
ENDBRANCH  21  22
ENDBRANCH   9  21
ENDBRANCH   1   3
BRANCH   1  30
ATOM     30  O7  KDA d          31.062   0.276   1.215  0.00  0.00    -0.391 OA
ATOM     31  H9  KDA d          31.851   0.544   0.760  0.00  0.00     0.210 HD
ENDBRANCH   1  30
BRANCH   1  32
ATOM     32  C8  KDA d          32.420  -1.554   1.970  0.00  0.00     0.050 C 
ATOM     33  H10 KDA d          33.209  -1.670   2.728  0.00  0.00     0.078 H 
ATOM     34  H11 KDA d          32.878  -1.317   0.999  0.00  0.00     0.078 H 
BRANCH  32  35
ATOM     35  O8  KDA d          31.595  -2.759   1.881  0.00  0.00    -0.341 OA
BRANCH  35  36
ATOM     36  C2  KDA d          31.690  -3.469   0.601  0.00  0.00     0.276 C 
ATOM     37  C3  KDA d          32.468  -2.752  -0.309  0.00  0.00    -0.036 C 
ATOM     38  C4  KDA d          31.973  -2.122  -1.472  0.00  0.00    -0.099 C 
ATOM     39  H17 KDA d          33.536  -2.674  -0.108  0.00  0.00     0.085 H 
ATOM     40  C5  KDA d          30.617  -2.144  -1.824  0.00  0.00    -0.023 C 
ATOM     41  H18 KDA d          32.673  -1.598  -2.121  0.00  0.00     0.076 H 
ATOM     42  C6  KDA d          29.743  -2.600  -0.656  0.00  0.00     0.072 C 
ATOM     43  H19 KDA d          30.478  -2.838  -2.666  0.00  0.00     0.042 H 
ATOM     44  H20 KDA d          30.310  -1.132  -2.127  0.00  0.00     0.042 H 
ATOM     45  O6  KDA d          30.367  -3.700   0.057  0.00  0.00    -0.335 OA
ATOM     46  H21 KDA d          29.602  -1.737   0.011  0.00  0.00     0.088 H 
BRANCH  36  47
ATOM     47  C1  KDA d          32.344  -4.835   0.838  0.00  0.00     0.243 C 
ATOM     48  O1B KDA d          32.308  -5.273   1.983  0.00  0.00    -0.644 OA
ATOM     49  O1A KDA d          32.861  -5.401  -0.144  0.00  0.00    -0.644 OA
ENDBRANCH  36  47
BRANCH  42  50
ATOM     50  C7  KDA d          28.369  -3.199  -1.012  0.00  0.00     0.081 C 
ATOM     51  H22 KDA d          28.472  -3.756  -1.955  0.00  0.00     0.090 H 
BRANCH  50  52
ATOM     52  O7  KDA d          27.442  -2.140  -1.198  0.00  0.00    -0.391 OA
ATOM     53  H23 KDA d          27.653  -1.673  -1.998  0.00  0.00     0.210 HD
ENDBRANCH  50  52
BRANCH  50  54
ATOM     54  C8  KDA d          27.827  -4.151   0.044  0.00  0.00     0.043 C 
ATOM     55  H24 KDA d          26.731  -4.071   0.072  0.00  0.00     0.078 H 
ATOM     56  H25 KDA d          28.240  -3.873   1.025  0.00  0.00     0.078 H 
BRANCH  54  57
ATOM     57  O8  KDA d          28.192  -5.510  -0.250  0.00  0.00    -0.398 OA
ATOM     58  H26 KDA d          29.118  -5.550  -0.457  0.00  0.00     0.209 HD
ENDBRANCH  54  57
ENDBRANCH  50  54
ENDBRANCH  42  50
ENDBRANCH  35  36
ENDBRANCH  32  35
ENDBRANCH   1  32
TORSDOF 16
ENDMDL
MODEL 7
REMARK VINA RESULT:      -5.1      1.947      6.053
REMARK  16 active torsions:
REMARK  status: ('A' for Active; 'I' for Inactive)
REMARK    1  A    between atoms: C1_1  and  C2_4 
REMARK    2  A    between atoms: C2_4  and  O2_16 
REMARK    3  A    between atoms: C4_6  and  O4_7 
REMARK    4  A    between atoms: C5_8  and  O5_9 
REMARK    5  A    between atoms: C6_10  and  C7_12 
REMARK    6  A    between atoms: C7_12  and  O7_13 
REMARK    7  A    between atoms: C7_12  and  C8_14 
REMARK    8  A    between atoms: C8_14  and  O8_15 
REMARK    9  A    between atoms: O8_15  and  C2_20 
REMARK   10  A    between atoms: O2_16  and  C9_17 
REMARK   11  A    between atoms: C10_18  and  C11_19 
REMARK   12  A    between atoms: C2_20  and  C1_21 
REMARK   13  A    between atoms: C6_27  and  C7_29 
REMARK   14  A    between atoms: C7_29  and  O7_30 
REMARK   15  A    between atoms: C7_29  and  C8_31 
REMARK   16  A    between atoms: C8_31  and  O8_32 
ROOT
ATOM      1  C7  KDA d          29.025  -5.871   2.520  0.00  0.00     0.083 C 
ATOM      2  H8  KDA d          27.982  -6.170   2.334  0.00  0.00     0.090 H 
ENDROOT
BRANCH   1   3
ATOM      3  C6  KDA d          29.071  -4.825   3.627  0.00  0.00     0.096 C 
ATOM      4  C5  KDA d          28.851  -5.357   5.058  0.00  0.00     0.088 C 
ATOM      5  C4  KDA d          28.833  -4.178   6.053  0.00  0.00     0.068 C 
ATOM      6  H5  KDA d          29.667  -6.041   5.334  0.00  0.00     0.091 H 
ATOM      7  C3  KDA d          27.883  -3.029   5.655  0.00  0.00     0.024 C 
ATOM      8  H3  KDA d          29.855  -3.773   6.103  0.00  0.00     0.087 H 
ATOM      9  C2  KDA d          28.040  -2.694   4.153  0.00  0.00     0.262 C 
ATOM     10  H1  KDA d          26.844  -3.333   5.852  0.00  0.00     0.045 H 
ATOM     11  H2  KDA d          28.122  -2.137   6.253  0.00  0.00     0.045 H 
ATOM     12  O6  KDA d          28.025  -3.859   3.331  0.00  0.00    -0.335 OA
ATOM     13  H7  KDA d          30.054  -4.332   3.595  0.00  0.00     0.091 H 
BRANCH   4  14
ATOM     14  O5  KDA d          27.589  -6.088   5.042  0.00  0.00    -0.390 OA
ATOM     15  H6  KDA d          27.302  -6.203   4.144  0.00  0.00     0.210 HD
ENDBRANCH   4  14
BRANCH   5  16
ATOM     16  O4  KDA d          28.448  -4.619   7.355  0.00  0.00    -0.393 OA
ATOM     17  H4  KDA d          29.076  -4.304   7.994  0.00  0.00     0.210 HD
ENDBRANCH   5  16
BRANCH   9  18
ATOM     18  C1  KDA d          26.860  -1.763   3.803  0.00  0.00     0.239 C 
ATOM     19  O1A KDA d          26.074  -1.438   4.724  0.00  0.00    -0.644 OA
ATOM     20  O1B KDA d          26.779  -1.405   2.600  0.00  0.00    -0.644 OA
ENDBRANCH   9  18
BRANCH   9  21
ATOM     21  O2  KDA d          29.305  -1.978   3.968  0.00  0.00    -0.317 OA
BRANCH  21  22
ATOM     22  C9  KDA d          29.258  -0.852   4.763  0.00  0.00     0.013 C 
ATOM     23  C10 KDA d          30.368  -0.220   5.312  0.00  0.00    -0.086 C 
ATOM     24  H13 KDA d          30.216   0.639   5.964  0.00  0.00     0.079 H 
ATOM     25  H12 KDA d          28.279  -0.427   4.978  0.00  0.00     0.122 H 
BRANCH  23  26
ATOM     26  C11 KDA d          31.651  -0.644   5.058  0.00  0.00    -0.058 C 
ATOM     27  H14 KDA d          31.641  -1.716   4.809  0.00  0.00     0.032 H 
ATOM     28  H15 KDA d          32.275  -0.480   5.949  0.00  0.00     0.032 H 
ATOM     29  H16 KDA d          32.065  -0.076   4.212  0.00  0.00     0.032 H 
ENDBRANCH  23  26
ENDBRANCH  21  22
ENDBRANCH   9  21
ENDBRANCH   1   3
BRANCH   1  30
ATOM     30  O7  KDA d          29.799  -7.005   2.930  0.00  0.00    -0.391 OA
ATOM     31  H9  KDA d          30.333  -6.768   3.678  0.00  0.00     0.210 HD
ENDBRANCH   1  30
BRANCH   1  32
ATOM     32  C8  KDA d          29.641  -5.308   1.238  0.00  0.00     0.050 C 
ATOM     33  H10 KDA d          28.966  -4.583   0.760  0.00  0.00     0.078 H 
ATOM     34  H11 KDA d          29.877  -6.113   0.527  0.00  0.00     0.078 H 
BRANCH  32  35
ATOM     35  O8  KDA d          30.860  -4.656   1.715  0.00  0.00    -0.341 OA
BRANCH  35  36
ATOM     36  C2  KDA d          31.476  -3.736   0.752  0.00  0.00     0.276 C 
ATOM     37  C3  KDA d          32.352  -2.858   1.392  0.00  0.00    -0.036 C 
ATOM     38  C4  KDA d          32.133  -1.470   1.544  0.00  0.00    -0.099 C 
ATOM     39  H17 KDA d          33.271  -3.272   1.804  0.00  0.00     0.085 H 
ATOM     40  C5  KDA d          30.981  -0.831   1.068  0.00  0.00    -0.023 C 
ATOM     41  H18 KDA d          32.890  -0.874   2.052  0.00  0.00     0.076 H 
ATOM     42  C6  KDA d          29.888  -1.838   0.711  0.00  0.00     0.072 C 
ATOM     43  H19 KDA d          31.239  -0.251   0.170  0.00  0.00     0.042 H 
ATOM     44  H20 KDA d          30.601  -0.153   1.847  0.00  0.00     0.042 H 
ATOM     45  O6  KDA d          30.453  -2.997   0.041  0.00  0.00    -0.335 OA
ATOM     46  H21 KDA d          29.391  -2.136   1.646  0.00  0.00     0.088 H 
BRANCH  36  47
ATOM     47  C1  KDA d          32.266  -4.552  -0.279  0.00  0.00     0.243 C 
ATOM     48  O1B KDA d          32.420  -4.044  -1.384  0.00  0.00    -0.644 OA
ATOM     49  O1A KDA d          32.696  -5.666   0.080  0.00  0.00    -0.644 OA
ENDBRANCH  36  47
BRANCH  42  50
ATOM     50  C7  KDA d          28.827  -1.377  -0.307  0.00  0.00     0.081 C 
ATOM     51  H22 KDA d          29.348  -1.034  -1.213  0.00  0.00     0.090 H 
BRANCH  50  52
ATOM     52  O7  KDA d          28.101  -0.292   0.250  0.00  0.00    -0.391 OA
ATOM     53  H23 KDA d          27.252  -0.600   0.547  0.00  0.00     0.210 HD
ENDBRANCH  50  52
BRANCH  50  54
ATOM     54  C8  KDA d          27.850  -2.473  -0.707  0.00  0.00     0.043 C 
ATOM     55  H24 KDA d          28.377  -3.217  -1.322  0.00  0.00     0.078 H 
ATOM     56  H25 KDA d          27.031  -2.029  -1.292  0.00  0.00     0.078 H 
BRANCH  54  57
ATOM     57  O8  KDA d          27.301  -3.124   0.451  0.00  0.00    -0.398 OA
ATOM     58  H26 KDA d          27.381  -2.549   1.203  0.00  0.00     0.209 HD
ENDBRANCH  54  57
ENDBRANCH  50  54
ENDBRANCH  42  50
ENDBRANCH  35  36
ENDBRANCH  32  35
ENDBRANCH   1  32
TORSDOF 16
ENDMDL
MODEL 8
REMARK VINA RESULT:      -5.0      1.958      6.594
REMARK  16 active torsions:
REMARK  status: ('A' for Active; 'I' for Inactive)
REMARK    1  A    between atoms: C1_1  and  C2_4 
REMARK    2  A    between atoms: C2_4  and  O2_16 
REMARK    3  A    between atoms: C4_6  and  O4_7 
REMARK    4  A    between atoms: C5_8  and  O5_9 
REMARK    5  A    between atoms: C6_10  and  C7_12 
REMARK    6  A    between atoms: C7_12  and  O7_13 
REMARK    7  A    between atoms: C7_12  and  C8_14 
REMARK    8  A    between atoms: C8_14  and  O8_15 
REMARK    9  A    between atoms: O8_15  and  C2_20 
REMARK   10  A    between atoms: O2_16  and  C9_17 
REMARK   11  A    between atoms: C10_18  and  C11_19 
REMARK   12  A    between atoms: C2_20  and  C1_21 
REMARK   13  A    between atoms: C6_27  and  C7_29 
REMARK   14  A    between atoms: C7_29  and  O7_30 
REMARK   15  A    between atoms: C7_29  and  C8_31 
REMARK   16  A    between atoms: C8_31  and  O8_32 
ROOT
ATOM      1  C7  KDA d          30.463  -0.871   3.334  0.00  0.00     0.083 C 
ATOM      2  H8  KDA d          31.127  -0.702   4.195  0.00  0.00     0.090 H 
ENDROOT
BRANCH   1   3
ATOM      3  C6  KDA d          29.027  -1.038   3.816  0.00  0.00     0.096 C 
ATOM      4  C5  KDA d          28.123   0.203   3.662  0.00  0.00     0.088 C 
ATOM      5  C4  KDA d          26.736  -0.086   4.274  0.00  0.00     0.068 C 
ATOM      6  H5  KDA d          27.997   0.447   2.597  0.00  0.00     0.091 H 
ATOM      7  C3  KDA d          26.783  -0.657   5.707  0.00  0.00     0.024 C 
ATOM      8  H3  KDA d          26.239  -0.825   3.629  0.00  0.00     0.087 H 
ATOM      9  C2  KDA d          27.855  -1.768   5.811  0.00  0.00     0.262 C 
ATOM     10  H1  KDA d          27.030   0.151   6.412  0.00  0.00     0.045 H 
ATOM     11  H2  KDA d          25.799  -1.078   5.962  0.00  0.00     0.045 H 
ATOM     12  O6  KDA d          29.098  -1.381   5.227  0.00  0.00    -0.335 OA
ATOM     13  H7  KDA d          28.567  -1.864   3.255  0.00  0.00     0.091 H 
BRANCH   4  14
ATOM     14  O5  KDA d          28.806   1.303   4.334  0.00  0.00    -0.390 OA
ATOM     15  H6  KDA d          28.183   1.786   4.863  0.00  0.00     0.210 HD
ENDBRANCH   4  14
BRANCH   5  16
ATOM     16  O4  KDA d          25.943   1.100   4.314  0.00  0.00    -0.393 OA
ATOM     17  H4  KDA d          25.028   0.872   4.195  0.00  0.00     0.210 HD
ENDBRANCH   5  16
BRANCH   9  18
ATOM     18  C1  KDA d          28.024  -2.052   7.318  0.00  0.00     0.239 C 
ATOM     19  O1A KDA d          29.154  -1.868   7.828  0.00  0.00    -0.644 OA
ATOM     20  O1B KDA d          26.997  -2.458   7.920  0.00  0.00    -0.644 OA
ENDBRANCH   9  18
BRANCH   9  21
ATOM     21  O2  KDA d          27.348  -2.966   5.136  0.00  0.00    -0.317 OA
BRANCH  21  22
ATOM     22  C9  KDA d          28.304  -3.950   5.279  0.00  0.00     0.013 C 
ATOM     23  C10 KDA d          28.114  -5.292   4.970  0.00  0.00    -0.086 C 
ATOM     24  H13 KDA d          28.922  -5.997   5.162  0.00  0.00     0.079 H 
ATOM     25  H12 KDA d          29.279  -3.655   5.662  0.00  0.00     0.122 H 
BRANCH  23  26
ATOM     26  C11 KDA d          26.939  -5.760   4.429  0.00  0.00    -0.058 C 
ATOM     27  H14 KDA d          26.137  -5.686   5.178  0.00  0.00     0.032 H 
ATOM     28  H15 KDA d          27.066  -6.810   4.129  0.00  0.00     0.032 H 
ATOM     29  H16 KDA d          26.675  -5.157   3.548  0.00  0.00     0.032 H 
ENDBRANCH  23  26
ENDBRANCH  21  22
ENDBRANCH   9  21
ENDBRANCH   1   3
BRANCH   1  30
ATOM     30  O7  KDA d          30.518   0.246   2.440  0.00  0.00    -0.391 OA
ATOM     31  H9  KDA d          29.646   0.606   2.329  0.00  0.00     0.210 HD
ENDBRANCH   1  30
BRANCH   1  32
ATOM     32  C8  KDA d          30.909  -2.119   2.570  0.00  0.00     0.050 C 
ATOM     33  H10 KDA d          30.063  -2.799   2.395  0.00  0.00     0.078 H 
ATOM     34  H11 KDA d          31.701  -2.653   3.114  0.00  0.00     0.078 H 
BRANCH  32  35
ATOM     35  O8  KDA d          31.414  -1.573   1.310  0.00  0.00    -0.341 OA
BRANCH  35  36
ATOM     36  C2  KDA d          30.891  -2.232   0.108  0.00  0.00     0.276 C 
ATOM     37  C3  KDA d          30.601  -1.296  -0.886  0.00  0.00    -0.036 C 
ATOM     38  C4  KDA d          29.300  -0.966  -1.329  0.00  0.00    -0.099 C 
ATOM     39  H17 KDA d          31.439  -0.783  -1.356  0.00  0.00     0.085 H 
ATOM     40  C5  KDA d          28.148  -1.551  -0.788  0.00  0.00    -0.023 C 
ATOM     41  H18 KDA d          29.189  -0.229  -2.122  0.00  0.00     0.076 H 
ATOM     42  C6  KDA d          28.451  -2.278   0.523  0.00  0.00     0.072 C 
ATOM     43  H19 KDA d          27.741  -2.273  -1.510  0.00  0.00     0.042 H 
ATOM     44  H20 KDA d          27.404  -0.764  -0.596  0.00  0.00     0.042 H 
ATOM     45  O6  KDA d          29.707  -3.001   0.433  0.00  0.00    -0.335 OA
ATOM     46  H21 KDA d          28.496  -1.521   1.320  0.00  0.00     0.088 H 
BRANCH  36  47
ATOM     47  C1  KDA d          31.950  -3.204  -0.426  0.00  0.00     0.243 C 
ATOM     48  O1B KDA d          31.623  -4.382  -0.513  0.00  0.00    -0.644 OA
ATOM     49  O1A KDA d          33.060  -2.729  -0.735  0.00  0.00    -0.644 OA
ENDBRANCH  36  47
BRANCH  42  50
ATOM     50  C7  KDA d          27.476  -3.397   0.936  0.00  0.00     0.081 C 
ATOM     51  H22 KDA d          26.701  -3.480   0.159  0.00  0.00     0.090 H 
BRANCH  50  52
ATOM     52  O7  KDA d          26.864  -3.039   2.165  0.00  0.00    -0.391 OA
ATOM     53  H23 KDA d          26.226  -3.702   2.405  0.00  0.00     0.210 HD
ENDBRANCH  50  52
BRANCH  50  54
ATOM     54  C8  KDA d          28.140  -4.757   1.090  0.00  0.00     0.043 C 
ATOM     55  H24 KDA d          27.453  -5.434   1.618  0.00  0.00     0.078 H 
ATOM     56  H25 KDA d          29.064  -4.642   1.676  0.00  0.00     0.078 H 
BRANCH  54  57
ATOM     57  O8  KDA d          28.464  -5.322  -0.191  0.00  0.00    -0.398 OA
ATOM     58  H26 KDA d          27.705  -5.777  -0.536  0.00  0.00     0.209 HD
ENDBRANCH  54  57
ENDBRANCH  50  54
ENDBRANCH  42  50
ENDBRANCH  35  36
ENDBRANCH  32  35
ENDBRANCH   1  32
TORSDOF 16
ENDMDL
MODEL 9
REMARK VINA RESULT:      -5.0      2.029      6.611
REMARK  16 active torsions:
REMARK  status: ('A' for Active; 'I' for Inactive)
REMARK    1  A    between atoms: C1_1  and  C2_4 
REMARK    2  A    between atoms: C2_4  and  O2_16 
REMARK    3  A    between atoms: C4_6  and  O4_7 
REMARK    4  A    between atoms: C5_8  and  O5_9 
REMARK    5  A    between atoms: C6_10  and  C7_12 
REMARK    6  A    between atoms: C7_12  and  O7_13 
REMARK    7  A    between atoms: C7_12  and  C8_14 
REMARK    8  A    between atoms: C8_14  and  O8_15 
REMARK    9  A    between atoms: O8_15  and  C2_20 
REMARK   10  A    between atoms: O2_16  and  C9_17 
REMARK   11  A    between atoms: C10_18  and  C11_19 
REMARK   12  A    between atoms: C2_20  and  C1_21 
REMARK   13  A    between atoms: C6_27  and  C7_29 
REMARK   14  A    between atoms: C7_29  and  O7_30 
REMARK   15  A    between atoms: C7_29  and  C8_31 
REMARK   16  A    between atoms: C8_31  and  O8_32 
ROOT
ATOM      1  C7  KDA d          28.291  -0.398   2.661  0.00  0.00     0.083 C 
ATOM      2  H8  KDA d          29.306   0.019   2.743  0.00  0.00     0.090 H 
ENDROOT
BRANCH   1   3
ATOM      3  C6  KDA d          28.041  -1.372   3.806  0.00  0.00     0.096 C 
ATOM      4  C5  KDA d          27.145  -0.846   4.946  0.00  0.00     0.088 C 
ATOM      5  C4  KDA d          27.060  -1.903   6.068  0.00  0.00     0.068 C 
ATOM      6  H5  KDA d          26.132  -0.648   4.568  0.00  0.00     0.091 H 
ATOM      7  C3  KDA d          28.428  -2.439   6.538  0.00  0.00     0.024 C 
ATOM      8  H3  KDA d          26.476  -2.750   5.679  0.00  0.00     0.087 H 
ATOM      9  C2  KDA d          29.328  -2.760   5.322  0.00  0.00     0.262 C 
ATOM     10  H1  KDA d          28.920  -1.679   7.162  0.00  0.00     0.045 H 
ATOM     11  H2  KDA d          28.275  -3.355   7.128  0.00  0.00     0.045 H 
ATOM     12  O6  KDA d          29.342  -1.706   4.361  0.00  0.00    -0.335 OA
ATOM     13  H7  KDA d          27.569  -2.276   3.393  0.00  0.00     0.091 H 
BRANCH   4  14
ATOM     14  O5  KDA d          27.744   0.402   5.405  0.00  0.00    -0.390 OA
ATOM     15  H6  KDA d          27.523   1.100   4.800  0.00  0.00     0.210 HD
ENDBRANCH   4  14
BRANCH   5  16
ATOM     16  O4  KDA d          26.393  -1.372   7.214  0.00  0.00    -0.393 OA
ATOM     17  H4  KDA d          26.181  -2.080   7.811  0.00  0.00     0.210 HD
ENDBRANCH   5  16
BRANCH   9  18
ATOM     18  C1  KDA d          30.742  -2.997   5.894  0.00  0.00     0.239 C 
ATOM     19  O1A KDA d          31.623  -3.441   5.120  0.00  0.00    -0.644 OA
ATOM     20  O1B KDA d          30.896  -2.724   7.112  0.00  0.00    -0.644 OA
ENDBRANCH   9  18
BRANCH   9  21
ATOM     21  O2  KDA d          28.838  -3.990   4.694  0.00  0.00    -0.317 OA
BRANCH  21  22
ATOM     22  C9  KDA d          28.519  -4.868   5.708  0.00  0.00     0.013 C 
ATOM     23  C10 KDA d          28.829  -6.223   5.713  0.00  0.00    -0.086 C 
ATOM     24  H13 KDA d          28.490  -6.838   6.546  0.00  0.00     0.079 H 
ATOM     25  H12 KDA d          27.985  -4.470   6.570  0.00  0.00     0.122 H 
BRANCH  23  26
ATOM     26  C11 KDA d          29.548  -6.813   4.700  0.00  0.00    -0.058 C 
ATOM     27  H14 KDA d          29.024  -6.664   3.744  0.00  0.00     0.032 H 
ATOM     28  H15 KDA d          29.647  -7.890   4.899  0.00  0.00     0.032 H 
ATOM     29  H16 KDA d          30.547  -6.357   4.646  0.00  0.00     0.032 H 
ENDBRANCH  23  26
ENDBRANCH  21  22
ENDBRANCH   9  21
ENDBRANCH   1   3
BRANCH   1  30
ATOM     30  O7  KDA d          27.318   0.651   2.732  0.00  0.00    -0.391 OA
ATOM     31  H9  KDA d          27.713   1.423   3.120  0.00  0.00     0.210 HD
ENDBRANCH   1  30
BRANCH   1  32
ATOM     32  C8  KDA d          28.129  -1.112   1.318  0.00  0.00     0.050 C 
ATOM     33  H10 KDA d          27.131  -0.932   0.892  0.00  0.00     0.078 H 
ATOM     34  H11 KDA d          28.293  -2.194   1.423  0.00  0.00     0.078 H 
BRANCH  32  35
ATOM     35  O8  KDA d          29.171  -0.501   0.491  0.00  0.00    -0.341 OA
BRANCH  35  36
ATOM     36  C2  KDA d          30.396  -1.299   0.368  0.00  0.00     0.276 C 
ATOM     37  C3  KDA d          30.821  -1.357  -0.960  0.00  0.00    -0.036 C 
ATOM     38  C4  KDA d          30.796  -2.519  -1.764  0.00  0.00    -0.099 C 
ATOM     39  H17 KDA d          31.199  -0.440  -1.410  0.00  0.00     0.085 H 
ATOM     40  C5  KDA d          30.317  -3.750  -1.296  0.00  0.00    -0.023 C 
ATOM     41  H18 KDA d          31.163  -2.455  -2.787  0.00  0.00     0.076 H 
ATOM     42  C6  KDA d          29.529  -3.588   0.003  0.00  0.00     0.072 C 
ATOM     43  H19 KDA d          31.170  -4.420  -1.115  0.00  0.00     0.042 H 
ATOM     44  H20 KDA d          29.660  -4.191  -2.060  0.00  0.00     0.042 H 
ATOM     45  O6  KDA d          30.178  -2.634   0.885  0.00  0.00    -0.335 OA
ATOM     46  H21 KDA d          28.518  -3.244  -0.261  0.00  0.00     0.088 H 
BRANCH  36  47
ATOM     47  C1  KDA d          31.500  -0.645   1.208  0.00  0.00     0.243 C 
ATOM     48  O1B KDA d          32.495  -1.324   1.435  0.00  0.00    -0.644 OA
ATOM     49  O1A KDA d          31.309   0.525   1.594  0.00  0.00    -0.644 OA
ENDBRANCH  36  47
BRANCH  42  50
ATOM     50  C7  KDA d          29.425  -4.829   0.909  0.00  0.00     0.081 C 
ATOM     51  H22 KDA d          29.042  -5.665   0.304  0.00  0.00     0.090 H 
BRANCH  50  52
ATOM     52  O7  KDA d          28.506  -4.556   1.956  0.00  0.00    -0.391 OA
ATOM     53  H23 KDA d          28.667  -5.149   2.681  0.00  0.00     0.210 HD
ENDBRANCH  50  52
BRANCH  50  54
ATOM     54  C8  KDA d          30.754  -5.254   1.516  0.00  0.00     0.043 C 
ATOM     55  H24 KDA d          31.548  -5.133   0.764  0.00  0.00     0.078 H 
ATOM     56  H25 KDA d          30.692  -6.310   1.817  0.00  0.00     0.078 H 
BRANCH  54  57
ATOM     57  O8  KDA d          31.074  -4.457   2.668  0.00  0.00    -0.398 OA
ATOM     58  H26 KDA d          30.937  -4.971   3.455  0.00  0.00     0.209 HD
ENDBRANCH  54  57
ENDBRANCH  50  54
ENDBRANCH  42  50
ENDBRANCH  35  36
ENDBRANCH  32  35
ENDBRANCH   1  32
TORSDOF 16
ENDMDL
MODEL 10
REMARK VINA RESULT:      -5.0      1.864      2.834
REMARK  16 active torsions:
REMARK  status: ('A' for Active; 'I' for Inactive)
REMARK    1  A    between atoms: C1_1  and  C2_4 
REMARK    2  A    between atoms: C2_4  and  O2_16 
REMARK    3  A    between atoms: C4_6  and  O4_7 
REMARK    4  A    between atoms: C5_8  and  O5_9 
REMARK    5  A    between atoms: C6_10  and  C7_12 
REMARK    6  A    between atoms: C7_12  and  O7_13 
REMARK    7  A    between atoms: C7_12  and  C8_14 
REMARK    8  A    between atoms: C8_14  and  O8_15 
REMARK    9  A    between atoms: O8_15  and  C2_20 
REMARK   10  A    between atoms: O2_16  and  C9_17 
REMARK   11  A    between atoms: C10_18  and  C11_19 
REMARK   12  A    between atoms: C2_20  and  C1_21 
REMARK   13  A    between atoms: C6_27  and  C7_29 
REMARK   14  A    between atoms: C7_29  and  O7_30 
REMARK   15  A    between atoms: C7_29  and  C8_31 
REMARK   16  A    between atoms: C8_31  and  O8_32 
ROOT
ATOM      1  C7  KDA d          28.801  -4.765   2.488  0.00  0.00     0.083 C 
ATOM      2  H8  KDA d          29.878  -4.976   2.400  0.00  0.00     0.090 H 
ENDROOT
BRANCH   1   3
ATOM      3  C6  KDA d          28.436  -3.574   1.610  0.00  0.00     0.096 C 
ATOM      4  C5  KDA d          27.803  -3.920   0.246  0.00  0.00     0.088 C 
ATOM      5  C4  KDA d          27.576  -2.625  -0.563  0.00  0.00     0.068 C 
ATOM      6  H5  KDA d          26.835  -4.419   0.396  0.00  0.00     0.091 H 
ATOM      7  C3  KDA d          28.815  -1.711  -0.657  0.00  0.00     0.024 C 
ATOM      8  H3  KDA d          26.773  -2.062  -0.064  0.00  0.00     0.087 H 
ATOM      9  C2  KDA d          29.494  -1.578   0.727  0.00  0.00     0.262 C 
ATOM     10  H1  KDA d          29.531  -2.143  -1.371  0.00  0.00     0.045 H 
ATOM     11  H2  KDA d          28.505  -0.715  -1.006  0.00  0.00     0.045 H 
ATOM     12  O6  KDA d          29.667  -2.839   1.372  0.00  0.00    -0.335 OA
ATOM     13  H7  KDA d          27.726  -2.942   2.163  0.00  0.00     0.091 H 
BRANCH   4  14
ATOM     14  O5  KDA d          28.723  -4.835  -0.421  0.00  0.00    -0.390 OA
ATOM     15  H6  KDA d          28.421  -4.996  -1.307  0.00  0.00     0.210 HD
ENDBRANCH   4  14
BRANCH   5  16
ATOM     16  O4  KDA d          27.166  -2.927  -1.897  0.00  0.00    -0.393 OA
ATOM     17  H4  KDA d          27.251  -3.861  -2.049  0.00  0.00     0.210 HD
ENDBRANCH   5  16
BRANCH   9  18
ATOM     18  C1  KDA d          30.859  -0.906   0.465  0.00  0.00     0.239 C 
ATOM     19  O1A KDA d          31.890  -1.496   0.865  0.00  0.00    -0.644 OA
ATOM     20  O1B KDA d          30.822   0.198  -0.134  0.00  0.00    -0.644 OA
ENDBRANCH   9  18
BRANCH   9  21
ATOM     21  O2  KDA d          28.668  -0.707   1.567  0.00  0.00    -0.317 OA
BRANCH  21  22
ATOM     22  C9  KDA d          29.284  -0.624   2.798  0.00  0.00     0.013 C 
ATOM     23  C10 KDA d          28.626  -0.687   4.021  0.00  0.00    -0.086 C 
ATOM     24  H13 KDA d          29.203  -0.566   4.937  0.00  0.00     0.079 H 
ATOM     25  H12 KDA d          30.365  -0.499   2.814  0.00  0.00     0.122 H 
BRANCH  23  26
ATOM     26  C11 KDA d          27.270  -0.897   4.113  0.00  0.00    -0.058 C 
ATOM     27  H14 KDA d          27.073  -1.973   4.230  0.00  0.00     0.032 H 
ATOM     28  H15 KDA d          26.780  -0.532   3.198  0.00  0.00     0.032 H 
ATOM     29  H16 KDA d          26.872  -0.354   4.983  0.00  0.00     0.032 H 
ENDBRANCH  23  26
ENDBRANCH  21  22
ENDBRANCH   9  21
ENDBRANCH   1   3
BRANCH   1  30
ATOM     30  O7  KDA d          28.038  -5.899   2.060  0.00  0.00    -0.391 OA
ATOM     31  H9  KDA d          27.369  -6.092   2.706  0.00  0.00     0.210 HD
ENDBRANCH   1  30
BRANCH   1  32
ATOM     32  C8  KDA d          28.447  -4.471   3.947  0.00  0.00     0.050 C 
ATOM     33  H10 KDA d          28.047  -5.367   4.444  0.00  0.00     0.078 H 
ATOM     34  H11 KDA d          27.714  -3.655   4.019  0.00  0.00     0.078 H 
BRANCH  32  35
ATOM     35  O8  KDA d          29.731  -4.077   4.527  0.00  0.00    -0.341 OA
BRANCH  35  36
ATOM     36  C2  KDA d          29.815  -4.235   5.983  0.00  0.00     0.276 C 
ATOM     37  C3  KDA d          28.579  -3.986   6.583  0.00  0.00    -0.036 C 
ATOM     38  C4  KDA d          28.292  -2.872   7.403  0.00  0.00    -0.099 C 
ATOM     39  H17 KDA d          27.778  -4.702   6.406  0.00  0.00     0.085 H 
ATOM     40  C5  KDA d          29.239  -1.880   7.688  0.00  0.00    -0.023 C 
ATOM     41  H18 KDA d          27.295  -2.782   7.831  0.00  0.00     0.076 H 
ATOM     42  C6  KDA d          30.441  -1.966   6.748  0.00  0.00     0.072 C 
ATOM     43  H19 KDA d          29.587  -2.004   8.724  0.00  0.00     0.042 H 
ATOM     44  H20 KDA d          28.767  -0.893   7.575  0.00  0.00     0.042 H 
ATOM     45  O6  KDA d          30.824  -3.349   6.526  0.00  0.00    -0.335 OA
ATOM     46  H21 KDA d          30.157  -1.487   5.800  0.00  0.00     0.088 H 
BRANCH  36  47
ATOM     47  C1  KDA d          30.234  -5.675   6.303  0.00  0.00     0.243 C 
ATOM     48  O1B KDA d          29.381  -6.399   6.805  0.00  0.00    -0.644 OA
ATOM     49  O1A KDA d          31.404  -6.006   6.028  0.00  0.00    -0.644 OA
ENDBRANCH  36  47
BRANCH  42  50
ATOM     50  C7  KDA d          31.762  -1.355   7.254  0.00  0.00     0.081 C 
ATOM     51  H22 KDA d          32.273  -2.107   7.873  0.00  0.00     0.090 H 
BRANCH  50  52
ATOM     52  O7  KDA d          31.464  -0.221   8.053  0.00  0.00    -0.391 OA
ATOM     53  H23 KDA d          30.529  -0.190   8.222  0.00  0.00     0.210 HD
ENDBRANCH  50  52
BRANCH  50  54
ATOM     54  C8  KDA d          32.708  -0.938   6.136  0.00  0.00     0.043 C 
ATOM     55  H24 KDA d          33.703  -1.362   6.332  0.00  0.00     0.078 H 
ATOM     56  H25 KDA d          32.775   0.160   6.112  0.00  0.00     0.078 H 
BRANCH  54  57
ATOM     57  O8  KDA d          32.239  -1.408   4.861  0.00  0.00    -0.398 OA
ATOM     58  H26 KDA d          31.290  -1.367   4.840  0.00  0.00     0.209 HD
ENDBRANCH  54  57
ENDBRANCH  50  54
ENDBRANCH  42  50
ENDBRANCH  35  36
ENDBRANCH  32  35
ENDBRANCH   1  32
TORSDOF 16
ENDMDL
