MODEL 1
REMARK VINA RESULT:      -5.9      0.000      0.000
REMARK  11 active torsions:
REMARK  status: ('A' for Active; 'I' for Inactive)
REMARK    1  A    between atoms: C1_4  and  N_1 
REMARK    2  A    between atoms: C_2  and  C1_4 
REMARK    3  A    between atoms: C6_13  and  C_2 
REMARK    4  A    between atoms: C1_4  and  C2_5 
REMARK    5  A    between atoms: O3_8  and  C4_11 
REMARK    6  A    between atoms: C5_12  and  O3_8 
REMARK    7  A    between atoms: C7_14  and  C3_10 
REMARK    8  A    between atoms: C3_10  and  C9_15 
REMARK    9  A    between atoms: C3_10  and  C10_16 
REMARK   10  A    between atoms: C3_10  and  C11_17 
REMARK   11  A    between atoms: C4_11  and  P_18 
ROOT
ATOM      1  O2  AT1 d          38.421   4.649   9.631  0.00  0.00    -0.214 OA
ATOM      2  N1  AT1 d          38.875   5.988   9.664  0.00  0.00    -0.102 NA
ATOM      3  C5  AT1 d          39.036   6.300   8.400  0.00  0.00     0.200 A 
ATOM      4  C6  AT1 d          38.710   5.236   7.497  0.00  0.00     0.032 A 
ATOM      5  C7  AT1 d          38.331   4.213   8.344  0.00  0.00     0.097 A 
ENDROOT
BRANCH   5   6
ATOM      6  C3  AT1 d          37.860   2.758   8.246  0.00  0.00     0.001 C 
BRANCH   6   7
ATOM      7  C9  AT1 d          36.325   2.779   8.049  0.00  0.00    -0.064 C 
ATOM      8  H9  AT1 d          35.935   1.753   8.102  0.00  0.00     0.028 H 
ATOM      9  H10 AT1 d          36.088   3.211   7.065  0.00  0.00     0.028 H 
ATOM     10  H11 AT1 d          35.862   3.389   8.840  0.00  0.00     0.028 H 
ENDBRANCH   6   7
BRANCH   6  11
ATOM     11  C10 AT1 d          38.503   2.072   7.045  0.00  0.00    -0.064 C 
ATOM     12  H12 AT1 d          38.232   2.613   6.126  0.00  0.00     0.028 H 
ATOM     13  H13 AT1 d          38.143   1.035   6.979  0.00  0.00     0.028 H 
ATOM     14  H14 AT1 d          39.596   2.074   7.164  0.00  0.00     0.028 H 
ENDBRANCH   6  11
BRANCH   6  15
ATOM     15  C11 AT1 d          38.153   1.938   9.495  0.00  0.00    -0.064 C 
ATOM     16  H15 AT1 d          38.897   1.163   9.259  0.00  0.00     0.028 H 
ATOM     17  H16 AT1 d          37.227   1.461   9.847  0.00  0.00     0.028 H 
ATOM     18  H17 AT1 d          38.549   2.596  10.282  0.00  0.00     0.028 H 
ENDBRANCH   6  15
ENDBRANCH   5   6
BRANCH   4  19
ATOM     19  C   AT1 d          38.829   5.387   6.010  0.00  0.00     0.002 C 
ATOM     20  H4  AT1 d          38.063   4.751   5.542  0.00  0.00     0.044 H 
ATOM     21  H5  AT1 d          38.634   6.440   5.760  0.00  0.00     0.044 H 
BRANCH  19  22
ATOM     22  C1  AT1 d          40.188   5.004   5.419  0.00  0.00     0.186 C 
ATOM     23  H6  AT1 d          40.536   4.091   5.925  0.00  0.00     0.101 H 
BRANCH  22  24
ATOM     24  N   AT1 d          41.230   6.113   5.631  0.00  0.00    -0.065 N 
ATOM     25  H1  AT1 d          40.887   6.770   6.315  0.00  0.00     0.275 HD
ATOM     26  H2  AT1 d          41.395   6.591   4.759  0.00  0.00     0.275 HD
ATOM     27  H3  AT1 d          42.092   5.706   5.960  0.00  0.00     0.275 HD
ENDBRANCH  22  24
BRANCH  22  28
ATOM     28  C2  AT1 d          40.080   4.718   3.869  0.00  0.00     0.204 C 
ATOM     29  O   AT1 d          38.916   4.544   3.393  0.00  0.00    -0.646 OA
ATOM     30  O1  AT1 d          41.146   4.685   3.212  0.00  0.00    -0.646 OA
ENDBRANCH  22  28
ENDBRANCH  19  22
ENDBRANCH   4  19
BRANCH   3  31
ATOM     31  O3  AT1 d          39.475   7.493   7.956  0.00  0.00    -0.319 OA
BRANCH  31  32
ATOM     32  C4  AT1 d          39.865   8.487   8.961  0.00  0.00     0.130 C 
ATOM     33  H7  AT1 d          39.403   8.239   9.928  0.00  0.00     0.096 H 
ATOM     34  H8  AT1 d          39.537   9.488   8.643  0.00  0.00     0.096 H 
BRANCH  32  35
ATOM     35  P   AT1 d          41.669   8.454   9.117  0.00  0.00     0.284 P 
ATOM     36  O4  AT1 d          42.278   8.386   7.763  0.00  0.00    -0.638 OA
ATOM     37  O5  AT1 d          41.990   9.695   9.905  0.00  0.00    -0.638 OA
ATOM     38  O6  AT1 d          42.004   7.202   9.995  0.00  0.00    -0.638 OA
ENDBRANCH  32  35
ENDBRANCH  31  32
ENDBRANCH   3  31
TORSDOF 11
ENDMDL
MODEL 2
REMARK VINA RESULT:      -5.7      1.152      1.989
REMARK  11 active torsions:
REMARK  status: ('A' for Active; 'I' for Inactive)
REMARK    1  A    between atoms: C1_4  and  N_1 
REMARK    2  A    between atoms: C_2  and  C1_4 
REMARK    3  A    between atoms: C6_13  and  C_2 
REMARK    4  A    between atoms: C1_4  and  C2_5 
REMARK    5  A    between atoms: O3_8  and  C4_11 
REMARK    6  A    between atoms: C5_12  and  O3_8 
REMARK    7  A    between atoms: C7_14  and  C3_10 
REMARK    8  A    between atoms: C3_10  and  C9_15 
REMARK    9  A    between atoms: C3_10  and  C10_16 
REMARK   10  A    between atoms: C3_10  and  C11_17 
REMARK   11  A    between atoms: C4_11  and  P_18 
ROOT
ATOM      1  O2  AT1 d          37.145   4.319   8.780  0.00  0.00    -0.214 OA
ATOM      2  N1  AT1 d          37.718   5.456   9.394  0.00  0.00    -0.102 NA
ATOM      3  C5  AT1 d          38.409   6.022   8.433  0.00  0.00     0.200 A 
ATOM      4  C6  AT1 d          38.334   5.326   7.183  0.00  0.00     0.032 A 
ATOM      5  C7  AT1 d          37.519   4.249   7.473  0.00  0.00     0.097 A 
ENDROOT
BRANCH   5   6
ATOM      6  C3  AT1 d          36.941   3.023   6.758  0.00  0.00     0.001 C 
BRANCH   6   7
ATOM      7  C9  AT1 d          38.133   2.156   6.286  0.00  0.00    -0.064 C 
ATOM      8  H9  AT1 d          39.035   2.780   6.214  0.00  0.00     0.028 H 
ATOM      9  H10 AT1 d          37.905   1.726   5.299  0.00  0.00     0.028 H 
ATOM     10  H11 AT1 d          38.304   1.344   7.009  0.00  0.00     0.028 H 
ENDBRANCH   6   7
BRANCH   6  11
ATOM     11  C10 AT1 d          36.084   2.204   7.718  0.00  0.00    -0.064 C 
ATOM     12  H12 AT1 d          36.736   1.601   8.368  0.00  0.00     0.028 H 
ATOM     13  H13 AT1 d          35.423   1.539   7.143  0.00  0.00     0.028 H 
ATOM     14  H14 AT1 d          35.476   2.882   8.335  0.00  0.00     0.028 H 
ENDBRANCH   6  11
BRANCH   6  15
ATOM     15  C11 AT1 d          36.109   3.370   5.531  0.00  0.00    -0.064 C 
ATOM     16  H15 AT1 d          36.674   3.121   4.621  0.00  0.00     0.028 H 
ATOM     17  H16 AT1 d          35.879   4.446   5.536  0.00  0.00     0.028 H 
ATOM     18  H17 AT1 d          35.172   2.794   5.548  0.00  0.00     0.028 H 
ENDBRANCH   6  15
ENDBRANCH   5   6
BRANCH   4  19
ATOM     19  C   AT1 d          39.055   5.806   5.959  0.00  0.00     0.002 C 
ATOM     20  H4  AT1 d          38.311   5.952   5.162  0.00  0.00     0.044 H 
ATOM     21  H5  AT1 d          39.528   6.769   6.200  0.00  0.00     0.044 H 
BRANCH  19  22
ATOM     22  C1  AT1 d          40.141   4.867   5.426  0.00  0.00     0.186 C 
ATOM     23  H6  AT1 d          40.147   3.962   6.052  0.00  0.00     0.101 H 
BRANCH  22  24
ATOM     24  N   AT1 d          41.531   5.517   5.487  0.00  0.00    -0.065 N 
ATOM     25  H1  AT1 d          41.857   5.701   4.551  0.00  0.00     0.275 HD
ATOM     26  H2  AT1 d          42.174   4.894   5.950  0.00  0.00     0.275 HD
ATOM     27  H3  AT1 d          41.475   6.384   5.998  0.00  0.00     0.275 HD
ENDBRANCH  22  24
BRANCH  22  28
ATOM     28  C2  AT1 d          39.855   4.449   3.929  0.00  0.00     0.204 C 
ATOM     29  O   AT1 d          40.858   4.151   3.211  0.00  0.00    -0.646 OA
ATOM     30  O1  AT1 d          38.660   4.434   3.552  0.00  0.00    -0.646 OA
ENDBRANCH  22  28
ENDBRANCH  19  22
ENDBRANCH   4  19
BRANCH   3  31
ATOM     31  O3  AT1 d          39.140   7.144   8.575  0.00  0.00    -0.319 OA
BRANCH  31  32
ATOM     32  C4  AT1 d          40.422   7.032   9.277  0.00  0.00     0.130 C 
ATOM     33  H7  AT1 d          40.849   6.031   9.115  0.00  0.00     0.096 H 
ATOM     34  H8  AT1 d          40.271   7.196  10.355  0.00  0.00     0.096 H 
BRANCH  32  35
ATOM     35  P   AT1 d          41.541   8.291   8.614  0.00  0.00     0.284 P 
ATOM     36  O4  AT1 d          42.670   8.492   9.560  0.00  0.00    -0.638 OA
ATOM     37  O5  AT1 d          41.924   7.762   7.259  0.00  0.00    -0.638 OA
ATOM     38  O6  AT1 d          40.675   9.581   8.423  0.00  0.00    -0.638 OA
ENDBRANCH  32  35
ENDBRANCH  31  32
ENDBRANCH   3  31
TORSDOF 11
ENDMDL
MODEL 3
REMARK VINA RESULT:      -5.4      2.624      5.346
REMARK  11 active torsions:
REMARK  status: ('A' for Active; 'I' for Inactive)
REMARK    1  A    between atoms: C1_4  and  N_1 
REMARK    2  A    between atoms: C_2  and  C1_4 
REMARK    3  A    between atoms: C6_13  and  C_2 
REMARK    4  A    between atoms: C1_4  and  C2_5 
REMARK    5  A    between atoms: O3_8  and  C4_11 
REMARK    6  A    between atoms: C5_12  and  O3_8 
REMARK    7  A    between atoms: C7_14  and  C3_10 
REMARK    8  A    between atoms: C3_10  and  C9_15 
REMARK    9  A    between atoms: C3_10  and  C10_16 
REMARK   10  A    between atoms: C3_10  and  C11_17 
REMARK   11  A    between atoms: C4_11  and  P_18 
ROOT
ATOM      1  O2  AT1 d          39.705   6.458   9.789  0.00  0.00    -0.214 OA
ATOM      2  N1  AT1 d          39.114   5.174   9.803  0.00  0.00    -0.102 NA
ATOM      3  C5  AT1 d          38.930   4.895   8.534  0.00  0.00     0.200 A 
ATOM      4  C6  AT1 d          39.372   5.929   7.646  0.00  0.00     0.032 A 
ATOM      5  C7  AT1 d          39.850   6.897   8.508  0.00  0.00     0.097 A 
ENDROOT
BRANCH   5   6
ATOM      6  C3  AT1 d          40.472   8.296   8.430  0.00  0.00     0.001 C 
BRANCH   6   7
ATOM      7  C9  AT1 d          39.523   9.269   9.170  0.00  0.00    -0.064 C 
ATOM      8  H9  AT1 d          38.804   9.694   8.455  0.00  0.00     0.028 H 
ATOM      9  H10 AT1 d          40.111  10.079   9.625  0.00  0.00     0.028 H 
ATOM     10  H11 AT1 d          38.979   8.723   9.956  0.00  0.00     0.028 H 
ENDBRANCH   6   7
BRANCH   6  11
ATOM     11  C10 AT1 d          41.831   8.311   9.121  0.00  0.00    -0.064 C 
ATOM     12  H12 AT1 d          42.369   7.379   8.893  0.00  0.00     0.028 H 
ATOM     13  H13 AT1 d          41.690   8.396  10.208  0.00  0.00     0.028 H 
ATOM     14  H14 AT1 d          42.417   9.170   8.759  0.00  0.00     0.028 H 
ENDBRANCH   6  11
BRANCH   6  15
ATOM     15  C11 AT1 d          40.639   8.809   7.006  0.00  0.00    -0.064 C 
ATOM     16  H15 AT1 d          41.629   9.275   6.898  0.00  0.00     0.028 H 
ATOM     17  H16 AT1 d          39.859   9.553   6.790  0.00  0.00     0.028 H 
ATOM     18  H17 AT1 d          40.551   7.969   6.300  0.00  0.00     0.028 H 
ENDBRANCH   6  15
ENDBRANCH   5   6
BRANCH   4  19
ATOM     19  C   AT1 d          39.248   5.808   6.157  0.00  0.00     0.002 C 
ATOM     20  H4  AT1 d          38.230   5.459   5.929  0.00  0.00     0.044 H 
ATOM     21  H5  AT1 d          39.401   6.806   5.722  0.00  0.00     0.044 H 
BRANCH  19  22
ATOM     22  C1  AT1 d          40.238   4.846   5.493  0.00  0.00     0.186 C 
ATOM     23  H6  AT1 d          40.256   3.916   6.079  0.00  0.00     0.101 H 
BRANCH  22  24
ATOM     24  N   AT1 d          41.657   5.432   5.455  0.00  0.00    -0.065 N 
ATOM     25  H1  AT1 d          42.127   5.123   4.619  0.00  0.00     0.275 HD
ATOM     26  H2  AT1 d          42.171   5.120   6.264  0.00  0.00     0.275 HD
ATOM     27  H3  AT1 d          41.606   6.439   5.458  0.00  0.00     0.275 HD
ENDBRANCH  22  24
BRANCH  22  28
ATOM     28  C2  AT1 d          39.803   4.508   4.012  0.00  0.00     0.204 C 
ATOM     29  O   AT1 d          40.717   4.141   3.211  0.00  0.00    -0.646 OA
ATOM     30  O1  AT1 d          38.588   4.619   3.727  0.00  0.00    -0.646 OA
ENDBRANCH  22  28
ENDBRANCH  19  22
ENDBRANCH   4  19
BRANCH   3  31
ATOM     31  O3  AT1 d          38.371   3.759   8.074  0.00  0.00    -0.319 OA
BRANCH  31  32
ATOM     32  C4  AT1 d          36.998   3.839   7.567  0.00  0.00     0.130 C 
ATOM     33  H7  AT1 d          36.867   4.765   6.988  0.00  0.00     0.096 H 
ATOM     34  H8  AT1 d          36.289   3.829   8.408  0.00  0.00     0.096 H 
BRANCH  32  35
ATOM     35  P   AT1 d          36.705   2.404   6.501  0.00  0.00     0.284 P 
ATOM     36  O4  AT1 d          35.969   1.365   7.268  0.00  0.00    -0.638 OA
ATOM     37  O5  AT1 d          35.970   2.972   5.318  0.00  0.00    -0.638 OA
ATOM     38  O6  AT1 d          38.118   1.922   6.030  0.00  0.00    -0.638 OA
ENDBRANCH  32  35
ENDBRANCH  31  32
ENDBRANCH   3  31
TORSDOF 11
ENDMDL
MODEL 4
REMARK VINA RESULT:      -5.4      1.728      4.202
REMARK  11 active torsions:
REMARK  status: ('A' for Active; 'I' for Inactive)
REMARK    1  A    between atoms: C1_4  and  N_1 
REMARK    2  A    between atoms: C_2  and  C1_4 
REMARK    3  A    between atoms: C6_13  and  C_2 
REMARK    4  A    between atoms: C1_4  and  C2_5 
REMARK    5  A    between atoms: O3_8  and  C4_11 
REMARK    6  A    between atoms: C5_12  and  O3_8 
REMARK    7  A    between atoms: C7_14  and  C3_10 
REMARK    8  A    between atoms: C3_10  and  C9_15 
REMARK    9  A    between atoms: C3_10  and  C10_16 
REMARK   10  A    between atoms: C3_10  and  C11_17 
REMARK   11  A    between atoms: C4_11  and  P_18 
ROOT
ATOM      1  O2  AT1 d          40.143   6.295   5.226  0.00  0.00    -0.214 OA
ATOM      2  N1  AT1 d          40.435   7.225   6.251  0.00  0.00    -0.102 NA
ATOM      3  C5  AT1 d          39.670   6.849   7.249  0.00  0.00     0.200 A 
ATOM      4  C6  AT1 d          38.866   5.699   6.957  0.00  0.00     0.032 A 
ATOM      5  C7  AT1 d          39.210   5.400   5.654  0.00  0.00     0.097 A 
ENDROOT
BRANCH   5   6
ATOM      6  C3  AT1 d          38.839   4.375   4.577  0.00  0.00     0.001 C 
BRANCH   6   7
ATOM      7  C9  AT1 d          39.700   4.680   3.328  0.00  0.00    -0.064 C 
ATOM      8  H9  AT1 d          40.443   3.882   3.191  0.00  0.00     0.028 H 
ATOM      9  H10 AT1 d          40.216   5.642   3.465  0.00  0.00     0.028 H 
ATOM     10  H11 AT1 d          39.052   4.735   2.440  0.00  0.00     0.028 H 
ENDBRANCH   6   7
BRANCH   6  11
ATOM     11  C10 AT1 d          39.152   2.962   5.059  0.00  0.00    -0.064 C 
ATOM     12  H12 AT1 d          38.685   2.231   4.382  0.00  0.00     0.028 H 
ATOM     13  H13 AT1 d          38.757   2.825   6.076  0.00  0.00     0.028 H 
ATOM     14  H14 AT1 d          40.242   2.810   5.065  0.00  0.00     0.028 H 
ENDBRANCH   6  11
BRANCH   6  15
ATOM     15  C11 AT1 d          37.377   4.436   4.155  0.00  0.00    -0.064 C 
ATOM     16  H15 AT1 d          36.803   5.005   4.902  0.00  0.00     0.028 H 
ATOM     17  H16 AT1 d          36.973   3.416   4.082  0.00  0.00     0.028 H 
ATOM     18  H17 AT1 d          37.298   4.934   3.177  0.00  0.00     0.028 H 
ENDBRANCH   6  15
ENDBRANCH   5   6
BRANCH   4  19
ATOM     19  C   AT1 d          37.920   5.113   7.962  0.00  0.00     0.002 C 
ATOM     20  H4  AT1 d          37.833   5.821   8.800  0.00  0.00     0.044 H 
ATOM     21  H5  AT1 d          36.940   4.995   7.478  0.00  0.00     0.044 H 
BRANCH  19  22
ATOM     22  C1  AT1 d          38.331   3.753   8.534  0.00  0.00     0.186 C 
ATOM     23  H6  AT1 d          39.311   3.486   8.110  0.00  0.00     0.101 H 
BRANCH  22  24
ATOM     24  N   AT1 d          37.320   2.656   8.166  0.00  0.00    -0.065 N 
ATOM     25  H1  AT1 d          36.430   3.078   7.951  0.00  0.00     0.275 HD
ATOM     26  H2  AT1 d          37.213   2.024   8.944  0.00  0.00     0.275 HD
ATOM     27  H3  AT1 d          37.653   2.148   7.362  0.00  0.00     0.275 HD
ENDBRANCH  22  24
BRANCH  22  28
ATOM     28  C2  AT1 d          38.453   3.805  10.108  0.00  0.00     0.204 C 
ATOM     29  O   AT1 d          38.348   4.944  10.659  0.00  0.00    -0.646 OA
ATOM     30  O1  AT1 d          38.641   2.722  10.709  0.00  0.00    -0.646 OA
ENDBRANCH  22  28
ENDBRANCH  19  22
ENDBRANCH   4  19
BRANCH   3  31
ATOM     31  O3  AT1 d          39.611   7.469   8.443  0.00  0.00    -0.319 OA
BRANCH  31  32
ATOM     32  C4  AT1 d          40.738   7.276   9.361  0.00  0.00     0.130 C 
ATOM     33  H7  AT1 d          41.260   6.339   9.119  0.00  0.00     0.096 H 
ATOM     34  H8  AT1 d          40.371   7.235  10.398  0.00  0.00     0.096 H 
BRANCH  32  35
ATOM     35  P   AT1 d          41.870   8.676   9.166  0.00  0.00     0.284 P 
ATOM     36  O4  AT1 d          42.760   8.430   8.002  0.00  0.00    -0.638 OA
ATOM     37  O5  AT1 d          40.959   9.867   9.039  0.00  0.00    -0.638 OA
ATOM     38  O6  AT1 d          42.654   8.787  10.516  0.00  0.00    -0.638 OA
ENDBRANCH  32  35
ENDBRANCH  31  32
ENDBRANCH   3  31
TORSDOF 11
ENDMDL
MODEL 5
REMARK VINA RESULT:      -5.4      2.731      5.161
REMARK  11 active torsions:
REMARK  status: ('A' for Active; 'I' for Inactive)
REMARK    1  A    between atoms: C1_4  and  N_1 
REMARK    2  A    between atoms: C_2  and  C1_4 
REMARK    3  A    between atoms: C6_13  and  C_2 
REMARK    4  A    between atoms: C1_4  and  C2_5 
REMARK    5  A    between atoms: O3_8  and  C4_11 
REMARK    6  A    between atoms: C5_12  and  O3_8 
REMARK    7  A    between atoms: C7_14  and  C3_10 
REMARK    8  A    between atoms: C3_10  and  C9_15 
REMARK    9  A    between atoms: C3_10  and  C10_16 
REMARK   10  A    between atoms: C3_10  and  C11_17 
REMARK   11  A    between atoms: C4_11  and  P_18 
ROOT
ATOM      1  O2  AT1 d          37.394   4.898   8.120  0.00  0.00    -0.214 OA
ATOM      2  N1  AT1 d          37.640   4.589   6.762  0.00  0.00    -0.102 NA
ATOM      3  C5  AT1 d          38.239   5.659   6.296  0.00  0.00     0.200 A 
ATOM      4  C6  AT1 d          38.420   6.691   7.274  0.00  0.00     0.032 A 
ATOM      5  C7  AT1 d          37.856   6.146   8.410  0.00  0.00     0.097 A 
ENDROOT
BRANCH   5   6
ATOM      6  C3  AT1 d          37.602   6.544   9.868  0.00  0.00     0.001 C 
BRANCH   6   7
ATOM      7  C9  AT1 d          36.458   5.649  10.402  0.00  0.00    -0.064 C 
ATOM      8  H9  AT1 d          36.300   4.806   9.714  0.00  0.00     0.028 H 
ATOM      9  H10 AT1 d          35.533   6.241  10.474  0.00  0.00     0.028 H 
ATOM     10  H11 AT1 d          36.727   5.265  11.397  0.00  0.00     0.028 H 
ENDBRANCH   6   7
BRANCH   6  11
ATOM     11  C10 AT1 d          38.851   6.303  10.710  0.00  0.00    -0.064 C 
ATOM     12  H12 AT1 d          39.497   7.193  10.671  0.00  0.00     0.028 H 
ATOM     13  H13 AT1 d          39.399   5.436  10.314  0.00  0.00     0.028 H 
ATOM     14  H14 AT1 d          38.558   6.108  11.752  0.00  0.00     0.028 H 
ENDBRANCH   6  11
BRANCH   6  15
ATOM     15  C11 AT1 d          37.169   7.995  10.036  0.00  0.00    -0.064 C 
ATOM     16  H15 AT1 d          37.591   8.600   9.221  0.00  0.00     0.028 H 
ATOM     17  H16 AT1 d          37.532   8.376  11.001  0.00  0.00     0.028 H 
ATOM     18  H17 AT1 d          36.071   8.056  10.006  0.00  0.00     0.028 H 
ENDBRANCH   6  15
ENDBRANCH   5   6
BRANCH   4  19
ATOM     19  C   AT1 d          39.081   7.995   6.942  0.00  0.00     0.002 C 
ATOM     20  H4  AT1 d          38.765   8.288   5.930  0.00  0.00     0.044 H 
ATOM     21  H5  AT1 d          38.732   8.745   7.667  0.00  0.00     0.044 H 
BRANCH  19  22
ATOM     22  C1  AT1 d          40.611   7.982   6.975  0.00  0.00     0.186 C 
ATOM     23  H6  AT1 d          40.975   8.749   6.275  0.00  0.00     0.101 H 
BRANCH  22  24
ATOM     24  N   AT1 d          41.175   6.619   6.549  0.00  0.00    -0.065 N 
ATOM     25  H1  AT1 d          40.534   6.176   5.909  0.00  0.00     0.275 HD
ATOM     26  H2  AT1 d          41.294   6.035   7.362  0.00  0.00     0.275 HD
ATOM     27  H3  AT1 d          42.066   6.750   6.095  0.00  0.00     0.275 HD
ENDBRANCH  22  24
BRANCH  22  28
ATOM     28  C2  AT1 d          41.158   8.313   8.421  0.00  0.00     0.204 C 
ATOM     29  O   AT1 d          42.321   7.894   8.708  0.00  0.00    -0.646 OA
ATOM     30  O1  AT1 d          40.411   8.968   9.185  0.00  0.00    -0.646 OA
ENDBRANCH  22  28
ENDBRANCH  19  22
ENDBRANCH   4  19
BRANCH   3  31
ATOM     31  O3  AT1 d          38.648   5.813   5.022  0.00  0.00    -0.319 OA
BRANCH  31  32
ATOM     32  C4  AT1 d          38.440   4.688   4.104  0.00  0.00     0.130 C 
ATOM     33  H7  AT1 d          38.168   5.066   3.108  0.00  0.00     0.096 H 
ATOM     34  H8  AT1 d          37.635   4.042   4.484  0.00  0.00     0.096 H 
BRANCH  32  35
ATOM     35  P   AT1 d          39.985   3.749   4.003  0.00  0.00     0.284 P 
ATOM     36  O4  AT1 d          39.713   2.419   3.398  0.00  0.00    -0.638 OA
ATOM     37  O5  AT1 d          40.903   4.640   3.211  0.00  0.00    -0.638 OA
ATOM     38  O6  AT1 d          40.526   3.649   5.469  0.00  0.00    -0.638 OA
ENDBRANCH  32  35
ENDBRANCH  31  32
ENDBRANCH   3  31
TORSDOF 11
ENDMDL
MODEL 6
REMARK VINA RESULT:      -5.3      1.757      3.997
REMARK  11 active torsions:
REMARK  status: ('A' for Active; 'I' for Inactive)
REMARK    1  A    between atoms: C1_4  and  N_1 
REMARK    2  A    between atoms: C_2  and  C1_4 
REMARK    3  A    between atoms: C6_13  and  C_2 
REMARK    4  A    between atoms: C1_4  and  C2_5 
REMARK    5  A    between atoms: O3_8  and  C4_11 
REMARK    6  A    between atoms: C5_12  and  O3_8 
REMARK    7  A    between atoms: C7_14  and  C3_10 
REMARK    8  A    between atoms: C3_10  and  C9_15 
REMARK    9  A    between atoms: C3_10  and  C10_16 
REMARK   10  A    between atoms: C3_10  and  C11_17 
REMARK   11  A    between atoms: C4_11  and  P_18 
ROOT
ATOM      1  O2  AT1 d          40.377   5.802   5.329  0.00  0.00    -0.214 OA
ATOM      2  N1  AT1 d          40.774   6.942   6.065  0.00  0.00    -0.102 NA
ATOM      3  C5  AT1 d          39.665   7.358   6.630  0.00  0.00     0.200 A 
ATOM      4  C6  AT1 d          38.522   6.552   6.318  0.00  0.00     0.032 A 
ATOM      5  C7  AT1 d          39.041   5.583   5.483  0.00  0.00     0.097 A 
ENDROOT
BRANCH   5   6
ATOM      6  C3  AT1 d          38.548   4.366   4.693  0.00  0.00     0.001 C 
BRANCH   6   7
ATOM      7  C9  AT1 d          39.597   4.069   3.594  0.00  0.00    -0.064 C 
ATOM      8  H9  AT1 d          40.251   4.944   3.466  0.00  0.00     0.028 H 
ATOM      9  H10 AT1 d          39.082   3.854   2.646  0.00  0.00     0.028 H 
ATOM     10  H11 AT1 d          40.202   3.199   3.890  0.00  0.00     0.028 H 
ENDBRANCH   6   7
BRANCH   6  11
ATOM     11  C10 AT1 d          38.434   3.150   5.607  0.00  0.00    -0.064 C 
ATOM     12  H12 AT1 d          37.541   2.569   5.333  0.00  0.00     0.028 H 
ATOM     13  H13 AT1 d          38.348   3.483   6.652  0.00  0.00     0.028 H 
ATOM     14  H14 AT1 d          39.330   2.522   5.495  0.00  0.00     0.028 H 
ENDBRANCH   6  11
BRANCH   6  15
ATOM     15  C11 AT1 d          37.209   4.590   4.004  0.00  0.00    -0.064 C 
ATOM     16  H15 AT1 d          37.338   5.297   3.172  0.00  0.00     0.028 H 
ATOM     17  H16 AT1 d          36.489   5.002   4.726  0.00  0.00     0.028 H 
ATOM     18  H17 AT1 d          36.832   3.633   3.615  0.00  0.00     0.028 H 
ENDBRANCH   6  15
ENDBRANCH   5   6
BRANCH   4  19
ATOM     19  C   AT1 d          37.158   6.860   6.860  0.00  0.00     0.002 C 
ATOM     20  H4  AT1 d          36.995   7.945   6.772  0.00  0.00     0.044 H 
ATOM     21  H5  AT1 d          36.420   6.327   6.245  0.00  0.00     0.044 H 
BRANCH  19  22
ATOM     22  C1  AT1 d          36.929   6.465   8.322  0.00  0.00     0.186 C 
ATOM     23  H6  AT1 d          35.849   6.513   8.523  0.00  0.00     0.101 H 
BRANCH  22  24
ATOM     24  N   AT1 d          37.653   7.418   9.286  0.00  0.00    -0.065 N 
ATOM     25  H1  AT1 d          38.062   6.887  10.038  0.00  0.00     0.275 HD
ATOM     26  H2  AT1 d          36.993   8.080   9.662  0.00  0.00     0.275 HD
ATOM     27  H3  AT1 d          38.378   7.911   8.789  0.00  0.00     0.275 HD
ENDBRANCH  22  24
BRANCH  22  28
ATOM     28  C2  AT1 d          37.436   4.996   8.606  0.00  0.00     0.204 C 
ATOM     29  O   AT1 d          38.591   4.872   9.116  0.00  0.00    -0.646 OA
ATOM     30  O1  AT1 d          36.665   4.052   8.314  0.00  0.00    -0.646 OA
ENDBRANCH  22  28
ENDBRANCH  19  22
ENDBRANCH   4  19
BRANCH   3  31
ATOM     31  O3  AT1 d          39.571   8.443   7.423  0.00  0.00    -0.319 OA
BRANCH  31  32
ATOM     32  C4  AT1 d          40.801   9.192   7.692  0.00  0.00     0.130 C 
ATOM     33  H7  AT1 d          40.583  10.270   7.719  0.00  0.00     0.096 H 
ATOM     34  H8  AT1 d          41.542   8.988   6.905  0.00  0.00     0.096 H 
BRANCH  32  35
ATOM     35  P   AT1 d          41.448   8.658   9.297  0.00  0.00     0.284 P 
ATOM     36  O4  AT1 d          40.635   7.520   9.800  0.00  0.00    -0.638 OA
ATOM     37  O5  AT1 d          42.893   8.342   9.021  0.00  0.00    -0.638 OA
ATOM     38  O6  AT1 d          41.378   9.912  10.230  0.00  0.00    -0.638 OA
ENDBRANCH  32  35
ENDBRANCH  31  32
ENDBRANCH   3  31
TORSDOF 11
ENDMDL
MODEL 7
REMARK VINA RESULT:      -5.1      1.794      4.128
REMARK  11 active torsions:
REMARK  status: ('A' for Active; 'I' for Inactive)
REMARK    1  A    between atoms: C1_4  and  N_1 
REMARK    2  A    between atoms: C_2  and  C1_4 
REMARK    3  A    between atoms: C6_13  and  C_2 
REMARK    4  A    between atoms: C1_4  and  C2_5 
REMARK    5  A    between atoms: O3_8  and  C4_11 
REMARK    6  A    between atoms: C5_12  and  O3_8 
REMARK    7  A    between atoms: C7_14  and  C3_10 
REMARK    8  A    between atoms: C3_10  and  C9_15 
REMARK    9  A    between atoms: C3_10  and  C10_16 
REMARK   10  A    between atoms: C3_10  and  C11_17 
REMARK   11  A    between atoms: C4_11  and  P_18 
ROOT
ATOM      1  O2  AT1 d          39.166   6.131   5.385  0.00  0.00    -0.214 OA
ATOM      2  N1  AT1 d          39.588   6.978   6.436  0.00  0.00    -0.102 NA
ATOM      3  C5  AT1 d          39.399   6.259   7.518  0.00  0.00     0.200 A 
ATOM      4  C6  AT1 d          38.869   4.954   7.259  0.00  0.00     0.032 A 
ATOM      5  C7  AT1 d          38.739   4.937   5.884  0.00  0.00     0.097 A 
ENDROOT
BRANCH   5   6
ATOM      6  C3  AT1 d          38.252   3.982   4.790  0.00  0.00     0.001 C 
BRANCH   6   7
ATOM      7  C9  AT1 d          36.776   4.335   4.486  0.00  0.00    -0.064 C 
ATOM      8  H9  AT1 d          36.545   5.327   4.900  0.00  0.00     0.028 H 
ATOM      9  H10 AT1 d          36.117   3.583   4.945  0.00  0.00     0.028 H 
ATOM     10  H11 AT1 d          36.619   4.347   3.397  0.00  0.00     0.028 H 
ENDBRANCH   6   7
BRANCH   6  11
ATOM     11  C10 AT1 d          39.075   4.166   3.519  0.00  0.00    -0.064 C 
ATOM     12  H12 AT1 d          39.802   4.978   3.668  0.00  0.00     0.028 H 
ATOM     13  H13 AT1 d          38.408   4.421   2.683  0.00  0.00     0.028 H 
ATOM     14  H14 AT1 d          39.610   3.232   3.290  0.00  0.00     0.028 H 
ENDBRANCH   6  11
BRANCH   6  15
ATOM     15  C11 AT1 d          38.300   2.515   5.197  0.00  0.00    -0.064 C 
ATOM     16  H15 AT1 d          39.193   2.042   4.761  0.00  0.00     0.028 H 
ATOM     17  H16 AT1 d          37.399   2.003   4.830  0.00  0.00     0.028 H 
ATOM     18  H17 AT1 d          38.345   2.440   6.293  0.00  0.00     0.028 H 
ENDBRANCH   6  15
ENDBRANCH   5   6
BRANCH   4  19
ATOM     19  C   AT1 d          38.578   3.978   8.359  0.00  0.00     0.002 C 
ATOM     20  H4  AT1 d          39.163   3.066   8.168  0.00  0.00     0.044 H 
ATOM     21  H5  AT1 d          38.902   4.430   9.308  0.00  0.00     0.044 H 
BRANCH  19  22
ATOM     22  C1  AT1 d          37.109   3.575   8.507  0.00  0.00     0.186 C 
ATOM     23  H6  AT1 d          36.647   3.596   7.508  0.00  0.00     0.101 H 
BRANCH  22  24
ATOM     24  N   AT1 d          36.345   4.543   9.423  0.00  0.00    -0.065 N 
ATOM     25  H1  AT1 d          36.514   4.297  10.386  0.00  0.00     0.275 HD
ATOM     26  H2  AT1 d          35.358   4.482   9.229  0.00  0.00     0.275 HD
ATOM     27  H3  AT1 d          36.663   5.485   9.256  0.00  0.00     0.275 HD
ENDBRANCH  22  24
BRANCH  22  28
ATOM     28  C2  AT1 d          36.970   2.118   9.102  0.00  0.00     0.204 C 
ATOM     29  O   AT1 d          37.575   1.879  10.191  0.00  0.00    -0.646 OA
ATOM     30  O1  AT1 d          36.270   1.297   8.464  0.00  0.00    -0.646 OA
ENDBRANCH  22  28
ENDBRANCH  19  22
ENDBRANCH   4  19
BRANCH   3  31
ATOM     31  O3  AT1 d          39.657   6.682   8.771  0.00  0.00    -0.319 OA
BRANCH  31  32
ATOM     32  C4  AT1 d          39.861   8.119   8.972  0.00  0.00     0.130 C 
ATOM     33  H7  AT1 d          39.263   8.465   9.828  0.00  0.00     0.096 H 
ATOM     34  H8  AT1 d          39.557   8.668   8.068  0.00  0.00     0.096 H 
BRANCH  32  35
ATOM     35  P   AT1 d          41.619   8.400   9.299  0.00  0.00     0.284 P 
ATOM     36  O4  AT1 d          41.781   9.662  10.068  0.00  0.00    -0.638 OA
ATOM     37  O5  AT1 d          42.061   7.151  10.013  0.00  0.00    -0.638 OA
ATOM     38  O6  AT1 d          42.316   8.450   7.898  0.00  0.00    -0.638 OA
ENDBRANCH  32  35
ENDBRANCH  31  32
ENDBRANCH   3  31
TORSDOF 11
ENDMDL
MODEL 8
REMARK VINA RESULT:      -5.1      2.210      4.494
REMARK  11 active torsions:
REMARK  status: ('A' for Active; 'I' for Inactive)
REMARK    1  A    between atoms: C1_4  and  N_1 
REMARK    2  A    between atoms: C_2  and  C1_4 
REMARK    3  A    between atoms: C6_13  and  C_2 
REMARK    4  A    between atoms: C1_4  and  C2_5 
REMARK    5  A    between atoms: O3_8  and  C4_11 
REMARK    6  A    between atoms: C5_12  and  O3_8 
REMARK    7  A    between atoms: C7_14  and  C3_10 
REMARK    8  A    between atoms: C3_10  and  C9_15 
REMARK    9  A    between atoms: C3_10  and  C10_16 
REMARK   10  A    between atoms: C3_10  and  C11_17 
REMARK   11  A    between atoms: C4_11  and  P_18 
ROOT
ATOM      1  O2  AT1 d          39.524   5.438   4.908  0.00  0.00    -0.214 OA
ATOM      2  N1  AT1 d          40.272   6.511   5.445  0.00  0.00    -0.102 NA
ATOM      3  C5  AT1 d          39.433   7.110   6.256  0.00  0.00     0.200 A 
ATOM      4  C6  AT1 d          38.139   6.496   6.304  0.00  0.00     0.032 A 
ATOM      5  C7  AT1 d          38.261   5.441   5.420  0.00  0.00     0.097 A 
ENDROOT
BRANCH   5   6
ATOM      6  C3  AT1 d          37.395   4.309   4.860  0.00  0.00     0.001 C 
BRANCH   6   7
ATOM      7  C9  AT1 d          38.321   3.375   4.043  0.00  0.00    -0.064 C 
ATOM      8  H9  AT1 d          38.897   2.739   4.730  0.00  0.00     0.028 H 
ATOM      9  H10 AT1 d          39.011   3.982   3.438  0.00  0.00     0.028 H 
ATOM     10  H11 AT1 d          37.711   2.742   3.381  0.00  0.00     0.028 H 
ENDBRANCH   6   7
BRANCH   6  11
ATOM     11  C10 AT1 d          36.766   3.509   5.997  0.00  0.00    -0.064 C 
ATOM     12  H12 AT1 d          37.245   2.520   6.057  0.00  0.00     0.028 H 
ATOM     13  H13 AT1 d          35.690   3.385   5.807  0.00  0.00     0.028 H 
ATOM     14  H14 AT1 d          36.912   4.046   6.946  0.00  0.00     0.028 H 
ENDBRANCH   6  11
BRANCH   6  15
ATOM     15  C11 AT1 d          36.290   4.790   3.929  0.00  0.00    -0.064 C 
ATOM     16  H15 AT1 d          35.310   4.553   4.369  0.00  0.00     0.028 H 
ATOM     17  H16 AT1 d          36.385   4.288   2.956  0.00  0.00     0.028 H 
ATOM     18  H17 AT1 d          36.374   5.879   3.792  0.00  0.00     0.028 H 
ENDBRANCH   6  15
ENDBRANCH   5   6
BRANCH   4  19
ATOM     19  C   AT1 d          37.035   7.029   7.166  0.00  0.00     0.002 C 
ATOM     20  H4  AT1 d          37.086   8.128   7.142  0.00  0.00     0.044 H 
ATOM     21  H5  AT1 d          36.079   6.697   6.736  0.00  0.00     0.044 H 
BRANCH  19  22
ATOM     22  C1  AT1 d          37.074   6.586   8.631  0.00  0.00     0.186 C 
ATOM     23  H6  AT1 d          38.052   6.121   8.821  0.00  0.00     0.101 H 
BRANCH  22  24
ATOM     24  N   AT1 d          35.972   5.562   8.942  0.00  0.00    -0.065 N 
ATOM     25  H1  AT1 d          35.131   5.812   8.446  0.00  0.00     0.275 HD
ATOM     26  H2  AT1 d          35.789   5.556   9.933  0.00  0.00     0.275 HD
ATOM     27  H3  AT1 d          36.273   4.645   8.650  0.00  0.00     0.275 HD
ENDBRANCH  22  24
BRANCH  22  28
ATOM     28  C2  AT1 d          36.896   7.815   9.608  0.00  0.00     0.204 C 
ATOM     29  O   AT1 d          37.324   8.940   9.205  0.00  0.00    -0.646 OA
ATOM     30  O1  AT1 d          36.342   7.601  10.711  0.00  0.00    -0.646 OA
ENDBRANCH  22  28
ENDBRANCH  19  22
ENDBRANCH   4  19
BRANCH   3  31
ATOM     31  O3  AT1 d          39.721   8.208   6.981  0.00  0.00    -0.319 OA
BRANCH  31  32
ATOM     32  C4  AT1 d          41.133   8.472   7.276  0.00  0.00     0.130 C 
ATOM     33  H7  AT1 d          41.412   9.468   6.902  0.00  0.00     0.096 H 
ATOM     34  H8  AT1 d          41.763   7.710   6.793  0.00  0.00     0.096 H 
BRANCH  32  35
ATOM     35  P   AT1 d          41.356   8.406   9.071  0.00  0.00     0.284 P 
ATOM     36  O4  AT1 d          42.809   8.411   9.386  0.00  0.00    -0.638 OA
ATOM     37  O5  AT1 d          40.584   9.593   9.579  0.00  0.00    -0.638 OA
ATOM     38  O6  AT1 d          40.638   7.099   9.548  0.00  0.00    -0.638 OA
ENDBRANCH  32  35
ENDBRANCH  31  32
ENDBRANCH   3  31
TORSDOF 11
ENDMDL
MODEL 9
REMARK VINA RESULT:      -4.9      2.127      4.355
REMARK  11 active torsions:
REMARK  status: ('A' for Active; 'I' for Inactive)
REMARK    1  A    between atoms: C1_4  and  N_1 
REMARK    2  A    between atoms: C_2  and  C1_4 
REMARK    3  A    between atoms: C6_13  and  C_2 
REMARK    4  A    between atoms: C1_4  and  C2_5 
REMARK    5  A    between atoms: O3_8  and  C4_11 
REMARK    6  A    between atoms: C5_12  and  O3_8 
REMARK    7  A    between atoms: C7_14  and  C3_10 
REMARK    8  A    between atoms: C3_10  and  C9_15 
REMARK    9  A    between atoms: C3_10  and  C10_16 
REMARK   10  A    between atoms: C3_10  and  C11_17 
REMARK   11  A    between atoms: C4_11  and  P_18 
ROOT
ATOM      1  O2  AT1 d          38.819   5.140   4.397  0.00  0.00    -0.214 OA
ATOM      2  N1  AT1 d          39.579   6.051   5.167  0.00  0.00    -0.102 NA
ATOM      3  C5  AT1 d          39.212   5.806   6.403  0.00  0.00     0.200 A 
ATOM      4  C6  AT1 d          38.236   4.764   6.519  0.00  0.00     0.032 A 
ATOM      5  C7  AT1 d          38.025   4.386   5.207  0.00  0.00     0.097 A 
ENDROOT
BRANCH   5   6
ATOM      6  C3  AT1 d          37.163   3.389   4.426  0.00  0.00     0.001 C 
BRANCH   6   7
ATOM      7  C9  AT1 d          38.108   2.305   3.854  0.00  0.00    -0.064 C 
ATOM      8  H9  AT1 d          38.602   2.690   2.950  0.00  0.00     0.028 H 
ATOM      9  H10 AT1 d          37.525   1.408   3.599  0.00  0.00     0.028 H 
ATOM     10  H11 AT1 d          38.869   2.049   4.606  0.00  0.00     0.028 H 
ENDBRANCH   6   7
BRANCH   6  11
ATOM     11  C10 AT1 d          36.151   2.722   5.352  0.00  0.00    -0.064 C 
ATOM     12  H12 AT1 d          35.267   3.368   5.456  0.00  0.00     0.028 H 
ATOM     13  H13 AT1 d          36.607   2.563   6.340  0.00  0.00     0.028 H 
ATOM     14  H14 AT1 d          35.849   1.753   4.928  0.00  0.00     0.028 H 
ENDBRANCH   6  11
BRANCH   6  15
ATOM     15  C11 AT1 d          36.418   4.015   3.255  0.00  0.00    -0.064 C 
ATOM     16  H15 AT1 d          36.280   3.265   2.463  0.00  0.00     0.028 H 
ATOM     17  H16 AT1 d          36.999   4.861   2.860  0.00  0.00     0.028 H 
ATOM     18  H17 AT1 d          35.434   4.372   3.594  0.00  0.00     0.028 H 
ENDBRANCH   6  15
ENDBRANCH   5   6
BRANCH   4  19
ATOM     19  C   AT1 d          37.682   4.334   7.844  0.00  0.00     0.002 C 
ATOM     20  H4  AT1 d          37.556   5.233   8.466  0.00  0.00     0.044 H 
ATOM     21  H5  AT1 d          36.702   3.868   7.668  0.00  0.00     0.044 H 
BRANCH  19  22
ATOM     22  C1  AT1 d          38.545   3.338   8.623  0.00  0.00     0.186 C 
ATOM     23  H6  AT1 d          39.523   3.806   8.812  0.00  0.00     0.101 H 
BRANCH  22  24
ATOM     24  N   AT1 d          38.766   2.040   7.831  0.00  0.00    -0.065 N 
ATOM     25  H1  AT1 d          37.921   1.490   7.846  0.00  0.00     0.275 HD
ATOM     26  H2  AT1 d          39.516   1.514   8.250  0.00  0.00     0.275 HD
ATOM     27  H3  AT1 d          39.004   2.265   6.878  0.00  0.00     0.275 HD
ENDBRANCH  22  24
BRANCH  22  28
ATOM     28  C2  AT1 d          37.883   2.965  10.009  0.00  0.00     0.204 C 
ATOM     29  O   AT1 d          36.806   3.563  10.314  0.00  0.00    -0.646 OA
ATOM     30  O1  AT1 d          38.460   2.102  10.711  0.00  0.00    -0.646 OA
ENDBRANCH  22  28
ENDBRANCH  19  22
ENDBRANCH   4  19
BRANCH   3  31
ATOM     31  O3  AT1 d          39.679   6.461   7.483  0.00  0.00    -0.319 OA
BRANCH  31  32
ATOM     32  C4  AT1 d          40.816   7.365   7.287  0.00  0.00     0.130 C 
ATOM     33  H7  AT1 d          40.548   8.151   6.566  0.00  0.00     0.096 H 
ATOM     34  H8  AT1 d          41.680   6.799   6.907  0.00  0.00     0.096 H 
BRANCH  32  35
ATOM     35  P   AT1 d          41.226   8.111   8.885  0.00  0.00     0.284 P 
ATOM     36  O4  AT1 d          40.402   9.332   9.083  0.00  0.00    -0.638 OA
ATOM     37  O5  AT1 d          40.986   7.006   9.876  0.00  0.00    -0.638 OA
ATOM     38  O6  AT1 d          42.761   8.418   8.837  0.00  0.00    -0.638 OA
ENDBRANCH  32  35
ENDBRANCH  31  32
ENDBRANCH   3  31
TORSDOF 11
ENDMDL
MODEL 10
REMARK VINA RESULT:      -4.6      2.470      4.671
REMARK  11 active torsions:
REMARK  status: ('A' for Active; 'I' for Inactive)
REMARK    1  A    between atoms: C1_4  and  N_1 
REMARK    2  A    between atoms: C_2  and  C1_4 
REMARK    3  A    between atoms: C6_13  and  C_2 
REMARK    4  A    between atoms: C1_4  and  C2_5 
REMARK    5  A    between atoms: O3_8  and  C4_11 
REMARK    6  A    between atoms: C5_12  and  O3_8 
REMARK    7  A    between atoms: C7_14  and  C3_10 
REMARK    8  A    between atoms: C3_10  and  C9_15 
REMARK    9  A    between atoms: C3_10  and  C10_16 
REMARK   10  A    between atoms: C3_10  and  C11_17 
REMARK   11  A    between atoms: C4_11  and  P_18 
ROOT
ATOM      1  O2  AT1 d          40.193   6.492   7.098  0.00  0.00    -0.214 OA
ATOM      2  N1  AT1 d          40.155   7.042   8.399  0.00  0.00    -0.102 NA
ATOM      3  C5  AT1 d          39.293   6.287   9.038  0.00  0.00     0.200 A 
ATOM      4  C6  AT1 d          38.738   5.239   8.235  0.00  0.00     0.032 A 
ATOM      5  C7  AT1 d          39.348   5.428   7.010  0.00  0.00     0.097 A 
ENDROOT
BRANCH   5   6
ATOM      6  C3  AT1 d          39.333   4.798   5.613  0.00  0.00     0.001 C 
BRANCH   6   7
ATOM      7  C9  AT1 d          37.871   4.821   5.108  0.00  0.00    -0.064 C 
ATOM      8  H9  AT1 d          37.205   4.444   5.897  0.00  0.00     0.028 H 
ATOM      9  H10 AT1 d          37.781   4.182   4.217  0.00  0.00     0.028 H 
ATOM     10  H11 AT1 d          37.588   5.853   4.851  0.00  0.00     0.028 H 
ENDBRANCH   6   7
BRANCH   6  11
ATOM     11  C10 AT1 d          40.199   5.612   4.656  0.00  0.00    -0.064 C 
ATOM     12  H12 AT1 d          40.011   6.685   4.814  0.00  0.00     0.028 H 
ATOM     13  H13 AT1 d          39.949   5.345   3.619  0.00  0.00     0.028 H 
ATOM     14  H14 AT1 d          41.260   5.393   4.846  0.00  0.00     0.028 H 
ENDBRANCH   6  11
BRANCH   6  15
ATOM     15  C11 AT1 d          39.806   3.351   5.593  0.00  0.00    -0.064 C 
ATOM     16  H15 AT1 d          39.057   2.713   6.083  0.00  0.00     0.028 H 
ATOM     17  H16 AT1 d          40.763   3.270   6.129  0.00  0.00     0.028 H 
ATOM     18  H17 AT1 d          39.940   3.023   4.551  0.00  0.00     0.028 H 
ENDBRANCH   6  15
ENDBRANCH   5   6
BRANCH   4  19
ATOM     19  C   AT1 d          37.731   4.268   8.776  0.00  0.00     0.002 C 
ATOM     20  H4  AT1 d          37.594   4.482   9.846  0.00  0.00     0.044 H 
ATOM     21  H5  AT1 d          36.782   4.433   8.245  0.00  0.00     0.044 H 
BRANCH  19  22
ATOM     22  C1  AT1 d          38.102   2.790   8.633  0.00  0.00     0.186 C 
ATOM     23  H6  AT1 d          39.110   2.731   8.196  0.00  0.00     0.101 H 
BRANCH  22  24
ATOM     24  N   AT1 d          37.123   2.047   7.711  0.00  0.00    -0.065 N 
ATOM     25  H1  AT1 d          37.506   2.001   6.780  0.00  0.00     0.275 HD
ATOM     26  H2  AT1 d          36.244   2.540   7.688  0.00  0.00     0.275 HD
ATOM     27  H3  AT1 d          36.976   1.113   8.060  0.00  0.00     0.275 HD
ENDBRANCH  22  24
BRANCH  22  28
ATOM     28  C2  AT1 d          38.111   2.062  10.035  0.00  0.00     0.204 C 
ATOM     29  O   AT1 d          39.243   1.760  10.522  0.00  0.00    -0.646 OA
ATOM     30  O1  AT1 d          37.003   1.835  10.575  0.00  0.00    -0.646 OA
ENDBRANCH  22  28
ENDBRANCH  19  22
ENDBRANCH   4  19
BRANCH   3  31
ATOM     31  O3  AT1 d          38.930   6.460  10.324  0.00  0.00    -0.319 OA
BRANCH  31  32
ATOM     32  C4  AT1 d          37.563   6.920  10.585  0.00  0.00     0.130 C 
ATOM     33  H7  AT1 d          37.344   6.846  11.661  0.00  0.00     0.096 H 
ATOM     34  H8  AT1 d          36.848   6.302  10.022  0.00  0.00     0.096 H 
BRANCH  32  35
ATOM     35  P   AT1 d          37.436   8.646  10.052  0.00  0.00     0.284 P 
ATOM     36  O4  AT1 d          37.439   8.702   8.566  0.00  0.00    -0.638 OA
ATOM     37  O5  AT1 d          36.178   9.140  10.711  0.00  0.00    -0.638 OA
ATOM     38  O6  AT1 d          38.660   9.385  10.688  0.00  0.00    -0.638 OA
ENDBRANCH  32  35
ENDBRANCH  31  32
ENDBRANCH   3  31
TORSDOF 11
ENDMDL
