MODEL 1
REMARK VINA RESULT:      -9.4      0.000      0.000
REMARK  6 active torsions:
REMARK  status: ('A' for Active; 'I' for Inactive)
REMARK    1  A    between atoms: C2_2  and  O5_5 
REMARK    2  A    between atoms: O5_5  and  C6_6 
REMARK    3  A    between atoms: C11_9  and  N16_12 
REMARK    4  A    between atoms: N16_12  and  C18_13 
REMARK    5  A    between atoms: C23_17  and  C26_19 
REMARK    6  A    between atoms: C29_21  and  C36_25 
REMARK       I    between atoms: C36_25  and  N38_27 
ROOT
ATOM      1  C18 STJ d          20.918  44.339  54.664  0.00  0.00     0.131 A 
ATOM      2  N19 STJ d          20.967  44.378  56.025  0.00  0.00    -0.224 NA
ATOM      3  C20 STJ d          22.146  44.483  56.686  0.00  0.00     0.089 A 
ATOM      4  N22 STJ d          23.308  44.545  55.992  0.00  0.00    -0.241 NA
ATOM      5  C23 STJ d          23.321  44.507  54.634  0.00  0.00     0.072 A 
ATOM      6  C24 STJ d          22.105  44.397  53.936  0.00  0.00    -0.010 A 
ATOM      7  H6  STJ d          22.160  44.517  57.770  0.00  0.00     0.146 H 
ATOM      8  H7  STJ d          22.092  44.359  52.854  0.00  0.00     0.093 H 
ENDROOT
BRANCH   1   9
ATOM      9  N16 STJ d          19.757  44.237  53.965  0.00  0.00    -0.341 N 
ATOM     10  H5  STJ d          19.055  44.962  54.171  0.00  0.00     0.167 HD
BRANCH   9  11
ATOM     11  C11 STJ d          19.390  43.324  53.038  0.00  0.00     0.033 A 
ATOM     12  C9  STJ d          20.224  42.836  52.028  0.00  0.00    -0.055 A 
ATOM     13  C7  STJ d          19.752  41.900  51.103  0.00  0.00    -0.048 A 
ATOM     14  H2  STJ d          21.248  43.188  51.961  0.00  0.00     0.087 H 
ATOM     15  C6  STJ d          18.416  41.449  51.176  0.00  0.00     0.078 A 
ATOM     16  H1  STJ d          20.412  41.521  50.331  0.00  0.00     0.087 H 
ATOM     17  C14 STJ d          17.575  41.946  52.167  0.00  0.00    -0.048 A 
ATOM     18  C12 STJ d          18.054  42.880  53.094  0.00  0.00    -0.055 A 
ATOM     19  H4  STJ d          16.545  41.609  52.222  0.00  0.00     0.087 H 
ATOM     20  H3  STJ d          17.391  43.265  53.861  0.00  0.00     0.087 H 
BRANCH  15  21
ATOM     21  O5  STJ d          17.912  40.528  50.253  0.00  0.00    -0.255 OA
BRANCH  21  22
ATOM     22  C2  STJ d          17.668  39.193  50.656  0.00  0.00     0.530 C 
ATOM     23  F1  STJ d          17.887  38.421  49.563  0.00  0.00    -0.144 F 
ATOM     24  F3  STJ d          16.384  39.079  51.097  0.00  0.00    -0.144 F 
ATOM     25  F4  STJ d          18.532  38.859  51.650  0.00  0.00    -0.144 F 
ENDBRANCH  21  22
ENDBRANCH  15  21
ENDBRANCH   9  11
ENDBRANCH   1   9
BRANCH   5  26
ATOM     26  C26 STJ d          24.619  44.568  53.925  0.00  0.00    -0.006 A 
ATOM     27  C27 STJ d          24.607  45.012  52.599  0.00  0.00    -0.056 A 
ATOM     28  C29 STJ d          25.780  45.113  51.852  0.00  0.00     0.032 A 
ATOM     29  H8  STJ d          23.663  45.283  52.141  0.00  0.00     0.086 H 
ATOM     30  C30 STJ d          27.006  44.750  52.441  0.00  0.00    -0.068 A 
ATOM     31  C32 STJ d          27.032  44.300  53.774  0.00  0.00    -0.081 A 
ATOM     32  H9  STJ d          27.926  44.817  51.870  0.00  0.00     0.085 H 
ATOM     33  C34 STJ d          25.840  44.208  54.520  0.00  0.00    -0.071 A 
ATOM     34  H10 STJ d          27.975  44.023  54.231  0.00  0.00     0.083 H 
ATOM     35  H11 STJ d          25.864  43.862  55.547  0.00  0.00     0.084 H 
BRANCH  28  36
ATOM     36  C36 STJ d          25.603  45.611  50.431  0.00  0.00     0.249 C 
ATOM     37  O37 STJ d          25.996  44.881  49.536  0.00  0.00    -0.268 OA
ATOM     38  N38 STJ d          25.077  46.826  50.154  0.00  0.00    -0.366 N 
ATOM     39  H12 STJ d          24.974  47.122  49.205  0.00  0.00     0.159 HD
ATOM     40  H13 STJ d          24.791  47.428  50.899  0.00  0.00     0.159 HD
ENDBRANCH  28  36
ENDBRANCH   5  26
TORSDOF 6
ENDMDL
MODEL 2
REMARK VINA RESULT:      -8.6      1.434      1.465
REMARK  6 active torsions:
REMARK  status: ('A' for Active; 'I' for Inactive)
REMARK    1  A    between atoms: C2_2  and  O5_5 
REMARK    2  A    between atoms: O5_5  and  C6_6 
REMARK    3  A    between atoms: C11_9  and  N16_12 
REMARK    4  A    between atoms: N16_12  and  C18_13 
REMARK    5  A    between atoms: C23_17  and  C26_19 
REMARK    6  A    between atoms: C29_21  and  C36_25 
REMARK       I    between atoms: C36_25  and  N38_27 
ROOT
ATOM      1  C18 STJ d          21.015  44.597  55.742  0.00  0.00     0.131 A 
ATOM      2  N19 STJ d          21.259  44.277  57.044  0.00  0.00    -0.224 NA
ATOM      3  C20 STJ d          22.455  44.549  57.624  0.00  0.00     0.089 A 
ATOM      4  N22 STJ d          23.437  45.143  56.904  0.00  0.00    -0.241 NA
ATOM      5  C23 STJ d          23.251  45.482  55.602  0.00  0.00     0.072 A 
ATOM      6  C24 STJ d          22.017  45.205  54.988  0.00  0.00    -0.010 A 
ATOM      7  H6  STJ d          22.625  44.289  58.662  0.00  0.00     0.146 H 
ATOM      8  H7  STJ d          21.848  45.461  53.949  0.00  0.00     0.093 H 
ENDROOT
BRANCH   1   9
ATOM      9  N16 STJ d          19.830  44.345  55.126  0.00  0.00    -0.341 N 
ATOM     10  H5  STJ d          19.011  44.812  55.540  0.00  0.00     0.167 HD
BRANCH   9  11
ATOM     11  C11 STJ d          19.571  43.572  54.048  0.00  0.00     0.033 A 
ATOM     12  C9  STJ d          20.527  43.161  53.115  0.00  0.00    -0.055 A 
ATOM     13  C7  STJ d          20.162  42.371  52.020  0.00  0.00    -0.048 A 
ATOM     14  H2  STJ d          21.562  43.459  53.241  0.00  0.00     0.087 H 
ATOM     15  C6  STJ d          18.813  41.992  51.842  0.00  0.00     0.078 A 
ATOM     16  H1  STJ d          20.915  42.050  51.310  0.00  0.00     0.087 H 
ATOM     17  C14 STJ d          17.853  42.415  52.757  0.00  0.00    -0.048 A 
ATOM     18  C12 STJ d          18.225  43.203  53.853  0.00  0.00    -0.055 A 
ATOM     19  H4  STJ d          16.815  42.135  52.619  0.00  0.00     0.087 H 
ATOM     20  H3  STJ d          17.470  43.531  54.560  0.00  0.00     0.087 H 
BRANCH  15  21
ATOM     21  O5  STJ d          18.417  41.219  50.747  0.00  0.00    -0.255 OA
BRANCH  21  22
ATOM     22  C2  STJ d          18.067  39.861  50.937  0.00  0.00     0.530 C 
ATOM     23  F1  STJ d          18.525  39.195  49.850  0.00  0.00    -0.144 F 
ATOM     24  F3  STJ d          16.714  39.754  51.054  0.00  0.00    -0.144 F 
ATOM     25  F4  STJ d          18.668  39.396  52.064  0.00  0.00    -0.144 F 
ENDBRANCH  21  22
ENDBRANCH  15  21
ENDBRANCH   9  11
ENDBRANCH   1   9
BRANCH   5  26
ATOM     26  C26 STJ d          24.361  46.121  54.859  0.00  0.00    -0.006 A 
ATOM     27  C27 STJ d          24.470  45.833  53.494  0.00  0.00    -0.056 A 
ATOM     28  C29 STJ d          25.476  46.395  52.708  0.00  0.00     0.032 A 
ATOM     29  H8  STJ d          23.756  45.158  53.038  0.00  0.00     0.086 H 
ATOM     30  C30 STJ d          26.411  47.264  53.302  0.00  0.00    -0.068 A 
ATOM     31  C32 STJ d          26.313  47.560  54.674  0.00  0.00    -0.081 A 
ATOM     32  H9  STJ d          27.202  47.703  52.705  0.00  0.00     0.085 H 
ATOM     33  C34 STJ d          25.288  46.990  55.457  0.00  0.00    -0.071 A 
ATOM     34  H10 STJ d          27.030  48.231  55.133  0.00  0.00     0.083 H 
ATOM     35  H11 STJ d          25.216  47.222  56.513  0.00  0.00     0.084 H 
BRANCH  28  36
ATOM     36  C36 STJ d          25.460  45.987  51.248  0.00  0.00     0.249 C 
ATOM     37  O37 STJ d          25.860  44.865  50.983  0.00  0.00    -0.268 OA
ATOM     38  N38 STJ d          25.068  46.833  50.268  0.00  0.00    -0.366 N 
ATOM     39  H12 STJ d          25.070  46.530  49.316  0.00  0.00     0.159 HD
ATOM     40  H13 STJ d          24.776  47.762  50.497  0.00  0.00     0.159 HD
ENDBRANCH  28  36
ENDBRANCH   5  26
TORSDOF 6
ENDMDL
MODEL 3
REMARK VINA RESULT:      -8.5      2.887      4.714
REMARK  6 active torsions:
REMARK  status: ('A' for Active; 'I' for Inactive)
REMARK    1  A    between atoms: C2_2  and  O5_5 
REMARK    2  A    between atoms: O5_5  and  C6_6 
REMARK    3  A    between atoms: C11_9  and  N16_12 
REMARK    4  A    between atoms: N16_12  and  C18_13 
REMARK    5  A    between atoms: C23_17  and  C26_19 
REMARK    6  A    between atoms: C29_21  and  C36_25 
REMARK       I    between atoms: C36_25  and  N38_27 
ROOT
ATOM      1  C18 STJ d          20.908  44.071  53.642  0.00  0.00     0.131 A 
ATOM      2  N19 STJ d          22.138  43.713  53.180  0.00  0.00    -0.224 NA
ATOM      3  C20 STJ d          23.250  43.872  53.939  0.00  0.00     0.089 A 
ATOM      4  N22 STJ d          23.151  44.402  55.182  0.00  0.00    -0.241 NA
ATOM      5  C23 STJ d          21.952  44.780  55.694  0.00  0.00     0.072 A 
ATOM      6  C24 STJ d          20.791  44.622  54.917  0.00  0.00    -0.010 A 
ATOM      7  H6  STJ d          24.218  43.575  53.552  0.00  0.00     0.146 H 
ATOM      8  H7  STJ d          19.823  44.923  55.302  0.00  0.00     0.093 H 
ENDROOT
BRANCH   1   9
ATOM      9  N16 STJ d          19.769  43.926  52.914  0.00  0.00    -0.341 N 
ATOM     10  H5  STJ d          19.266  44.800  52.705  0.00  0.00     0.167 HD
BRANCH   9  11
ATOM     11  C11 STJ d          19.202  42.801  52.424  0.00  0.00     0.033 A 
ATOM     12  C9  STJ d          19.859  41.862  51.624  0.00  0.00    -0.055 A 
ATOM     13  C7  STJ d          19.185  40.732  51.151  0.00  0.00    -0.048 A 
ATOM     14  H2  STJ d          20.902  42.011  51.368  0.00  0.00     0.087 H 
ATOM     15  C6  STJ d          17.823  40.538  51.469  0.00  0.00     0.078 A 
ATOM     16  H1  STJ d          19.709  40.005  50.540  0.00  0.00     0.087 H 
ATOM     17  C14 STJ d          17.157  41.480  52.248  0.00  0.00    -0.048 A 
ATOM     18  C12 STJ d          17.838  42.608  52.723  0.00  0.00    -0.055 A 
ATOM     19  H4  STJ d          16.109  41.341  52.487  0.00  0.00     0.087 H 
ATOM     20  H3  STJ d          17.312  43.339  53.327  0.00  0.00     0.087 H 
BRANCH  15  21
ATOM     21  O5  STJ d          17.119  39.428  50.993  0.00  0.00    -0.255 OA
BRANCH  21  22
ATOM     22  C2  STJ d          17.036  39.194  49.600  0.00  0.00     0.530 C 
ATOM     23  F1  STJ d          17.110  40.410  49.006  0.00  0.00    -0.144 F 
ATOM     24  F3  STJ d          15.858  38.571  49.315  0.00  0.00    -0.144 F 
ATOM     25  F4  STJ d          18.079  38.414  49.212  0.00  0.00    -0.144 F 
ENDBRANCH  21  22
ENDBRANCH  15  21
ENDBRANCH   9  11
ENDBRANCH   1   9
BRANCH   5  26
ATOM     26  C26 STJ d          21.902  45.363  57.054  0.00  0.00    -0.006 A 
ATOM     27  C27 STJ d          22.687  46.495  57.297  0.00  0.00    -0.056 A 
ATOM     28  C29 STJ d          22.698  47.121  58.544  0.00  0.00     0.032 A 
ATOM     29  H8  STJ d          23.301  46.894  56.499  0.00  0.00     0.086 H 
ATOM     30  C30 STJ d          21.909  46.598  59.586  0.00  0.00    -0.068 A 
ATOM     31  C32 STJ d          21.116  45.458  59.354  0.00  0.00    -0.081 A 
ATOM     32  H9  STJ d          21.912  47.070  60.562  0.00  0.00     0.085 H 
ATOM     33  C34 STJ d          21.109  44.838  58.088  0.00  0.00    -0.071 A 
ATOM     34  H10 STJ d          20.506  45.055  60.154  0.00  0.00     0.083 H 
ATOM     35  H11 STJ d          20.496  43.961  57.914  0.00  0.00     0.084 H 
BRANCH  28  36
ATOM     36  C36 STJ d          23.598  48.337  58.650  0.00  0.00     0.249 C 
ATOM     37  O37 STJ d          24.758  48.198  58.298  0.00  0.00    -0.268 OA
ATOM     38  N38 STJ d          23.162  49.514  59.153  0.00  0.00    -0.366 N 
ATOM     39  H12 STJ d          23.783  50.295  59.208  0.00  0.00     0.159 HD
ATOM     40  H13 STJ d          22.217  49.603  59.470  0.00  0.00     0.159 HD
ENDBRANCH  28  36
ENDBRANCH   5  26
TORSDOF 6
ENDMDL
MODEL 4
REMARK VINA RESULT:      -7.9      1.753      1.948
REMARK  6 active torsions:
REMARK  status: ('A' for Active; 'I' for Inactive)
REMARK    1  A    between atoms: C2_2  and  O5_5 
REMARK    2  A    between atoms: O5_5  and  C6_6 
REMARK    3  A    between atoms: C11_9  and  N16_12 
REMARK    4  A    between atoms: N16_12  and  C18_13 
REMARK    5  A    between atoms: C23_17  and  C26_19 
REMARK    6  A    between atoms: C29_21  and  C36_25 
REMARK       I    between atoms: C36_25  and  N38_27 
ROOT
ATOM      1  C18 STJ d          21.158  44.401  55.135  0.00  0.00     0.131 A 
ATOM      2  N19 STJ d          20.957  45.418  56.019  0.00  0.00    -0.224 NA
ATOM      3  C20 STJ d          21.873  46.405  56.178  0.00  0.00     0.089 A 
ATOM      4  N22 STJ d          23.019  46.389  55.455  0.00  0.00    -0.241 NA
ATOM      5  C23 STJ d          23.275  45.399  54.562  0.00  0.00     0.072 A 
ATOM      6  C24 STJ d          22.334  44.368  54.387  0.00  0.00    -0.010 A 
ATOM      7  H6  STJ d          21.690  47.207  56.884  0.00  0.00     0.146 H 
ATOM      8  H7  STJ d          22.519  43.564  53.684  0.00  0.00     0.093 H 
ENDROOT
BRANCH   1   9
ATOM      9  N16 STJ d          20.264  43.396  54.944  0.00  0.00    -0.341 N 
ATOM     10  H5  STJ d          19.923  42.941  55.803  0.00  0.00     0.167 HD
BRANCH   9  11
ATOM     11  C11 STJ d          19.756  42.907  53.790  0.00  0.00     0.033 A 
ATOM     12  C9  STJ d          20.518  42.540  52.678  0.00  0.00    -0.055 A 
ATOM     13  C7  STJ d          19.903  42.055  51.520  0.00  0.00    -0.048 A 
ATOM     14  H2  STJ d          21.598  42.633  52.713  0.00  0.00     0.087 H 
ATOM     15  C6  STJ d          18.496  41.945  51.462  0.00  0.00     0.078 A 
ATOM     16  H1  STJ d          20.505  41.763  50.668  0.00  0.00     0.087 H 
ATOM     17  C14 STJ d          17.730  42.328  52.560  0.00  0.00    -0.048 A 
ATOM     18  C12 STJ d          18.352  42.809  53.718  0.00  0.00    -0.055 A 
ATOM     19  H4  STJ d          16.649  42.255  52.517  0.00  0.00     0.087 H 
ATOM     20  H3  STJ d          17.748  43.109  54.568  0.00  0.00     0.087 H 
BRANCH  15  21
ATOM     21  O5  STJ d          17.852  41.482  50.311  0.00  0.00    -0.255 OA
BRANCH  21  22
ATOM     22  C2  STJ d          17.645  40.093  50.134  0.00  0.00     0.530 C 
ATOM     23  F1  STJ d          16.984  39.664  51.237  0.00  0.00    -0.144 F 
ATOM     24  F3  STJ d          18.848  39.468  50.000  0.00  0.00    -0.144 F 
ATOM     25  F4  STJ d          16.890  39.889  49.023  0.00  0.00    -0.144 F 
ENDBRANCH  21  22
ENDBRANCH  15  21
ENDBRANCH   9  11
ENDBRANCH   1   9
BRANCH   5  26
ATOM     26  C26 STJ d          24.547  45.423  53.804  0.00  0.00    -0.006 A 
ATOM     27  C27 STJ d          25.046  46.674  53.427  0.00  0.00    -0.056 A 
ATOM     28  C29 STJ d          26.242  46.799  52.720  0.00  0.00     0.032 A 
ATOM     29  H8  STJ d          24.491  47.566  53.690  0.00  0.00     0.086 H 
ATOM     30  C30 STJ d          26.960  45.640  52.368  0.00  0.00    -0.068 A 
ATOM     31  C32 STJ d          26.467  44.376  52.741  0.00  0.00    -0.081 A 
ATOM     32  H9  STJ d          27.888  45.722  51.813  0.00  0.00     0.085 H 
ATOM     33  C34 STJ d          25.260  44.263  53.460  0.00  0.00    -0.071 A 
ATOM     34  H10 STJ d          27.019  43.483  52.473  0.00  0.00     0.083 H 
ATOM     35  H11 STJ d          24.885  43.287  53.745  0.00  0.00     0.084 H 
BRANCH  28  36
ATOM     36  C36 STJ d          26.651  48.220  52.386  0.00  0.00     0.249 C 
ATOM     37  O37 STJ d          26.941  48.947  53.322  0.00  0.00    -0.268 OA
ATOM     38  N38 STJ d          26.654  48.690  51.118  0.00  0.00    -0.366 N 
ATOM     39  H12 STJ d          26.930  49.633  50.934  0.00  0.00     0.159 HD
ATOM     40  H13 STJ d          26.380  48.093  50.363  0.00  0.00     0.159 HD
ENDBRANCH  28  36
ENDBRANCH   5  26
TORSDOF 6
ENDMDL
MODEL 5
REMARK VINA RESULT:      -7.7      2.270      2.760
REMARK  6 active torsions:
REMARK  status: ('A' for Active; 'I' for Inactive)
REMARK    1  A    between atoms: C2_2  and  O5_5 
REMARK    2  A    between atoms: O5_5  and  C6_6 
REMARK    3  A    between atoms: C11_9  and  N16_12 
REMARK    4  A    between atoms: N16_12  and  C18_13 
REMARK    5  A    between atoms: C23_17  and  C26_19 
REMARK    6  A    between atoms: C29_21  and  C36_25 
REMARK       I    between atoms: C36_25  and  N38_27 
ROOT
ATOM      1  C18 STJ d          22.775  45.001  56.238  0.00  0.00     0.131 A 
ATOM      2  N19 STJ d          23.471  44.607  57.340  0.00  0.00    -0.224 NA
ATOM      3  C20 STJ d          24.742  45.027  57.559  0.00  0.00     0.089 A 
ATOM      4  N22 STJ d          25.346  45.850  56.668  0.00  0.00    -0.241 NA
ATOM      5  C23 STJ d          24.702  46.273  55.549  0.00  0.00     0.072 A 
ATOM      6  C24 STJ d          23.384  45.844  55.310  0.00  0.00    -0.010 A 
ATOM      7  H6  STJ d          25.276  44.704  58.446  0.00  0.00     0.146 H 
ATOM      8  H7  STJ d          22.852  46.163  54.421  0.00  0.00     0.093 H 
ENDROOT
BRANCH   1   9
ATOM      9  N16 STJ d          21.500  44.605  55.985  0.00  0.00    -0.341 N 
ATOM     10  H5  STJ d          20.837  44.733  56.763  0.00  0.00     0.167 HD
BRANCH   9  11
ATOM     11  C11 STJ d          20.974  44.069  54.860  0.00  0.00     0.033 A 
ATOM     12  C9  STJ d          21.724  43.552  53.800  0.00  0.00    -0.055 A 
ATOM     13  C7  STJ d          21.092  43.029  52.668  0.00  0.00    -0.048 A 
ATOM     14  H2  STJ d          22.807  43.557  53.856  0.00  0.00     0.087 H 
ATOM     15  C6  STJ d          19.682  43.032  52.583  0.00  0.00     0.078 A 
ATOM     16  H1  STJ d          21.684  42.621  51.857  0.00  0.00     0.087 H 
ATOM     17  C14 STJ d          18.931  43.564  53.626  0.00  0.00    -0.048 A 
ATOM     18  C12 STJ d          19.569  44.083  54.760  0.00  0.00    -0.055 A 
ATOM     19  H4  STJ d          17.849  43.577  53.561  0.00  0.00     0.087 H 
ATOM     20  H3  STJ d          18.976  44.499  55.567  0.00  0.00     0.087 H 
BRANCH  15  21
ATOM     21  O5  STJ d          19.024  42.533  51.455  0.00  0.00    -0.255 OA
BRANCH  21  22
ATOM     22  C2  STJ d          18.965  41.135  51.239  0.00  0.00     0.530 C 
ATOM     23  F1  STJ d          20.071  40.814  50.523  0.00  0.00    -0.144 F 
ATOM     24  F3  STJ d          17.825  40.830  50.558  0.00  0.00    -0.144 F 
ATOM     25  F4  STJ d          18.976  40.494  52.437  0.00  0.00    -0.144 F 
ENDBRANCH  21  22
ENDBRANCH  15  21
ENDBRANCH   9  11
ENDBRANCH   1   9
BRANCH   5  26
ATOM     26  C26 STJ d          25.411  47.163  54.603  0.00  0.00    -0.006 A 
ATOM     27  C27 STJ d          25.222  46.931  53.237  0.00  0.00    -0.056 A 
ATOM     28  C29 STJ d          25.839  47.723  52.269  0.00  0.00     0.032 A 
ATOM     29  H8  STJ d          24.581  46.115  52.923  0.00  0.00     0.086 H 
ATOM     30  C30 STJ d          26.682  48.776  52.675  0.00  0.00    -0.068 A 
ATOM     31  C32 STJ d          26.882  49.019  54.046  0.00  0.00    -0.081 A 
ATOM     32  H9  STJ d          27.174  49.396  51.934  0.00  0.00     0.085 H 
ATOM     33  C34 STJ d          26.247  48.215  55.014  0.00  0.00    -0.071 A 
ATOM     34  H10 STJ d          27.528  49.831  54.361  0.00  0.00     0.083 H 
ATOM     35  H11 STJ d          26.403  48.406  56.070  0.00  0.00     0.084 H 
BRANCH  28  36
ATOM     36  C36 STJ d          25.535  47.346  50.833  0.00  0.00     0.249 C 
ATOM     37  O37 STJ d          25.967  48.086  49.963  0.00  0.00    -0.268 OA
ATOM     38  N38 STJ d          24.780  46.270  50.515  0.00  0.00    -0.366 N 
ATOM     39  H12 STJ d          24.599  46.051  49.556  0.00  0.00     0.159 HD
ATOM     40  H13 STJ d          24.403  45.693  51.239  0.00  0.00     0.159 HD
ENDBRANCH  28  36
ENDBRANCH   5  26
TORSDOF 6
ENDMDL
MODEL 6
REMARK VINA RESULT:      -7.7      2.844      5.330
REMARK  6 active torsions:
REMARK  status: ('A' for Active; 'I' for Inactive)
REMARK    1  A    between atoms: C2_2  and  O5_5 
REMARK    2  A    between atoms: O5_5  and  C6_6 
REMARK    3  A    between atoms: C11_9  and  N16_12 
REMARK    4  A    between atoms: N16_12  and  C18_13 
REMARK    5  A    between atoms: C23_17  and  C26_19 
REMARK    6  A    between atoms: C29_21  and  C36_25 
REMARK       I    between atoms: C36_25  and  N38_27 
ROOT
ATOM      1  C18 STJ d          22.364  43.995  53.542  0.00  0.00     0.131 A 
ATOM      2  N19 STJ d          23.661  43.604  53.396  0.00  0.00    -0.224 NA
ATOM      3  C20 STJ d          24.527  43.633  54.438  0.00  0.00     0.089 A 
ATOM      4  N22 STJ d          24.111  44.062  55.654  0.00  0.00    -0.241 NA
ATOM      5  C23 STJ d          22.831  44.466  55.858  0.00  0.00     0.072 A 
ATOM      6  C24 STJ d          21.922  44.443  54.786  0.00  0.00    -0.010 A 
ATOM      7  H6  STJ d          25.554  43.312  54.299  0.00  0.00     0.146 H 
ATOM      8  H7  STJ d          20.897  44.767  54.923  0.00  0.00     0.093 H 
ENDROOT
BRANCH   1   9
ATOM      9  N16 STJ d          21.464  43.978  52.524  0.00  0.00    -0.341 N 
ATOM     10  H5  STJ d          21.620  44.681  51.787  0.00  0.00     0.167 HD
BRANCH   9  11
ATOM     11  C11 STJ d          20.394  43.173  52.337  0.00  0.00     0.033 A 
ATOM     12  C9  STJ d          20.146  42.437  51.175  0.00  0.00    -0.055 A 
ATOM     13  C7  STJ d          19.003  41.640  51.066  0.00  0.00    -0.048 A 
ATOM     14  H2  STJ d          20.847  42.486  50.350  0.00  0.00     0.087 H 
ATOM     15  C6  STJ d          18.078  41.584  52.133  0.00  0.00     0.078 A 
ATOM     16  H1  STJ d          18.827  41.065  50.164  0.00  0.00     0.087 H 
ATOM     17  C14 STJ d          18.309  42.331  53.284  0.00  0.00    -0.048 A 
ATOM     18  C12 STJ d          19.458  43.124  53.389  0.00  0.00    -0.055 A 
ATOM     19  H4  STJ d          17.598  42.298  54.102  0.00  0.00     0.087 H 
ATOM     20  H3  STJ d          19.629  43.706  54.289  0.00  0.00     0.087 H 
BRANCH  15  21
ATOM     21  O5  STJ d          16.917  40.810  52.044  0.00  0.00    -0.255 OA
BRANCH  21  22
ATOM     22  C2  STJ d          17.014  39.433  51.735  0.00  0.00     0.530 C 
ATOM     23  F1  STJ d          18.160  38.994  52.310  0.00  0.00    -0.144 F 
ATOM     24  F3  STJ d          17.042  39.272  50.382  0.00  0.00    -0.144 F 
ATOM     25  F4  STJ d          15.943  38.779  52.257  0.00  0.00    -0.144 F 
ENDBRANCH  21  22
ENDBRANCH  15  21
ENDBRANCH   9  11
ENDBRANCH   1   9
BRANCH   5  26
ATOM     26  C26 STJ d          22.430  44.936  57.204  0.00  0.00    -0.006 A 
ATOM     27  C27 STJ d          21.307  44.338  57.785  0.00  0.00    -0.056 A 
ATOM     28  C29 STJ d          20.858  44.707  59.053  0.00  0.00     0.032 A 
ATOM     29  H8  STJ d          20.773  43.571  57.237  0.00  0.00     0.086 H 
ATOM     30  C30 STJ d          21.544  45.711  59.763  0.00  0.00    -0.068 A 
ATOM     31  C32 STJ d          22.675  46.321  59.188  0.00  0.00    -0.081 A 
ATOM     32  H9  STJ d          21.203  46.012  60.747  0.00  0.00     0.085 H 
ATOM     33  C34 STJ d          23.121  45.935  57.908  0.00  0.00    -0.071 A 
ATOM     34  H10 STJ d          23.206  47.092  59.734  0.00  0.00     0.083 H 
ATOM     35  H11 STJ d          23.993  46.408  57.470  0.00  0.00     0.084 H 
BRANCH  28  36
ATOM     36  C36 STJ d          19.630  43.967  59.546  0.00  0.00     0.249 C 
ATOM     37  O37 STJ d          19.780  42.800  59.869  0.00  0.00    -0.268 OA
ATOM     38  N38 STJ d          18.408  44.546  59.587  0.00  0.00    -0.366 N 
ATOM     39  H12 STJ d          17.620  44.028  59.918  0.00  0.00     0.159 HD
ATOM     40  H13 STJ d          18.294  45.493  59.286  0.00  0.00     0.159 HD
ENDBRANCH  28  36
ENDBRANCH   5  26
TORSDOF 6
ENDMDL
