MODEL 1
REMARK VINA RESULT:      -4.7      0.000      0.000
REMARK  8 active torsions:
REMARK  status: ('A' for Active; 'I' for Inactive)
REMARK    1  A    between atoms: C5'_1  and  C4'_2 
REMARK    2  A    between atoms: C4'_2  and  O2'_3 
REMARK    3  A    between atoms: O2'_3  and  C3'_4 
REMARK    4  A    between atoms: C3'_4  and  C2'_6 
REMARK    5  A    between atoms: C2'_6  and  C1'_7 
REMARK    6  A    between atoms: C1'_7  and  C1_8 
REMARK    7  A    between atoms: C4_12  and  O4_13 
REMARK    8  A    between atoms: C3_14  and  O3_15 
ROOT
ATOM      1  C1' MOL d           6.713 -16.457 116.723  0.00  0.00    -0.067 C 
ATOM      2  H7  MOL d           6.614 -15.496 117.226  0.00  0.00     0.085 H 
ENDROOT
BRANCH   1   3
ATOM      3  C2' MOL d           6.981 -17.776 117.446  0.00  0.00    -0.010 C 
ATOM      4  H6  MOL d           6.765 -18.763 117.038  0.00  0.00     0.092 H 
BRANCH   3   5
ATOM      5  C3' MOL d           7.595 -17.519 118.823  0.00  0.00     0.282 C 
ATOM      6  O1' MOL d           7.395 -16.460 119.419  0.00  0.00    -0.260 OA
BRANCH   5   7
ATOM      7  O2' MOL d           8.355 -18.497 119.384  0.00  0.00    -0.319 OA
BRANCH   7   8
ATOM      8  C4' MOL d           8.612 -19.557 118.457  0.00  0.00     0.026 C 
ATOM      9  H4  MOL d           7.714 -19.750 117.852  0.00  0.00     0.074 H 
ATOM     10  H5  MOL d           9.447 -19.281 117.796  0.00  0.00     0.074 H 
BRANCH   8  11
ATOM     11  C5' MOL d           8.976 -20.810 119.261  0.00  0.00    -0.056 C 
ATOM     12  H1  MOL d           9.673 -20.537 120.068  0.00  0.00     0.030 H 
ATOM     13  H2  MOL d           9.454 -21.545 118.597  0.00  0.00     0.030 H 
ATOM     14  H3  MOL d           8.064 -21.245 119.694  0.00  0.00     0.030 H 
ENDBRANCH   8  11
ENDBRANCH   7   8
ENDBRANCH   5   7
ENDBRANCH   3   5
ENDBRANCH   1   3
BRANCH   1  15
ATOM     15  C1  MOL d           6.602 -16.647 115.212  0.00  0.00    -0.033 A 
ATOM     16  C2  MOL d           6.374 -17.899 114.650  0.00  0.00    -0.038 A 
ATOM     17  C3  MOL d           6.196 -18.022 113.275  0.00  0.00     0.099 A 
ATOM     18  H8  MOL d           6.335 -18.778 115.284  0.00  0.00     0.089 H 
ATOM     19  C4  MOL d           6.252 -16.895 112.463  0.00  0.00     0.098 A 
ATOM     20  C5  MOL d           6.488 -15.644 113.022  0.00  0.00    -0.047 A 
ATOM     21  C6  MOL d           6.663 -15.522 114.398  0.00  0.00    -0.070 A 
ATOM     22  H10 MOL d           6.534 -14.765 112.389  0.00  0.00     0.087 H 
ATOM     23  H9  MOL d           6.846 -14.547 114.835  0.00  0.00     0.084 H 
BRANCH  17  24
ATOM     24  O3  MOL d           5.946 -19.234 112.710  0.00  0.00    -0.358 OA
ATOM     25  H12 MOL d           5.396 -19.745 113.292  0.00  0.00     0.217 HD
ENDBRANCH  17  24
BRANCH  19  26
ATOM     26  O4  MOL d           6.081 -17.016 111.120  0.00  0.00    -0.358 OA
ATOM     27  H11 MOL d           6.782 -16.560 110.670  0.00  0.00     0.217 HD
ENDBRANCH  19  26
ENDBRANCH   1  15
TORSDOF 8
ENDMDL
MODEL 2
REMARK VINA RESULT:      -4.7      1.369      1.733
REMARK  8 active torsions:
REMARK  status: ('A' for Active; 'I' for Inactive)
REMARK    1  A    between atoms: C5'_1  and  C4'_2 
REMARK    2  A    between atoms: C4'_2  and  O2'_3 
REMARK    3  A    between atoms: O2'_3  and  C3'_4 
REMARK    4  A    between atoms: C3'_4  and  C2'_6 
REMARK    5  A    between atoms: C2'_6  and  C1'_7 
REMARK    6  A    between atoms: C1'_7  and  C1_8 
REMARK    7  A    between atoms: C4_12  and  O4_13 
REMARK    8  A    between atoms: C3_14  and  O3_15 
ROOT
ATOM      1  C1' MOL d           6.818 -16.543 116.723  0.00  0.00    -0.067 C 
ATOM      2  H7  MOL d           6.817 -15.582 117.235  0.00  0.00     0.085 H 
ENDROOT
BRANCH   1   3
ATOM      3  C2' MOL d           6.955 -17.890 117.431  0.00  0.00    -0.010 C 
ATOM      4  H6  MOL d           6.168 -18.640 117.495  0.00  0.00     0.092 H 
BRANCH   3   5
ATOM      5  C3' MOL d           8.351 -18.037 118.039  0.00  0.00     0.282 C 
ATOM      6  O1' MOL d           8.499 -18.391 119.208  0.00  0.00    -0.260 OA
BRANCH   5   7
ATOM      7  O2' MOL d           9.429 -17.784 117.249  0.00  0.00    -0.319 OA
BRANCH   7   8
ATOM      8  C4' MOL d           9.662 -18.851 116.323  0.00  0.00     0.026 C 
ATOM      9  H4  MOL d          10.450 -19.514 116.708  0.00  0.00     0.074 H 
ATOM     10  H5  MOL d           8.737 -19.427 116.176  0.00  0.00     0.074 H 
BRANCH   8  11
ATOM     11  C5' MOL d          10.107 -18.232 114.993  0.00  0.00    -0.056 C 
ATOM     12  H1  MOL d           9.545 -17.304 114.815  0.00  0.00     0.030 H 
ATOM     13  H2  MOL d           9.911 -18.942 114.176  0.00  0.00     0.030 H 
ATOM     14  H3  MOL d          11.183 -18.008 115.035  0.00  0.00     0.030 H 
ENDBRANCH   8  11
ENDBRANCH   7   8
ENDBRANCH   5   7
ENDBRANCH   3   5
ENDBRANCH   1   3
BRANCH   1  15
ATOM     15  C1  MOL d           6.684 -16.705 115.210  0.00  0.00    -0.033 A 
ATOM     16  C2  MOL d           6.410 -17.940 114.632  0.00  0.00    -0.038 A 
ATOM     17  C3  MOL d           6.212 -18.035 113.257  0.00  0.00     0.099 A 
ATOM     18  H8  MOL d           6.349 -18.828 115.251  0.00  0.00     0.089 H 
ATOM     19  C4  MOL d           6.296 -16.898 112.461  0.00  0.00     0.098 A 
ATOM     20  C5  MOL d           6.578 -15.664 113.038  0.00  0.00    -0.047 A 
ATOM     21  C6  MOL d           6.772 -15.570 114.413  0.00  0.00    -0.070 A 
ATOM     22  H10 MOL d           6.646 -14.778 112.417  0.00  0.00     0.087 H 
ATOM     23  H9  MOL d           6.993 -14.609 114.863  0.00  0.00     0.084 H 
BRANCH  17  24
ATOM     24  O3  MOL d           5.917 -19.229 112.676  0.00  0.00    -0.358 OA
ATOM     25  H12 MOL d           6.638 -19.495 112.117  0.00  0.00     0.217 HD
ENDBRANCH  17  24
BRANCH  19  26
ATOM     26  O4  MOL d           6.106 -16.992 111.119  0.00  0.00    -0.358 OA
ATOM     27  H11 MOL d           5.477 -17.681 110.937  0.00  0.00     0.217 HD
ENDBRANCH  19  26
ENDBRANCH   1  15
TORSDOF 8
ENDMDL
MODEL 3
REMARK VINA RESULT:      -4.5      1.473      2.174
REMARK  8 active torsions:
REMARK  status: ('A' for Active; 'I' for Inactive)
REMARK    1  A    between atoms: C5'_1  and  C4'_2 
REMARK    2  A    between atoms: C4'_2  and  O2'_3 
REMARK    3  A    between atoms: O2'_3  and  C3'_4 
REMARK    4  A    between atoms: C3'_4  and  C2'_6 
REMARK    5  A    between atoms: C2'_6  and  C1'_7 
REMARK    6  A    between atoms: C1'_7  and  C1_8 
REMARK    7  A    between atoms: C4_12  and  O4_13 
REMARK    8  A    between atoms: C3_14  and  O3_15 
ROOT
ATOM      1  C1' MOL d           7.545 -16.671 117.492  0.00  0.00    -0.067 C 
ATOM      2  H7  MOL d           7.899 -15.717 117.881  0.00  0.00     0.085 H 
ENDROOT
BRANCH   1   3
ATOM      3  C2' MOL d           7.640 -17.992 118.253  0.00  0.00    -0.010 C 
ATOM      4  H6  MOL d           6.791 -18.631 118.496  0.00  0.00     0.092 H 
BRANCH   3   5
ATOM      5  C3' MOL d           9.092 -18.294 118.627  0.00  0.00     0.282 C 
ATOM      6  O1' MOL d          10.011 -17.581 118.224  0.00  0.00    -0.260 OA
BRANCH   5   7
ATOM      7  O2' MOL d           9.344 -19.362 119.429  0.00  0.00    -0.319 OA
BRANCH   7   8
ATOM      8  C4' MOL d           8.901 -20.585 118.829  0.00  0.00     0.026 C 
ATOM      9  H4  MOL d           8.696 -21.331 119.611  0.00  0.00     0.074 H 
ATOM     10  H5  MOL d           7.987 -20.404 118.246  0.00  0.00     0.074 H 
BRANCH   8  11
ATOM     11  C5' MOL d          10.016 -21.090 117.908  0.00  0.00    -0.056 C 
ATOM     12  H1  MOL d          10.172 -22.165 118.077  0.00  0.00     0.030 H 
ATOM     13  H2  MOL d          10.947 -20.545 118.127  0.00  0.00     0.030 H 
ATOM     14  H3  MOL d           9.730 -20.921 116.859  0.00  0.00     0.030 H 
ENDBRANCH   8  11
ENDBRANCH   7   8
ENDBRANCH   5   7
ENDBRANCH   3   5
ENDBRANCH   1   3
BRANCH   1  15
ATOM     15  C1  MOL d           6.896 -16.848 116.121  0.00  0.00    -0.033 A 
ATOM     16  C2  MOL d           6.157 -15.829 115.529  0.00  0.00    -0.038 A 
ATOM     17  C3  MOL d           5.650 -15.996 114.243  0.00  0.00     0.099 A 
ATOM     18  H8  MOL d           5.976 -14.906 116.068  0.00  0.00     0.089 H 
ATOM     19  C4  MOL d           5.876 -17.183 113.554  0.00  0.00     0.098 A 
ATOM     20  C5  MOL d           6.609 -18.205 114.149  0.00  0.00    -0.047 A 
ATOM     21  C6  MOL d           7.118 -18.035 115.433  0.00  0.00    -0.070 A 
ATOM     22  H10 MOL d           6.783 -19.131 113.613  0.00  0.00     0.087 H 
ATOM     23  H9  MOL d           7.688 -18.831 115.898  0.00  0.00     0.084 H 
BRANCH  17  24
ATOM     24  O3  MOL d           4.947 -15.002 113.636  0.00  0.00    -0.358 OA
ATOM     25  H12 MOL d           4.057 -15.296 113.478  0.00  0.00     0.217 HD
ENDBRANCH  17  24
BRANCH  19  26
ATOM     26  O4  MOL d           5.378 -17.346 112.300  0.00  0.00    -0.358 OA
ATOM     27  H11 MOL d           4.449 -17.149 112.302  0.00  0.00     0.217 HD
ENDBRANCH  19  26
ENDBRANCH   1  15
TORSDOF 8
ENDMDL
MODEL 4
REMARK VINA RESULT:      -4.5      1.760      5.318
REMARK  8 active torsions:
REMARK  status: ('A' for Active; 'I' for Inactive)
REMARK    1  A    between atoms: C5'_1  and  C4'_2 
REMARK    2  A    between atoms: C4'_2  and  O2'_3 
REMARK    3  A    between atoms: O2'_3  and  C3'_4 
REMARK    4  A    between atoms: C3'_4  and  C2'_6 
REMARK    5  A    between atoms: C2'_6  and  C1'_7 
REMARK    6  A    between atoms: C1'_7  and  C1_8 
REMARK    7  A    between atoms: C4_12  and  O4_13 
REMARK    8  A    between atoms: C3_14  and  O3_15 
ROOT
ATOM      1  C1' MOL d           5.256 -16.228 115.219  0.00  0.00    -0.067 C 
ATOM      2  H7  MOL d           4.216 -16.199 115.537  0.00  0.00     0.085 H 
ENDROOT
BRANCH   1   3
ATOM      3  C2' MOL d           5.733 -15.850 113.817  0.00  0.00    -0.010 C 
ATOM      4  H6  MOL d           5.928 -14.832 113.482  0.00  0.00     0.092 H 
BRANCH   3   5
ATOM      5  C3' MOL d           5.897 -17.099 112.950  0.00  0.00     0.282 C 
ATOM      6  O1' MOL d           4.924 -17.632 112.416  0.00  0.00    -0.260 OA
BRANCH   5   7
ATOM      7  O2' MOL d           7.148 -17.599 112.769  0.00  0.00    -0.319 OA
BRANCH   7   8
ATOM      8  C4' MOL d           8.140 -16.569 112.840  0.00  0.00     0.026 C 
ATOM      9  H4  MOL d           8.506 -16.333 111.830  0.00  0.00     0.074 H 
ATOM     10  H5  MOL d           7.707 -15.665 113.294  0.00  0.00     0.074 H 
BRANCH   8  11
ATOM     11  C5' MOL d           9.295 -17.084 113.704  0.00  0.00    -0.056 C 
ATOM     12  H1  MOL d           9.937 -16.241 113.999  0.00  0.00     0.030 H 
ATOM     13  H2  MOL d           9.886 -17.812 113.130  0.00  0.00     0.030 H 
ATOM     14  H3  MOL d           8.891 -17.569 114.605  0.00  0.00     0.030 H 
ENDBRANCH   8  11
ENDBRANCH   7   8
ENDBRANCH   5   7
ENDBRANCH   3   5
ENDBRANCH   1   3
BRANCH   1  15
ATOM     15  C1  MOL d           6.415 -16.654 116.119  0.00  0.00    -0.033 A 
ATOM     16  C2  MOL d           6.630 -17.988 116.447  0.00  0.00    -0.038 A 
ATOM     17  C3  MOL d           7.743 -18.348 117.201  0.00  0.00     0.099 A 
ATOM     18  H8  MOL d           5.931 -18.748 116.114  0.00  0.00     0.089 H 
ATOM     19  C4  MOL d           8.636 -17.373 117.632  0.00  0.00     0.098 A 
ATOM     20  C5  MOL d           8.418 -16.038 117.311  0.00  0.00    -0.047 A 
ATOM     21  C6  MOL d           7.306 -15.680 116.554  0.00  0.00    -0.070 A 
ATOM     22  H10 MOL d           9.112 -15.277 117.650  0.00  0.00     0.087 H 
ATOM     23  H9  MOL d           7.134 -14.640 116.304  0.00  0.00     0.084 H 
BRANCH  17  24
ATOM     24  O3  MOL d           7.985 -19.650 117.509  0.00  0.00    -0.358 OA
ATOM     25  H12 MOL d           7.159 -20.117 117.578  0.00  0.00     0.217 HD
ENDBRANCH  17  24
BRANCH  19  26
ATOM     26  O4  MOL d           9.721 -17.725 118.371  0.00  0.00    -0.358 OA
ATOM     27  H11 MOL d          10.011 -18.592 118.112  0.00  0.00     0.217 HD
ENDBRANCH  19  26
ENDBRANCH   1  15
TORSDOF 8
ENDMDL
MODEL 5
REMARK VINA RESULT:      -4.3      1.223      1.463
REMARK  8 active torsions:
REMARK  status: ('A' for Active; 'I' for Inactive)
REMARK    1  A    between atoms: C5'_1  and  C4'_2 
REMARK    2  A    between atoms: C4'_2  and  O2'_3 
REMARK    3  A    between atoms: O2'_3  and  C3'_4 
REMARK    4  A    between atoms: C3'_4  and  C2'_6 
REMARK    5  A    between atoms: C2'_6  and  C1'_7 
REMARK    6  A    between atoms: C1'_7  and  C1_8 
REMARK    7  A    between atoms: C4_12  and  O4_13 
REMARK    8  A    between atoms: C3_14  and  O3_15 
ROOT
ATOM      1  C1' MOL d           6.760 -16.602 116.810  0.00  0.00    -0.067 C 
ATOM      2  H7  MOL d           5.933 -16.752 117.502  0.00  0.00     0.085 H 
ENDROOT
BRANCH   1   3
ATOM      3  C2' MOL d           8.178 -16.229 117.239  0.00  0.00    -0.010 C 
ATOM      4  H6  MOL d           8.533 -15.211 117.391  0.00  0.00     0.092 H 
BRANCH   3   5
ATOM      5  C3' MOL d           9.030 -17.486 117.428  0.00  0.00     0.282 C 
ATOM      6  O1' MOL d          10.246 -17.461 117.242  0.00  0.00    -0.260 OA
BRANCH   5   7
ATOM      7  O2' MOL d           8.413 -18.631 117.823  0.00  0.00    -0.319 OA
BRANCH   7   8
ATOM      8  C4' MOL d           9.028 -19.182 118.993  0.00  0.00     0.026 C 
ATOM      9  H4  MOL d           8.682 -20.214 119.146  0.00  0.00     0.074 H 
ATOM     10  H5  MOL d          10.122 -19.175 118.878  0.00  0.00     0.074 H 
BRANCH   8  11
ATOM     11  C5' MOL d           8.625 -18.315 120.190  0.00  0.00    -0.056 C 
ATOM     12  H1  MOL d           8.827 -17.258 119.963  0.00  0.00     0.030 H 
ATOM     13  H2  MOL d           9.206 -18.618 121.074  0.00  0.00     0.030 H 
ATOM     14  H3  MOL d           7.552 -18.448 120.394  0.00  0.00     0.030 H 
ENDBRANCH   8  11
ENDBRANCH   7   8
ENDBRANCH   5   7
ENDBRANCH   3   5
ENDBRANCH   1   3
BRANCH   1  15
ATOM     15  C1  MOL d           6.642 -16.740 115.293  0.00  0.00    -0.033 A 
ATOM     16  C2  MOL d           6.411 -17.971 114.689  0.00  0.00    -0.038 A 
ATOM     17  C3  MOL d           6.226 -18.046 113.311  0.00  0.00     0.099 A 
ATOM     18  H8  MOL d           6.376 -18.872 115.292  0.00  0.00     0.089 H 
ATOM     19  C4  MOL d           6.278 -16.892 112.539  0.00  0.00     0.098 A 
ATOM     20  C5  MOL d           6.516 -15.661 113.141  0.00  0.00    -0.047 A 
ATOM     21  C6  MOL d           6.698 -15.587 114.518  0.00  0.00    -0.070 A 
ATOM     22  H10 MOL d           6.559 -14.761 112.538  0.00  0.00     0.087 H 
ATOM     23  H9  MOL d           6.883 -14.628 114.989  0.00  0.00     0.084 H 
BRANCH  17  24
ATOM     24  O3  MOL d           5.974 -19.238 112.706  0.00  0.00    -0.358 OA
ATOM     25  H12 MOL d           5.116 -19.550 112.969  0.00  0.00     0.217 HD
ENDBRANCH  17  24
BRANCH  19  26
ATOM     26  O4  MOL d           6.100 -16.966 111.194  0.00  0.00    -0.358 OA
ATOM     27  H11 MOL d           5.486 -17.663 110.995  0.00  0.00     0.217 HD
ENDBRANCH  19  26
ENDBRANCH   1  15
TORSDOF 8
ENDMDL
MODEL 6
REMARK VINA RESULT:      -4.3      1.800      2.579
REMARK  8 active torsions:
REMARK  status: ('A' for Active; 'I' for Inactive)
REMARK    1  A    between atoms: C5'_1  and  C4'_2 
REMARK    2  A    between atoms: C4'_2  and  O2'_3 
REMARK    3  A    between atoms: O2'_3  and  C3'_4 
REMARK    4  A    between atoms: C3'_4  and  C2'_6 
REMARK    5  A    between atoms: C2'_6  and  C1'_7 
REMARK    6  A    between atoms: C1'_7  and  C1_8 
REMARK    7  A    between atoms: C4_12  and  O4_13 
REMARK    8  A    between atoms: C3_14  and  O3_15 
ROOT
ATOM      1  C1' MOL d           7.897 -18.412 117.437  0.00  0.00    -0.067 C 
ATOM      2  H7  MOL d           7.522 -18.400 118.459  0.00  0.00     0.085 H 
ENDROOT
BRANCH   1   3
ATOM      3  C2' MOL d           9.216 -19.059 117.018  0.00  0.00    -0.010 C 
ATOM      4  H6  MOL d           9.907 -18.642 116.286  0.00  0.00     0.092 H 
BRANCH   3   5
ATOM      5  C3' MOL d           9.432 -20.374 117.769  0.00  0.00     0.282 C 
ATOM      6  O1' MOL d          10.424 -21.071 117.554  0.00  0.00    -0.260 OA
BRANCH   5   7
ATOM      7  O2' MOL d           8.509 -20.748 118.695  0.00  0.00    -0.319 OA
BRANCH   7   8
ATOM      8  C4' MOL d           9.118 -21.022 119.961  0.00  0.00     0.026 C 
ATOM      9  H4  MOL d           8.510 -21.750 120.518  0.00  0.00     0.074 H 
ATOM     10  H5  MOL d          10.129 -21.428 119.809  0.00  0.00     0.074 H 
BRANCH   8  11
ATOM     11  C5' MOL d           9.197 -19.706 120.742  0.00  0.00    -0.056 C 
ATOM     12  H1  MOL d           8.250 -19.539 121.276  0.00  0.00     0.030 H 
ATOM     13  H2  MOL d           9.376 -18.875 120.043  0.00  0.00     0.030 H 
ATOM     14  H3  MOL d          10.023 -19.759 121.467  0.00  0.00     0.030 H 
ENDBRANCH   8  11
ENDBRANCH   7   8
ENDBRANCH   5   7
ENDBRANCH   3   5
ENDBRANCH   1   3
BRANCH   1  15
ATOM     15  C1  MOL d           7.168 -17.784 116.251  0.00  0.00    -0.033 A 
ATOM     16  C2  MOL d           7.188 -18.371 114.990  0.00  0.00    -0.038 A 
ATOM     17  C3  MOL d           6.444 -17.815 113.953  0.00  0.00     0.099 A 
ATOM     18  H8  MOL d           7.782 -19.261 114.816  0.00  0.00     0.089 H 
ATOM     19  C4  MOL d           5.687 -16.670 114.175  0.00  0.00     0.098 A 
ATOM     20  C5  MOL d           5.673 -16.078 115.434  0.00  0.00    -0.047 A 
ATOM     21  C6  MOL d           6.415 -16.637 116.470  0.00  0.00    -0.070 A 
ATOM     22  H10 MOL d           5.085 -15.184 115.607  0.00  0.00     0.087 H 
ATOM     23  H9  MOL d           6.404 -16.176 117.452  0.00  0.00     0.084 H 
BRANCH  17  24
ATOM     24  O3  MOL d           6.430 -18.389 112.720  0.00  0.00    -0.358 OA
ATOM     25  H12 MOL d           5.540 -18.402 112.388  0.00  0.00     0.217 HD
ENDBRANCH  17  24
BRANCH  19  26
ATOM     26  O4  MOL d           4.964 -16.127 113.161  0.00  0.00    -0.358 OA
ATOM     27  H11 MOL d           4.743 -16.804 112.533  0.00  0.00     0.217 HD
ENDBRANCH  19  26
ENDBRANCH   1  15
TORSDOF 8
ENDMDL
MODEL 7
REMARK VINA RESULT:      -3.8      1.675      2.172
REMARK  8 active torsions:
REMARK  status: ('A' for Active; 'I' for Inactive)
REMARK    1  A    between atoms: C5'_1  and  C4'_2 
REMARK    2  A    between atoms: C4'_2  and  O2'_3 
REMARK    3  A    between atoms: O2'_3  and  C3'_4 
REMARK    4  A    between atoms: C3'_4  and  C2'_6 
REMARK    5  A    between atoms: C2'_6  and  C1'_7 
REMARK    6  A    between atoms: C1'_7  and  C1_8 
REMARK    7  A    between atoms: C4_12  and  O4_13 
REMARK    8  A    between atoms: C3_14  and  O3_15 
ROOT
ATOM      1  C1' MOL d           6.755 -16.387 117.068  0.00  0.00    -0.067 C 
ATOM      2  H7  MOL d           6.513 -15.493 117.640  0.00  0.00     0.085 H 
ENDROOT
BRANCH   1   3
ATOM      3  C2' MOL d           7.278 -17.682 117.687  0.00  0.00    -0.010 C 
ATOM      4  H6  MOL d           7.120 -18.677 117.273  0.00  0.00     0.092 H 
BRANCH   3   5
ATOM      5  C3' MOL d           8.056 -17.387 118.971  0.00  0.00     0.282 C 
ATOM      6  O1' MOL d           7.477 -17.265 120.050  0.00  0.00    -0.260 OA
BRANCH   5   7
ATOM      7  O2' MOL d           9.410 -17.279 118.895  0.00  0.00    -0.319 OA
BRANCH   7   8
ATOM      8  C4' MOL d           9.823 -15.910 118.827  0.00  0.00     0.026 C 
ATOM      9  H4  MOL d           8.954 -15.250 118.964  0.00  0.00     0.074 H 
ATOM     10  H5  MOL d          10.566 -15.705 119.613  0.00  0.00     0.074 H 
BRANCH   8  11
ATOM     11  C5' MOL d          10.446 -15.672 117.448  0.00  0.00    -0.056 C 
ATOM     12  H1  MOL d          10.930 -16.597 117.100  0.00  0.00     0.030 H 
ATOM     13  H2  MOL d          11.195 -14.870 117.517  0.00  0.00     0.030 H 
ATOM     14  H3  MOL d           9.660 -15.380 116.736  0.00  0.00     0.030 H 
ENDBRANCH   8  11
ENDBRANCH   7   8
ENDBRANCH   5   7
ENDBRANCH   3   5
ENDBRANCH   1   3
BRANCH   1  15
ATOM     15  C1  MOL d           6.612 -16.497 115.551  0.00  0.00    -0.033 A 
ATOM     16  C2  MOL d           7.658 -16.945 114.752  0.00  0.00    -0.038 A 
ATOM     17  C3  MOL d           7.466 -17.111 113.383  0.00  0.00     0.099 A 
ATOM     18  H8  MOL d           8.624 -17.164 115.195  0.00  0.00     0.089 H 
ATOM     19  C4  MOL d           6.230 -16.824 112.815  0.00  0.00     0.098 A 
ATOM     20  C5  MOL d           5.185 -16.370 113.612  0.00  0.00    -0.047 A 
ATOM     21  C6  MOL d           5.378 -16.206 114.980  0.00  0.00    -0.070 A 
ATOM     22  H10 MOL d           4.222 -16.143 113.168  0.00  0.00     0.087 H 
ATOM     23  H9  MOL d           4.565 -15.852 115.603  0.00  0.00     0.084 H 
BRANCH  17  24
ATOM     24  O3  MOL d           8.469 -17.573 112.590  0.00  0.00    -0.358 OA
ATOM     25  H12 MOL d           8.119 -18.206 111.973  0.00  0.00     0.217 HD
ENDBRANCH  17  24
BRANCH  19  26
ATOM     26  O4  MOL d           6.044 -16.984 111.478  0.00  0.00    -0.358 OA
ATOM     27  H11 MOL d           6.834 -17.342 111.090  0.00  0.00     0.217 HD
ENDBRANCH  19  26
ENDBRANCH   1  15
TORSDOF 8
ENDMDL
MODEL 8
REMARK VINA RESULT:      -3.4      1.687      5.935
REMARK  8 active torsions:
REMARK  status: ('A' for Active; 'I' for Inactive)
REMARK    1  A    between atoms: C5'_1  and  C4'_2 
REMARK    2  A    between atoms: C4'_2  and  O2'_3 
REMARK    3  A    between atoms: O2'_3  and  C3'_4 
REMARK    4  A    between atoms: C3'_4  and  C2'_6 
REMARK    5  A    between atoms: C2'_6  and  C1'_7 
REMARK    6  A    between atoms: C1'_7  and  C1_8 
REMARK    7  A    between atoms: C4_12  and  O4_13 
REMARK    8  A    between atoms: C3_14  and  O3_15 
ROOT
ATOM      1  C1' MOL d           6.211 -16.196 116.135  0.00  0.00    -0.067 C 
ATOM      2  H7  MOL d           5.843 -15.187 116.314  0.00  0.00     0.085 H 
ENDROOT
BRANCH   1   3
ATOM      3  C2' MOL d           5.972 -16.976 114.843  0.00  0.00    -0.010 C 
ATOM      4  H6  MOL d           5.340 -17.860 114.760  0.00  0.00     0.092 H 
BRANCH   3   5
ATOM      5  C3' MOL d           6.743 -16.344 113.683  0.00  0.00     0.282 C 
ATOM      6  O1' MOL d           6.412 -15.252 113.222  0.00  0.00    -0.260 OA
BRANCH   5   7
ATOM      7  O2' MOL d           7.816 -17.012 113.181  0.00  0.00    -0.319 OA
BRANCH   7   8
ATOM      8  C4' MOL d           8.987 -16.188 113.170  0.00  0.00     0.026 C 
ATOM      9  H4  MOL d           9.675 -16.528 112.381  0.00  0.00     0.074 H 
ATOM     10  H5  MOL d           8.705 -15.141 112.985  0.00  0.00     0.074 H 
BRANCH   8  11
ATOM     11  C5' MOL d           9.665 -16.311 114.538  0.00  0.00    -0.056 C 
ATOM     12  H1  MOL d           9.539 -15.371 115.096  0.00  0.00     0.030 H 
ATOM     13  H2  MOL d          10.737 -16.514 114.399  0.00  0.00     0.030 H 
ATOM     14  H3  MOL d           9.205 -17.137 115.102  0.00  0.00     0.030 H 
ENDBRANCH   8  11
ENDBRANCH   7   8
ENDBRANCH   5   7
ENDBRANCH   3   5
ENDBRANCH   1   3
BRANCH   1  15
ATOM     15  C1  MOL d           7.029 -17.000 117.144  0.00  0.00    -0.033 A 
ATOM     16  C2  MOL d           7.346 -16.487 118.397  0.00  0.00    -0.038 A 
ATOM     17  C3  MOL d           8.021 -17.280 119.322  0.00  0.00     0.099 A 
ATOM     18  H8  MOL d           7.067 -15.471 118.654  0.00  0.00     0.089 H 
ATOM     19  C4  MOL d           8.383 -18.580 118.990  0.00  0.00     0.098 A 
ATOM     20  C5  MOL d           8.073 -19.091 117.734  0.00  0.00    -0.047 A 
ATOM     21  C6  MOL d           7.396 -18.298 116.812  0.00  0.00    -0.070 A 
ATOM     22  H10 MOL d           8.359 -20.104 117.474  0.00  0.00     0.087 H 
ATOM     23  H9  MOL d           7.154 -18.695 115.833  0.00  0.00     0.084 H 
BRANCH  17  24
ATOM     24  O3  MOL d           8.317 -16.805 120.561  0.00  0.00    -0.358 OA
ATOM     25  H12 MOL d           8.301 -17.522 121.186  0.00  0.00     0.217 HD
ENDBRANCH  17  24
BRANCH  19  26
ATOM     26  O4  MOL d           9.045 -19.352 119.892  0.00  0.00    -0.358 OA
ATOM     27  H11 MOL d           9.124 -18.880 120.712  0.00  0.00     0.217 HD
ENDBRANCH  19  26
ENDBRANCH   1  15
TORSDOF 8
ENDMDL
MODEL 9
REMARK VINA RESULT:      -3.4      1.975      2.382
REMARK  8 active torsions:
REMARK  status: ('A' for Active; 'I' for Inactive)
REMARK    1  A    between atoms: C5'_1  and  C4'_2 
REMARK    2  A    between atoms: C4'_2  and  O2'_3 
REMARK    3  A    between atoms: O2'_3  and  C3'_4 
REMARK    4  A    between atoms: C3'_4  and  C2'_6 
REMARK    5  A    between atoms: C2'_6  and  C1'_7 
REMARK    6  A    between atoms: C1'_7  and  C1_8 
REMARK    7  A    between atoms: C4_12  and  O4_13 
REMARK    8  A    between atoms: C3_14  and  O3_15 
ROOT
ATOM      1  C1' MOL d           9.519 -15.877 115.304  0.00  0.00    -0.067 C 
ATOM      2  H7  MOL d           9.648 -14.859 115.666  0.00  0.00     0.085 H 
ENDROOT
BRANCH   1   3
ATOM      3  C2' MOL d          10.232 -17.092 115.896  0.00  0.00    -0.010 C 
ATOM      4  H6  MOL d          10.869 -17.773 115.334  0.00  0.00     0.092 H 
BRANCH   3   5
ATOM      5  C3' MOL d           9.925 -17.219 117.390  0.00  0.00     0.282 C 
ATOM      6  O1' MOL d          10.439 -16.458 118.209  0.00  0.00    -0.260 OA
BRANCH   5   7
ATOM      7  O2' MOL d           9.054 -18.184 117.790  0.00  0.00    -0.319 OA
BRANCH   7   8
ATOM      8  C4' MOL d           7.898 -17.619 118.417  0.00  0.00     0.026 C 
ATOM      9  H4  MOL d           7.599 -18.238 119.276  0.00  0.00     0.074 H 
ATOM     10  H5  MOL d           8.120 -16.598 118.761  0.00  0.00     0.074 H 
BRANCH   8  11
ATOM     11  C5' MOL d           6.768 -17.585 117.382  0.00  0.00    -0.056 C 
ATOM     12  H1  MOL d           6.496 -18.614 117.103  0.00  0.00     0.030 H 
ATOM     13  H2  MOL d           7.106 -17.040 116.489  0.00  0.00     0.030 H 
ATOM     14  H3  MOL d           5.892 -17.078 117.812  0.00  0.00     0.030 H 
ENDBRANCH   8  11
ENDBRANCH   7   8
ENDBRANCH   5   7
ENDBRANCH   3   5
ENDBRANCH   1   3
BRANCH   1  15
ATOM     15  C1  MOL d           8.606 -16.263 114.142  0.00  0.00    -0.033 A 
ATOM     16  C2  MOL d           7.844 -17.426 114.169  0.00  0.00    -0.038 A 
ATOM     17  C3  MOL d           6.960 -17.703 113.130  0.00  0.00     0.099 A 
ATOM     18  H8  MOL d           7.938 -18.116 115.000  0.00  0.00     0.089 H 
ATOM     19  C4  MOL d           6.845 -16.821 112.061  0.00  0.00     0.098 A 
ATOM     20  C5  MOL d           7.612 -15.661 112.029  0.00  0.00    -0.047 A 
ATOM     21  C6  MOL d           8.492 -15.384 113.071  0.00  0.00    -0.070 A 
ATOM     22  H10 MOL d           7.524 -14.975 111.195  0.00  0.00     0.087 H 
ATOM     23  H9  MOL d           9.091 -14.481 113.046  0.00  0.00     0.084 H 
BRANCH  17  24
ATOM     24  O3  MOL d           6.188 -18.822 113.152  0.00  0.00    -0.358 OA
ATOM     25  H12 MOL d           6.075 -19.110 114.050  0.00  0.00     0.217 HD
ENDBRANCH  17  24
BRANCH  19  26
ATOM     26  O4  MOL d           5.984 -17.094 111.046  0.00  0.00    -0.358 OA
ATOM     27  H11 MOL d           6.272 -17.876 110.590  0.00  0.00     0.217 HD
ENDBRANCH  19  26
ENDBRANCH   1  15
TORSDOF 8
ENDMDL
MODEL 10
REMARK VINA RESULT:      -3.3      2.151      2.840
REMARK  8 active torsions:
REMARK  status: ('A' for Active; 'I' for Inactive)
REMARK    1  A    between atoms: C5'_1  and  C4'_2 
REMARK    2  A    between atoms: C4'_2  and  O2'_3 
REMARK    3  A    between atoms: O2'_3  and  C3'_4 
REMARK    4  A    between atoms: C3'_4  and  C2'_6 
REMARK    5  A    between atoms: C2'_6  and  C1'_7 
REMARK    6  A    between atoms: C1'_7  and  C1_8 
REMARK    7  A    between atoms: C4_12  and  O4_13 
REMARK    8  A    between atoms: C3_14  and  O3_15 
ROOT
ATOM      1  C1' MOL d           7.349 -15.961 118.742  0.00  0.00    -0.067 C 
ATOM      2  H7  MOL d           6.471 -15.740 119.347  0.00  0.00     0.085 H 
ENDROOT
BRANCH   1   3
ATOM      3  C2' MOL d           8.781 -15.629 119.160  0.00  0.00    -0.010 C 
ATOM      4  H6  MOL d           9.418 -14.898 118.664  0.00  0.00     0.092 H 
BRANCH   3   5
ATOM      5  C3' MOL d           9.195 -16.467 120.371  0.00  0.00     0.282 C 
ATOM      6  O1' MOL d          10.257 -16.254 120.956  0.00  0.00    -0.260 OA
BRANCH   5   7
ATOM      7  O2' MOL d           8.352 -17.444 120.799  0.00  0.00    -0.319 OA
BRANCH   7   8
ATOM      8  C4' MOL d           8.960 -18.737 120.710  0.00  0.00     0.026 C 
ATOM      9  H4  MOL d           8.445 -19.341 119.948  0.00  0.00     0.074 H 
ATOM     10  H5  MOL d          10.021 -18.633 120.440  0.00  0.00     0.074 H 
BRANCH   8  11
ATOM     11  C5' MOL d           8.836 -19.412 122.080  0.00  0.00    -0.056 C 
ATOM     12  H1  MOL d           9.837 -19.534 122.521  0.00  0.00     0.030 H 
ATOM     13  H2  MOL d           8.366 -20.400 121.960  0.00  0.00     0.030 H 
ATOM     14  H3  MOL d           8.217 -18.789 122.741  0.00  0.00     0.030 H 
ENDBRANCH   8  11
ENDBRANCH   7   8
ENDBRANCH   5   7
ENDBRANCH   3   5
ENDBRANCH   1   3
BRANCH   1  15
ATOM     15  C1  MOL d           7.297 -16.640 117.375  0.00  0.00    -0.033 A 
ATOM     16  C2  MOL d           8.180 -17.659 117.034  0.00  0.00    -0.038 A 
ATOM     17  C3  MOL d           8.050 -18.311 115.810  0.00  0.00     0.099 A 
ATOM     18  H8  MOL d           8.969 -17.946 117.720  0.00  0.00     0.089 H 
ATOM     19  C4  MOL d           7.043 -17.939 114.927  0.00  0.00     0.098 A 
ATOM     20  C5  MOL d           6.164 -16.915 115.264  0.00  0.00    -0.047 A 
ATOM     21  C6  MOL d           6.293 -16.266 116.489  0.00  0.00    -0.070 A 
ATOM     22  H10 MOL d           5.380 -16.623 114.575  0.00  0.00     0.087 H 
ATOM     23  H9  MOL d           5.609 -15.468 116.753  0.00  0.00     0.084 H 
BRANCH  17  24
ATOM     24  O3  MOL d           8.887 -19.327 115.470  0.00  0.00    -0.358 OA
ATOM     25  H12 MOL d           9.449 -19.534 116.208  0.00  0.00     0.217 HD
ENDBRANCH  17  24
BRANCH  19  26
ATOM     26  O4  MOL d           6.918 -18.574 113.732  0.00  0.00    -0.358 OA
ATOM     27  H11 MOL d           7.782 -18.771 113.389  0.00  0.00     0.217 HD
ENDBRANCH  19  26
ENDBRANCH   1  15
TORSDOF 8
ENDMDL
