MODEL 1
REMARK VINA RESULT:      -7.9      0.000      0.000
REMARK  7 active torsions:
REMARK  status: ('A' for Active; 'I' for Inactive)
REMARK    1  A    between atoms: C13_2  and  C15_3 
REMARK       I    between atoms: C13_2  and  N12_13 
REMARK    2  A    between atoms: C19_7  and  C21_8 
REMARK    3  A    between atoms: C21_8  and  N22_9 
REMARK    4  A    between atoms: N22_9  and  C23_10 
REMARK    5  A    between atoms: N22_9  and  C24_11 
REMARK    6  A    between atoms: N12_13  and  C10_14 
REMARK    7  A    between atoms: C6_16  and  C2_20 
ROOT
ATOM      1  C15 DN3 d          -9.680  56.924  11.652  0.00  0.00     0.032 A 
ATOM      2  C16 DN3 d          -9.279  57.168  10.340  0.00  0.00    -0.068 A 
ATOM      3  C17 DN3 d         -10.015  58.054   9.554  0.00  0.00    -0.081 A 
ATOM      4  C18 DN3 d         -11.162  58.665  10.049  0.00  0.00    -0.075 A 
ATOM      5  C19 DN3 d         -11.499  58.499  11.392  0.00  0.00    -0.032 A 
ATOM      6  C20 DN3 d         -10.773  57.611  12.174  0.00  0.00    -0.060 A 
ATOM      7  H1  DN3 d          -8.403  56.674   9.935  0.00  0.00     0.085 H 
ATOM      8  H2  DN3 d          -9.688  58.269   8.543  0.00  0.00     0.083 H 
ATOM      9  H3  DN3 d         -11.786  59.265   9.396  0.00  0.00     0.084 H 
ATOM     10  H13 DN3 d         -11.060  57.451  13.207  0.00  0.00     0.086 H 
ENDROOT
BRANCH   1  11
ATOM     11  C13 DN3 d          -8.858  56.043  12.565  0.00  0.00     0.256 C 
ATOM     12  O14 DN3 d          -9.089  56.047  13.770  0.00  0.00    -0.267 OA
ATOM     13  N12 DN3 d          -7.904  55.276  12.023  0.00  0.00    -0.323 N 
ATOM     14  H14 DN3 d          -7.811  55.282  11.027  0.00  0.00     0.169 HD
BRANCH  13  15
ATOM     15  C10 DN3 d          -7.017  54.460  12.762  0.00  0.00     0.035 A 
ATOM     16  C11 DN3 d          -5.678  54.455  12.388  0.00  0.00    -0.043 A 
ATOM     17  C6  DN3 d          -4.748  53.697  13.092  0.00  0.00     0.017 A 
ATOM     18  H15 DN3 d          -5.355  55.048  11.540  0.00  0.00     0.088 H 
ATOM     19  C7  DN3 d          -5.146  52.930  14.182  0.00  0.00    -0.069 A 
ATOM     20  C8  DN3 d          -6.475  52.950  14.577  0.00  0.00    -0.080 A 
ATOM     21  H16 DN3 d          -4.425  52.324  14.718  0.00  0.00     0.085 H 
ATOM     22  C9  DN3 d          -7.419  53.691  13.855  0.00  0.00    -0.057 A 
ATOM     23  H17 DN3 d          -6.785  52.387  15.451  0.00  0.00     0.083 H 
ATOM     24  H18 DN3 d          -8.463  53.668  14.146  0.00  0.00     0.086 H 
BRANCH  17  25
ATOM     25  C2  DN3 d          -3.326  53.693  12.678  0.00  0.00     0.198 A 
ATOM     26  N1  DN3 d          -2.890  53.660  11.402  0.00  0.00    -0.139 NA
ATOM     27  N5  DN3 d          -1.501  53.638  11.405  0.00  0.00    -0.200 N 
ATOM     28  N4  DN3 d          -1.104  53.675  12.743  0.00  0.00     0.022 NA
ATOM     29  H19 DN3 d          -0.884  53.603  10.581  0.00  0.00     0.208 HD
ATOM     30  N3  DN3 d          -2.264  53.691  13.519  0.00  0.00    -0.136 NA
ENDBRANCH  17  25
ENDBRANCH  13  15
ENDBRANCH   1  11
BRANCH   5  31
ATOM     31  C21 DN3 d         -12.726  59.179  11.977  0.00  0.00     0.106 C 
ATOM     32  H4  DN3 d         -12.619  60.271  11.903  0.00  0.00     0.083 H 
ATOM     33  H5  DN3 d         -12.845  58.894  13.033  0.00  0.00     0.083 H 
BRANCH  31  34
ATOM     34  N22 DN3 d         -13.903  58.736  11.203  0.00  0.00    -0.075 N 
ATOM     35  H6  DN3 d         -13.617  58.519  10.261  0.00  0.00     0.279 HD
BRANCH  34  36
ATOM     36  C23 DN3 d         -14.456  57.531  11.844  0.00  0.00     0.066 C 
ATOM     37  H7  DN3 d         -15.336  57.186  11.279  0.00  0.00     0.068 H 
ATOM     38  H8  DN3 d         -14.753  57.768  12.876  0.00  0.00     0.068 H 
ATOM     39  H9  DN3 d         -13.694  56.738  11.855  0.00  0.00     0.068 H 
ENDBRANCH  34  36
BRANCH  34  40
ATOM     40  C24 DN3 d         -14.943  59.776  11.164  0.00  0.00     0.066 C 
ATOM     41  H10 DN3 d         -14.538  60.681  10.687  0.00  0.00     0.068 H 
ATOM     42  H11 DN3 d         -15.262  60.013  12.190  0.00  0.00     0.068 H 
ATOM     43  H12 DN3 d         -15.805  59.411  10.586  0.00  0.00     0.068 H 
ENDBRANCH  34  40
ENDBRANCH  31  34
ENDBRANCH   5  31
TORSDOF 7
ENDMDL
