MODEL 1
REMARK VINA RESULT:      -7.2      0.000      0.000
REMARK  7 active torsions:
REMARK  status: ('A' for Active; 'I' for Inactive)
REMARK    1  A    between atoms: C13_2  and  C15_3 
REMARK       I    between atoms: C13_2  and  N12_13 
REMARK    2  A    between atoms: C19_7  and  C21_8 
REMARK    3  A    between atoms: C21_8  and  N22_9 
REMARK    4  A    between atoms: N22_9  and  C23_10 
REMARK    5  A    between atoms: N22_9  and  C24_11 
REMARK    6  A    between atoms: N12_13  and  C10_14 
REMARK    7  A    between atoms: C6_16  and  C2_20 
ROOT
ATOM      1  C15 DN3 d         -10.579  57.743  11.569  0.00  0.00     0.032 A 
ATOM      2  C16 DN3 d         -10.072  58.487  10.506  0.00  0.00    -0.068 A 
ATOM      3  C17 DN3 d         -10.757  59.626  10.082  0.00  0.00    -0.081 A 
ATOM      4  C18 DN3 d         -11.954  60.005  10.679  0.00  0.00    -0.075 A 
ATOM      5  C19 DN3 d         -12.401  59.317  11.808  0.00  0.00    -0.032 A 
ATOM      6  C20 DN3 d         -11.726  58.179  12.227  0.00  0.00    -0.060 A 
ATOM      7  H1  DN3 d          -9.155  58.185  10.013  0.00  0.00     0.085 H 
ATOM      8  H2  DN3 d         -10.350  60.224   9.275  0.00  0.00     0.083 H 
ATOM      9  H3  DN3 d         -12.533  60.826  10.272  0.00  0.00     0.084 H 
ATOM     10  H13 DN3 d         -12.097  57.621  13.079  0.00  0.00     0.086 H 
ENDROOT
BRANCH   1  11
ATOM     11  C13 DN3 d          -9.820  56.557  12.118  0.00  0.00     0.256 C 
ATOM     12  O14 DN3 d          -9.647  56.464  13.329  0.00  0.00    -0.267 OA
ATOM     13  N12 DN3 d          -9.366  55.636  11.258  0.00  0.00    -0.323 N 
ATOM     14  H14 DN3 d          -9.595  55.748  10.292  0.00  0.00     0.169 HD
BRANCH  13  15
ATOM     15  C10 DN3 d          -8.584  54.516  11.624  0.00  0.00     0.035 A 
ATOM     16  C11 DN3 d          -7.262  54.744  11.994  0.00  0.00    -0.043 A 
ATOM     17  C6  DN3 d          -6.447  53.689  12.393  0.00  0.00     0.017 A 
ATOM     18  H15 DN3 d          -6.863  55.751  11.970  0.00  0.00     0.088 H 
ATOM     19  C7  DN3 d          -6.943  52.390  12.429  0.00  0.00    -0.069 A 
ATOM     20  C8  DN3 d          -8.267  52.159  12.087  0.00  0.00    -0.080 A 
ATOM     21  H16 DN3 d          -6.302  51.567  12.721  0.00  0.00     0.085 H 
ATOM     22  C9  DN3 d          -9.084  53.214  11.658  0.00  0.00    -0.057 A 
ATOM     23  H17 DN3 d          -8.672  51.156  12.152  0.00  0.00     0.083 H 
ATOM     24  H18 DN3 d         -10.105  53.019  11.354  0.00  0.00     0.086 H 
BRANCH  17  25
ATOM     25  C2  DN3 d          -5.038  53.943  12.775  0.00  0.00     0.198 A 
ATOM     26  N1  DN3 d          -4.447  53.493  13.900  0.00  0.00    -0.139 NA
ATOM     27  N5  DN3 d          -3.136  53.952  13.929  0.00  0.00    -0.200 N 
ATOM     28  N4  DN3 d          -2.946  54.693  12.762  0.00  0.00     0.022 NA
ATOM     29  H19 DN3 d          -2.440  53.779  14.669  0.00  0.00     0.208 HD
ATOM     30  N3  DN3 d          -4.156  54.686  12.066  0.00  0.00    -0.136 NA
ENDBRANCH  17  25
ENDBRANCH  13  15
ENDBRANCH   1  11
BRANCH   5  31
ATOM     31  C21 DN3 d         -13.688  59.724  12.509  0.00  0.00     0.106 C 
ATOM     32  H4  DN3 d         -14.080  60.649  12.063  0.00  0.00     0.083 H 
ATOM     33  H5  DN3 d         -13.495  59.886  13.580  0.00  0.00     0.083 H 
BRANCH  31  34
ATOM     34  N22 DN3 d         -14.663  58.630  12.335  0.00  0.00    -0.075 N 
ATOM     35  H6  DN3 d         -14.208  57.748  12.512  0.00  0.00     0.279 HD
BRANCH  34  36
ATOM     36  C23 DN3 d         -15.760  58.824  13.300  0.00  0.00     0.066 C 
ATOM     37  H7  DN3 d         -15.528  59.680  13.951  0.00  0.00     0.068 H 
ATOM     38  H8  DN3 d         -15.874  57.918  13.912  0.00  0.00     0.068 H 
ATOM     39  H9  DN3 d         -16.696  59.020  12.756  0.00  0.00     0.068 H 
ENDBRANCH  34  36
BRANCH  34  40
ATOM     40  C24 DN3 d         -15.222  58.620  10.975  0.00  0.00     0.066 C 
ATOM     41  H10 DN3 d         -15.555  57.602  10.723  0.00  0.00     0.068 H 
ATOM     42  H11 DN3 d         -14.450  58.940  10.259  0.00  0.00     0.068 H 
ATOM     43  H12 DN3 d         -16.078  59.309  10.924  0.00  0.00     0.068 H 
ENDBRANCH  34  40
ENDBRANCH  31  34
ENDBRANCH   5  31
TORSDOF 7
ENDMDL
MODEL 2
REMARK VINA RESULT:      -7.0      1.636      2.115
REMARK  7 active torsions:
REMARK  status: ('A' for Active; 'I' for Inactive)
REMARK    1  A    between atoms: C13_2  and  C15_3 
REMARK       I    between atoms: C13_2  and  N12_13 
REMARK    2  A    between atoms: C19_7  and  C21_8 
REMARK    3  A    between atoms: C21_8  and  N22_9 
REMARK    4  A    between atoms: N22_9  and  C23_10 
REMARK    5  A    between atoms: N22_9  and  C24_11 
REMARK    6  A    between atoms: N12_13  and  C10_14 
REMARK    7  A    between atoms: C6_16  and  C2_20 
ROOT
ATOM      1  C15 DN3 d          -9.890  56.900  11.265  0.00  0.00     0.032 A 
ATOM      2  C16 DN3 d          -9.424  57.795  10.304  0.00  0.00    -0.068 A 
ATOM      3  C17 DN3 d         -10.177  58.932  10.008  0.00  0.00    -0.081 A 
ATOM      4  C18 DN3 d         -11.398  59.162  10.630  0.00  0.00    -0.075 A 
ATOM      5  C19 DN3 d         -11.809  58.320  11.664  0.00  0.00    -0.032 A 
ATOM      6  C20 DN3 d         -11.065  57.183  11.954  0.00  0.00    -0.060 A 
ATOM      7  H1  DN3 d          -8.487  57.610   9.791  0.00  0.00     0.085 H 
ATOM      8  H2  DN3 d          -9.803  59.646   9.283  0.00  0.00     0.083 H 
ATOM      9  H3  DN3 d         -12.026  59.989  10.315  0.00  0.00     0.084 H 
ATOM     10  H13 DN3 d         -11.405  56.507  12.730  0.00  0.00     0.086 H 
ENDROOT
BRANCH   1  11
ATOM     11  C13 DN3 d          -9.061  55.706  11.680  0.00  0.00     0.256 C 
ATOM     12  O14 DN3 d          -9.492  54.576  11.474  0.00  0.00    -0.267 OA
ATOM     13  N12 DN3 d          -7.872  55.923  12.257  0.00  0.00    -0.323 N 
ATOM     14  H14 DN3 d          -7.561  56.870  12.341  0.00  0.00     0.169 HD
BRANCH  13  15
ATOM     15  C10 DN3 d          -7.027  54.906  12.756  0.00  0.00     0.035 A 
ATOM     16  C11 DN3 d          -5.846  54.650  12.066  0.00  0.00    -0.043 A 
ATOM     17  C6  DN3 d          -4.956  53.682  12.521  0.00  0.00     0.017 A 
ATOM     18  H15 DN3 d          -5.617  55.210  11.167  0.00  0.00     0.088 H 
ATOM     19  C7  DN3 d          -5.235  52.955  13.673  0.00  0.00    -0.069 A 
ATOM     20  C8  DN3 d          -6.398  53.222  14.380  0.00  0.00    -0.080 A 
ATOM     21  H16 DN3 d          -4.551  52.188  14.015  0.00  0.00     0.085 H 
ATOM     22  C9  DN3 d          -7.310  54.177  13.911  0.00  0.00    -0.057 A 
ATOM     23  H17 DN3 d          -6.602  52.688  15.301  0.00  0.00     0.083 H 
ATOM     24  H18 DN3 d          -8.236  54.350  14.447  0.00  0.00     0.086 H 
BRANCH  17  25
ATOM     25  C2  DN3 d          -3.706  53.413  11.773  0.00  0.00     0.198 A 
ATOM     26  N1  DN3 d          -2.534  54.052  11.965  0.00  0.00    -0.139 NA
ATOM     27  N5  DN3 d          -1.601  53.553  11.065  0.00  0.00    -0.200 N 
ATOM     28  N4  DN3 d          -2.250  52.568  10.320  0.00  0.00     0.022 NA
ATOM     29  H19 DN3 d          -0.620  53.852  10.967  0.00  0.00     0.208 HD
ATOM     30  N3  DN3 d          -3.571  52.511  10.771  0.00  0.00    -0.136 NA
ENDBRANCH  17  25
ENDBRANCH  13  15
ENDBRANCH   1  11
BRANCH   5  31
ATOM     31  C21 DN3 d         -13.122  58.560  12.391  0.00  0.00     0.106 C 
ATOM     32  H4  DN3 d         -12.924  58.844  13.435  0.00  0.00     0.083 H 
ATOM     33  H5  DN3 d         -13.735  57.647  12.368  0.00  0.00     0.083 H 
BRANCH  31  34
ATOM     34  N22 DN3 d         -13.829  59.655  11.699  0.00  0.00    -0.075 N 
ATOM     35  H6  DN3 d         -13.246  60.010  10.957  0.00  0.00     0.279 HD
BRANCH  34  36
ATOM     36  C23 DN3 d         -15.080  59.120  11.134  0.00  0.00     0.066 C 
ATOM     37  H7  DN3 d         -15.822  58.997  11.937  0.00  0.00     0.068 H 
ATOM     38  H8  DN3 d         -14.883  58.146  10.664  0.00  0.00     0.068 H 
ATOM     39  H9  DN3 d         -15.470  59.820  10.380  0.00  0.00     0.068 H 
ENDBRANCH  34  36
BRANCH  34  40
ATOM     40  C24 DN3 d         -14.154  60.753  12.622  0.00  0.00     0.066 C 
ATOM     41  H10 DN3 d         -13.976  61.717  12.123  0.00  0.00     0.068 H 
ATOM     42  H11 DN3 d         -13.517  60.680  13.516  0.00  0.00     0.068 H 
ATOM     43  H12 DN3 d         -15.212  60.683  12.918  0.00  0.00     0.068 H 
ENDBRANCH  34  40
ENDBRANCH  31  34
ENDBRANCH   5  31
TORSDOF 7
ENDMDL
MODEL 3
REMARK VINA RESULT:      -6.5      1.894      9.097
REMARK  7 active torsions:
REMARK  status: ('A' for Active; 'I' for Inactive)
REMARK    1  A    between atoms: C13_2  and  C15_3 
REMARK       I    between atoms: C13_2  and  N12_13 
REMARK    2  A    between atoms: C19_7  and  C21_8 
REMARK    3  A    between atoms: C21_8  and  N22_9 
REMARK    4  A    between atoms: N22_9  and  C23_10 
REMARK    5  A    between atoms: N22_9  and  C24_11 
REMARK    6  A    between atoms: N12_13  and  C10_14 
REMARK    7  A    between atoms: C6_16  and  C2_20 
ROOT
ATOM      1  C15 DN3 d          -6.876  53.859  12.529  0.00  0.00     0.032 A 
ATOM      2  C16 DN3 d          -7.013  53.683  13.904  0.00  0.00    -0.068 A 
ATOM      3  C17 DN3 d          -5.998  53.044  14.615  0.00  0.00    -0.081 A 
ATOM      4  C18 DN3 d          -4.873  52.548  13.967  0.00  0.00    -0.075 A 
ATOM      5  C19 DN3 d          -4.693  52.818  12.610  0.00  0.00    -0.032 A 
ATOM      6  C20 DN3 d          -5.706  53.447  11.898  0.00  0.00    -0.060 A 
ATOM      7  H1  DN3 d          -7.899  54.040  14.416  0.00  0.00     0.085 H 
ATOM      8  H2  DN3 d          -6.087  52.932  15.690  0.00  0.00     0.083 H 
ATOM      9  H3  DN3 d          -4.143  51.958  14.510  0.00  0.00     0.084 H 
ATOM     10  H13 DN3 d          -5.583  53.620  10.835  0.00  0.00     0.086 H 
ENDROOT
BRANCH   1  11
ATOM     11  C13 DN3 d          -7.909  54.627  11.737  0.00  0.00     0.256 C 
ATOM     12  O14 DN3 d          -8.383  54.124  10.723  0.00  0.00    -0.267 OA
ATOM     13  N12 DN3 d          -8.281  55.836  12.176  0.00  0.00    -0.323 N 
ATOM     14  H14 DN3 d          -7.895  56.156  13.041  0.00  0.00     0.169 HD
BRANCH  13  15
ATOM     15  C10 DN3 d          -9.183  56.690  11.501  0.00  0.00     0.035 A 
ATOM     16  C11 DN3 d         -10.472  56.805  12.012  0.00  0.00    -0.043 A 
ATOM     17  C6  DN3 d         -11.399  57.651  11.412  0.00  0.00     0.017 A 
ATOM     18  H15 DN3 d         -10.756  56.230  12.885  0.00  0.00     0.088 H 
ATOM     19  C7  DN3 d         -11.049  58.396  10.290  0.00  0.00    -0.069 A 
ATOM     20  C8  DN3 d          -9.759  58.306   9.790  0.00  0.00    -0.080 A 
ATOM     21  H16 DN3 d         -11.778  59.039   9.812  0.00  0.00     0.085 H 
ATOM     22  C9  DN3 d          -8.830  57.435  10.375  0.00  0.00    -0.057 A 
ATOM     23  H17 DN3 d          -9.467  58.914   8.941  0.00  0.00     0.083 H 
ATOM     24  H18 DN3 d          -7.836  57.341   9.953  0.00  0.00     0.086 H 
BRANCH  17  25
ATOM     25  C2  DN3 d         -12.771  57.757  11.960  0.00  0.00     0.198 A 
ATOM     26  N1  DN3 d         -13.583  56.714  12.224  0.00  0.00    -0.139 NA
ATOM     27  N5  DN3 d         -14.795  57.201  12.698  0.00  0.00    -0.200 N 
ATOM     28  N4  DN3 d         -14.684  58.592  12.726  0.00  0.00     0.022 NA
ATOM     29  H19 DN3 d         -15.616  56.643  12.974  0.00  0.00     0.208 HD
ATOM     30  N3  DN3 d         -13.414  58.915  12.243  0.00  0.00    -0.136 NA
ENDBRANCH  17  25
ENDBRANCH  13  15
ENDBRANCH   1  11
BRANCH   5  31
ATOM     31  C21 DN3 d          -3.458  52.322  11.873  0.00  0.00     0.106 C 
ATOM     32  H4  DN3 d          -3.753  51.857  10.921  0.00  0.00     0.083 H 
ATOM     33  H5  DN3 d          -2.925  51.585  12.492  0.00  0.00     0.083 H 
BRANCH  31  34
ATOM     34  N22 DN3 d          -2.587  53.485  11.616  0.00  0.00    -0.075 N 
ATOM     35  H6  DN3 d          -3.148  54.252  11.279  0.00  0.00     0.279 HD
BRANCH  34  36
ATOM     36  C23 DN3 d          -1.931  53.866  12.878  0.00  0.00     0.066 C 
ATOM     37  H7  DN3 d          -2.047  53.054  13.612  0.00  0.00     0.068 H 
ATOM     38  H8  DN3 d          -2.396  54.783  13.270  0.00  0.00     0.068 H 
ATOM     39  H9  DN3 d          -0.861  54.046  12.696  0.00  0.00     0.068 H 
ENDBRANCH  34  36
BRANCH  34  40
ATOM     40  C24 DN3 d          -1.553  53.171  10.618  0.00  0.00     0.066 C 
ATOM     41  H10 DN3 d          -1.961  52.467   9.877  0.00  0.00     0.068 H 
ATOM     42  H11 DN3 d          -0.686  52.715  11.120  0.00  0.00     0.068 H 
ATOM     43  H12 DN3 d          -1.239  54.096  10.111  0.00  0.00     0.068 H 
ENDBRANCH  34  40
ENDBRANCH  31  34
ENDBRANCH   5  31
TORSDOF 7
ENDMDL
MODEL 4
REMARK VINA RESULT:      -6.2      1.664      2.169
REMARK  7 active torsions:
REMARK  status: ('A' for Active; 'I' for Inactive)
REMARK    1  A    between atoms: C13_2  and  C15_3 
REMARK       I    between atoms: C13_2  and  N12_13 
REMARK    2  A    between atoms: C19_7  and  C21_8 
REMARK    3  A    between atoms: C21_8  and  N22_9 
REMARK    4  A    between atoms: N22_9  and  C23_10 
REMARK    5  A    between atoms: N22_9  and  C24_11 
REMARK    6  A    between atoms: N12_13  and  C10_14 
REMARK    7  A    between atoms: C6_16  and  C2_20 
ROOT
ATOM      1  C15 DN3 d         -11.462  58.476  11.464  0.00  0.00     0.032 A 
ATOM      2  C16 DN3 d         -11.370  59.856  11.634  0.00  0.00    -0.068 A 
ATOM      3  C17 DN3 d         -12.479  60.562  12.099  0.00  0.00    -0.081 A 
ATOM      4  C18 DN3 d         -13.682  59.915  12.357  0.00  0.00    -0.075 A 
ATOM      5  C19 DN3 d         -13.738  58.523  12.285  0.00  0.00    -0.032 A 
ATOM      6  C20 DN3 d         -12.638  57.819  11.814  0.00  0.00    -0.060 A 
ATOM      7  H1  DN3 d         -10.446  60.375  11.408  0.00  0.00     0.085 H 
ATOM      8  H2  DN3 d         -12.402  61.631  12.262  0.00  0.00     0.083 H 
ATOM      9  H3  DN3 d         -14.567  60.487  12.613  0.00  0.00     0.084 H 
ATOM     10  H13 DN3 d         -12.695  56.740  11.719  0.00  0.00     0.086 H 
ENDROOT
BRANCH   1  11
ATOM     11  C13 DN3 d         -10.257  57.663  11.050  0.00  0.00     0.256 C 
ATOM     12  O14 DN3 d          -9.515  58.094  10.173  0.00  0.00    -0.267 OA
ATOM     13  N12 DN3 d         -10.035  56.493  11.664  0.00  0.00    -0.323 N 
ATOM     14  H14 DN3 d         -10.650  56.234  12.409  0.00  0.00     0.169 HD
BRANCH  13  15
ATOM     15  C10 DN3 d          -8.990  55.601  11.331  0.00  0.00     0.035 A 
ATOM     16  C11 DN3 d          -8.123  55.213  12.348  0.00  0.00    -0.043 A 
ATOM     17  C6  DN3 d          -7.092  54.314  12.094  0.00  0.00     0.017 A 
ATOM     18  H15 DN3 d          -8.251  55.614  13.346  0.00  0.00     0.088 H 
ATOM     19  C7  DN3 d          -6.913  53.790  10.818  0.00  0.00    -0.069 A 
ATOM     20  C8  DN3 d          -7.789  54.152   9.806  0.00  0.00    -0.080 A 
ATOM     21  H16 DN3 d          -6.098  53.105  10.617  0.00  0.00     0.085 H 
ATOM     22  C9  DN3 d          -8.813  55.077  10.050  0.00  0.00    -0.057 A 
ATOM     23  H17 DN3 d          -7.681  53.716   8.819  0.00  0.00     0.083 H 
ATOM     24  H18 DN3 d          -9.467  55.387   9.244  0.00  0.00     0.086 H 
BRANCH  17  25
ATOM     25  C2  DN3 d          -6.169  53.916  13.182  0.00  0.00     0.198 A 
ATOM     26  N1  DN3 d          -6.426  52.970  14.108  0.00  0.00    -0.139 NA
ATOM     27  N5  DN3 d          -5.345  52.893  14.978  0.00  0.00    -0.200 N 
ATOM     28  N4  DN3 d          -4.407  53.826  14.535  0.00  0.00     0.022 NA
ATOM     29  H19 DN3 d          -5.254  52.269  15.793  0.00  0.00     0.208 HD
ATOM     30  N3  DN3 d          -4.954  54.465  13.419  0.00  0.00    -0.136 NA
ENDBRANCH  17  25
ENDBRANCH  13  15
ENDBRANCH   1  11
BRANCH   5  31
ATOM     31  C21 DN3 d         -15.027  57.778  12.594  0.00  0.00     0.106 C 
ATOM     32  H4  DN3 d         -15.886  58.334  12.191  0.00  0.00     0.083 H 
ATOM     33  H5  DN3 d         -15.141  57.663  13.682  0.00  0.00     0.083 H 
BRANCH  31  34
ATOM     34  N22 DN3 d         -14.945  56.449  11.956  0.00  0.00    -0.075 N 
ATOM     35  H6  DN3 d         -13.996  56.279  11.663  0.00  0.00     0.279 HD
BRANCH  34  36
ATOM     36  C23 DN3 d         -15.349  55.432  12.942  0.00  0.00     0.066 C 
ATOM     37  H7  DN3 d         -16.259  54.922  12.591  0.00  0.00     0.068 H 
ATOM     38  H8  DN3 d         -15.550  55.917  13.908  0.00  0.00     0.068 H 
ATOM     39  H9  DN3 d         -14.540  54.696  13.062  0.00  0.00     0.068 H 
ENDBRANCH  34  36
BRANCH  34  40
ATOM     40  C24 DN3 d         -15.833  56.359  10.787  0.00  0.00     0.066 C 
ATOM     41  H10 DN3 d         -15.703  55.380  10.302  0.00  0.00     0.068 H 
ATOM     42  H11 DN3 d         -15.582  57.158  10.074  0.00  0.00     0.068 H 
ATOM     43  H12 DN3 d         -16.879  56.471  11.111  0.00  0.00     0.068 H 
ENDBRANCH  34  40
ENDBRANCH  31  34
ENDBRANCH   5  31
TORSDOF 7
ENDMDL
MODEL 5
REMARK VINA RESULT:      -6.2      1.613      1.987
REMARK  7 active torsions:
REMARK  status: ('A' for Active; 'I' for Inactive)
REMARK    1  A    between atoms: C13_2  and  C15_3 
REMARK       I    between atoms: C13_2  and  N12_13 
REMARK    2  A    between atoms: C19_7  and  C21_8 
REMARK    3  A    between atoms: C21_8  and  N22_9 
REMARK    4  A    between atoms: N22_9  and  C23_10 
REMARK    5  A    between atoms: N22_9  and  C24_11 
REMARK    6  A    between atoms: N12_13  and  C10_14 
REMARK    7  A    between atoms: C6_16  and  C2_20 
ROOT
ATOM      1  C15 DN3 d         -10.610  57.467  10.402  0.00  0.00     0.032 A 
ATOM      2  C16 DN3 d         -10.414  58.544  11.264  0.00  0.00    -0.068 A 
ATOM      3  C17 DN3 d         -11.324  59.602  11.252  0.00  0.00    -0.081 A 
ATOM      4  C18 DN3 d         -12.397  59.612  10.369  0.00  0.00    -0.075 A 
ATOM      5  C19 DN3 d         -12.646  58.487   9.584  0.00  0.00    -0.032 A 
ATOM      6  C20 DN3 d         -11.738  57.436   9.587  0.00  0.00    -0.060 A 
ATOM      7  H1  DN3 d          -9.564  58.561  11.936  0.00  0.00     0.085 H 
ATOM      8  H2  DN3 d         -11.192  60.427  11.943  0.00  0.00     0.083 H 
ATOM      9  H3  DN3 d         -13.034  60.486  10.292  0.00  0.00     0.084 H 
ATOM     10  H13 DN3 d         -11.911  56.579   8.946  0.00  0.00     0.086 H 
ENDROOT
BRANCH   1  11
ATOM     11  C13 DN3 d          -9.700  56.261  10.448  0.00  0.00     0.256 C 
ATOM     12  O14 DN3 d          -9.274  55.791   9.398  0.00  0.00    -0.267 OA
ATOM     13  N12 DN3 d          -9.382  55.746  11.643  0.00  0.00    -0.323 N 
ATOM     14  H14 DN3 d          -9.719  56.217  12.457  0.00  0.00     0.169 HD
BRANCH  13  15
ATOM     15  C10 DN3 d          -8.600  54.583  11.830  0.00  0.00     0.035 A 
ATOM     16  C11 DN3 d          -7.251  54.751  12.125  0.00  0.00    -0.043 A 
ATOM     17  C6  DN3 d          -6.433  53.648  12.350  0.00  0.00     0.017 A 
ATOM     18  H15 DN3 d          -6.833  55.749  12.181  0.00  0.00     0.088 H 
ATOM     19  C7  DN3 d          -6.954  52.360  12.283  0.00  0.00    -0.069 A 
ATOM     20  C8  DN3 d          -8.303  52.186  12.014  0.00  0.00    -0.080 A 
ATOM     21  H16 DN3 d          -6.311  51.502  12.439  0.00  0.00     0.085 H 
ATOM     22  C9  DN3 d          -9.125  53.292  11.761  0.00  0.00    -0.057 A 
ATOM     23  H17 DN3 d          -8.724  51.187  12.001  0.00  0.00     0.083 H 
ATOM     24  H18 DN3 d         -10.169  53.145  11.511  0.00  0.00     0.086 H 
BRANCH  17  25
ATOM     25  C2  DN3 d          -4.996  53.840  12.655  0.00  0.00     0.198 A 
ATOM     26  N1  DN3 d          -4.347  53.295  13.703  0.00  0.00    -0.139 NA
ATOM     27  N5  DN3 d          -3.024  53.719  13.678  0.00  0.00    -0.200 N 
ATOM     28  N4  DN3 d          -2.888  54.539  12.557  0.00  0.00     0.022 NA
ATOM     29  H19 DN3 d          -2.287  53.476  14.356  0.00  0.00     0.208 HD
ATOM     30  N3  DN3 d          -4.140  54.611  11.943  0.00  0.00    -0.136 NA
ENDBRANCH  17  25
ENDBRANCH  13  15
ENDBRANCH   1  11
BRANCH   5  31
ATOM     31  C21 DN3 d         -13.831  58.447   8.631  0.00  0.00     0.106 C 
ATOM     32  H4  DN3 d         -14.173  57.410   8.504  0.00  0.00     0.083 H 
ATOM     33  H5  DN3 d         -13.539  58.859   7.654  0.00  0.00     0.083 H 
BRANCH  31  34
ATOM     34  N22 DN3 d         -14.911  59.265   9.217  0.00  0.00    -0.075 N 
ATOM     35  H6  DN3 d         -14.578  59.695  10.066  0.00  0.00     0.279 HD
BRANCH  34  36
ATOM     36  C23 DN3 d         -15.286  60.308   8.247  0.00  0.00     0.066 C 
ATOM     37  H7  DN3 d         -16.136  59.958   7.642  0.00  0.00     0.068 H 
ATOM     38  H8  DN3 d         -14.431  60.521   7.589  0.00  0.00     0.068 H 
ATOM     39  H9  DN3 d         -15.572  61.223   8.786  0.00  0.00     0.068 H 
ENDBRANCH  34  36
BRANCH  34  40
ATOM     40  C24 DN3 d         -16.096  58.449   9.523  0.00  0.00     0.066 C 
ATOM     41  H10 DN3 d         -16.104  57.559   8.877  0.00  0.00     0.068 H 
ATOM     42  H11 DN3 d         -17.005  59.043   9.342  0.00  0.00     0.068 H 
ATOM     43  H12 DN3 d         -16.065  58.137  10.578  0.00  0.00     0.068 H 
ENDBRANCH  34  40
ENDBRANCH  31  34
ENDBRANCH   5  31
TORSDOF 7
ENDMDL
MODEL 6
REMARK VINA RESULT:      -5.8      2.478      9.023
REMARK  7 active torsions:
REMARK  status: ('A' for Active; 'I' for Inactive)
REMARK    1  A    between atoms: C13_2  and  C15_3 
REMARK       I    between atoms: C13_2  and  N12_13 
REMARK    2  A    between atoms: C19_7  and  C21_8 
REMARK    3  A    between atoms: C21_8  and  N22_9 
REMARK    4  A    between atoms: N22_9  and  C23_10 
REMARK    5  A    between atoms: N22_9  and  C24_11 
REMARK    6  A    between atoms: N12_13  and  C10_14 
REMARK    7  A    between atoms: C6_16  and  C2_20 
ROOT
ATOM      1  C15 DN3 d          -6.742  54.126  13.011  0.00  0.00     0.032 A 
ATOM      2  C16 DN3 d          -6.692  53.682  14.331  0.00  0.00    -0.068 A 
ATOM      3  C17 DN3 d          -5.668  52.819  14.722  0.00  0.00    -0.081 A 
ATOM      4  C18 DN3 d          -4.724  52.368  13.807  0.00  0.00    -0.075 A 
ATOM      5  C19 DN3 d          -4.718  52.897  12.515  0.00  0.00    -0.032 A 
ATOM      6  C20 DN3 d          -5.741  53.750  12.122  0.00  0.00    -0.060 A 
ATOM      7  H1  DN3 d          -7.440  54.003  15.046  0.00  0.00     0.085 H 
ATOM      8  H2  DN3 d          -5.608  52.495  15.755  0.00  0.00     0.083 H 
ATOM      9  H3  DN3 d          -4.000  51.615  14.094  0.00  0.00     0.084 H 
ATOM     10  H13 DN3 d          -5.758  54.129  11.106  0.00  0.00     0.086 H 
ENDROOT
BRANCH   1  11
ATOM     11  C13 DN3 d          -7.780  55.133  12.570  0.00  0.00     0.256 C 
ATOM     12  O14 DN3 d          -8.320  55.846  13.411  0.00  0.00    -0.267 OA
ATOM     13  N12 DN3 d          -8.072  55.220  11.266  0.00  0.00    -0.323 N 
ATOM     14  H14 DN3 d          -7.551  54.648  10.633  0.00  0.00     0.169 HD
BRANCH  13  15
ATOM     15  C10 DN3 d          -9.068  56.064  10.724  0.00  0.00     0.035 A 
ATOM     16  C11 DN3 d         -10.391  55.640  10.806  0.00  0.00    -0.043 A 
ATOM     17  C6  DN3 d         -11.421  56.437  10.318  0.00  0.00     0.017 A 
ATOM     18  H15 DN3 d         -10.620  54.681  11.255  0.00  0.00     0.088 H 
ATOM     19  C7  DN3 d         -11.143  57.671   9.740  0.00  0.00    -0.069 A 
ATOM     20  C8  DN3 d          -9.830  58.112   9.676  0.00  0.00    -0.080 A 
ATOM     21  H16 DN3 d         -11.945  58.282   9.342  0.00  0.00     0.085 H 
ATOM     22  C9  DN3 d          -8.786  57.301  10.143  0.00  0.00    -0.057 A 
ATOM     23  H17 DN3 d          -9.609  59.090   9.264  0.00  0.00     0.083 H 
ATOM     24  H18 DN3 d          -7.759  57.635  10.052  0.00  0.00     0.086 H 
BRANCH  17  25
ATOM     25  C2  DN3 d         -12.825  55.971  10.404  0.00  0.00     0.198 A 
ATOM     26  N1  DN3 d         -13.589  55.616   9.351  0.00  0.00    -0.139 NA
ATOM     27  N5  DN3 d         -14.851  55.264   9.815  0.00  0.00    -0.200 N 
ATOM     28  N4  DN3 d         -14.820  55.405  11.203  0.00  0.00     0.022 NA
ATOM     29  H19 DN3 d         -15.652  54.957   9.244  0.00  0.00     0.208 HD
ATOM     30  N3  DN3 d         -13.547  55.865  11.544  0.00  0.00    -0.136 NA
ENDBRANCH  17  25
ENDBRANCH  13  15
ENDBRANCH   1  11
BRANCH   5  31
ATOM     31  C21 DN3 d          -3.680  52.455  11.497  0.00  0.00     0.106 C 
ATOM     32  H4  DN3 d          -4.149  52.344  10.509  0.00  0.00     0.083 H 
ATOM     33  H5  DN3 d          -3.239  51.494  11.804  0.00  0.00     0.083 H 
BRANCH  31  34
ATOM     34  N22 DN3 d          -2.630  53.492  11.440  0.00  0.00    -0.075 N 
ATOM     35  H6  DN3 d          -3.034  54.354  11.110  0.00  0.00     0.279 HD
BRANCH  34  36
ATOM     36  C23 DN3 d          -2.090  53.684  12.797  0.00  0.00     0.066 C 
ATOM     37  H7  DN3 d          -1.293  54.442  12.771  0.00  0.00     0.068 H 
ATOM     38  H8  DN3 d          -1.680  52.733  13.166  0.00  0.00     0.068 H 
ATOM     39  H9  DN3 d          -2.894  54.021  13.468  0.00  0.00     0.068 H 
ENDBRANCH  34  36
BRANCH  34  40
ATOM     40  C24 DN3 d          -1.534  53.098  10.542  0.00  0.00     0.066 C 
ATOM     41  H10 DN3 d          -1.314  52.029  10.679  0.00  0.00     0.068 H 
ATOM     42  H11 DN3 d          -0.637  53.690  10.778  0.00  0.00     0.068 H 
ATOM     43  H12 DN3 d          -1.831  53.280   9.499  0.00  0.00     0.068 H 
ENDBRANCH  34  40
ENDBRANCH  31  34
ENDBRANCH   5  31
TORSDOF 7
ENDMDL
MODEL 7
REMARK VINA RESULT:      -5.5      2.130      2.692
REMARK  7 active torsions:
REMARK  status: ('A' for Active; 'I' for Inactive)
REMARK    1  A    between atoms: C13_2  and  C15_3 
REMARK       I    between atoms: C13_2  and  N12_13 
REMARK    2  A    between atoms: C19_7  and  C21_8 
REMARK    3  A    between atoms: C21_8  and  N22_9 
REMARK    4  A    between atoms: N22_9  and  C23_10 
REMARK    5  A    between atoms: N22_9  and  C24_11 
REMARK    6  A    between atoms: N12_13  and  C10_14 
REMARK    7  A    between atoms: C6_16  and  C2_20 
ROOT
ATOM      1  C15 DN3 d         -12.126  57.938   9.578  0.00  0.00     0.032 A 
ATOM      2  C16 DN3 d         -12.884  57.740   8.426  0.00  0.00    -0.068 A 
ATOM      3  C17 DN3 d         -14.128  58.361   8.312  0.00  0.00    -0.081 A 
ATOM      4  C18 DN3 d         -14.636  59.140   9.345  0.00  0.00    -0.075 A 
ATOM      5  C19 DN3 d         -13.831  59.419  10.450  0.00  0.00    -0.032 A 
ATOM      6  C20 DN3 d         -12.595  58.796  10.569  0.00  0.00    -0.060 A 
ATOM      7  H1  DN3 d         -12.511  57.111   7.626  0.00  0.00     0.085 H 
ATOM      8  H2  DN3 d         -14.707  58.234   7.404  0.00  0.00     0.083 H 
ATOM      9  H3  DN3 d         -15.647  59.528   9.292  0.00  0.00     0.084 H 
ATOM     10  H13 DN3 d         -11.987  58.981  11.447  0.00  0.00     0.086 H 
ENDROOT
BRANCH   1  11
ATOM     11  C13 DN3 d         -10.736  57.359   9.702  0.00  0.00     0.256 C 
ATOM     12  O14 DN3 d          -9.770  58.040   9.369  0.00  0.00    -0.267 OA
ATOM     13  N12 DN3 d         -10.602  56.116  10.181  0.00  0.00    -0.323 N 
ATOM     14  H14 DN3 d         -11.428  55.643  10.486  0.00  0.00     0.169 HD
BRANCH  13  15
ATOM     15  C10 DN3 d          -9.372  55.427  10.285  0.00  0.00     0.035 A 
ATOM     16  C11 DN3 d          -8.714  55.458  11.511  0.00  0.00    -0.043 A 
ATOM     17  C6  DN3 d          -7.515  54.776  11.689  0.00  0.00     0.017 A 
ATOM     18  H15 DN3 d          -9.141  56.019  12.335  0.00  0.00     0.088 H 
ATOM     19  C7  DN3 d          -6.955  54.052  10.642  0.00  0.00    -0.069 A 
ATOM     20  C8  DN3 d          -7.617  53.995   9.425  0.00  0.00    -0.080 A 
ATOM     21  H16 DN3 d          -6.011  53.538  10.776  0.00  0.00     0.085 H 
ATOM     22  C9  DN3 d          -8.812  54.702   9.233  0.00  0.00    -0.057 A 
ATOM     23  H17 DN3 d          -7.207  53.400   8.617  0.00  0.00     0.083 H 
ATOM     24  H18 DN3 d          -9.301  54.686   8.266  0.00  0.00     0.086 H 
BRANCH  17  25
ATOM     25  C2  DN3 d          -6.820  54.825  12.996  0.00  0.00     0.198 A 
ATOM     26  N1  DN3 d          -6.822  55.879  13.837  0.00  0.00    -0.139 NA
ATOM     27  N5  DN3 d          -6.043  55.569  14.944  0.00  0.00    -0.200 N 
ATOM     28  N4  DN3 d          -5.575  54.268  14.752  0.00  0.00     0.022 NA
ATOM     29  H19 DN3 d          -5.849  56.180  15.751  0.00  0.00     0.208 HD
ATOM     30  N3  DN3 d          -6.061  53.832  13.518  0.00  0.00    -0.136 NA
ENDBRANCH  17  25
ENDBRANCH  13  15
ENDBRANCH   1  11
BRANCH   5  31
ATOM     31  C21 DN3 d         -14.338  60.296  11.583  0.00  0.00     0.106 C 
ATOM     32  H4  DN3 d         -14.439  61.334  11.236  0.00  0.00     0.083 H 
ATOM     33  H5  DN3 d         -13.635  60.259  12.429  0.00  0.00     0.083 H 
BRANCH  31  34
ATOM     34  N22 DN3 d         -15.654  59.776  12.003  0.00  0.00    -0.075 N 
ATOM     35  H6  DN3 d         -16.203  59.562  11.185  0.00  0.00     0.279 HD
BRANCH  34  36
ATOM     36  C23 DN3 d         -15.443  58.550  12.793  0.00  0.00     0.066 C 
ATOM     37  H7  DN3 d         -14.589  58.694  13.471  0.00  0.00     0.068 H 
ATOM     38  H8  DN3 d         -15.235  57.709  12.115  0.00  0.00     0.068 H 
ATOM     39  H9  DN3 d         -16.346  58.333  13.381  0.00  0.00     0.068 H 
ENDBRANCH  34  36
BRANCH  34  40
ATOM     40  C24 DN3 d         -16.380  60.754  12.828  0.00  0.00     0.066 C 
ATOM     41  H10 DN3 d         -17.447  60.738  12.562  0.00  0.00     0.068 H 
ATOM     42  H11 DN3 d         -15.972  61.760  12.646  0.00  0.00     0.068 H 
ATOM     43  H12 DN3 d         -16.263  60.497  13.891  0.00  0.00     0.068 H 
ENDBRANCH  34  40
ENDBRANCH  31  34
ENDBRANCH   5  31
TORSDOF 7
ENDMDL
MODEL 8
REMARK VINA RESULT:      -5.5      2.416      8.559
REMARK  7 active torsions:
REMARK  status: ('A' for Active; 'I' for Inactive)
REMARK    1  A    between atoms: C13_2  and  C15_3 
REMARK       I    between atoms: C13_2  and  N12_13 
REMARK    2  A    between atoms: C19_7  and  C21_8 
REMARK    3  A    between atoms: C21_8  and  N22_9 
REMARK    4  A    between atoms: N22_9  and  C23_10 
REMARK    5  A    between atoms: N22_9  and  C24_11 
REMARK    6  A    between atoms: N12_13  and  C10_14 
REMARK    7  A    between atoms: C6_16  and  C2_20 
ROOT
ATOM      1  C15 DN3 d          -7.662  55.222  12.633  0.00  0.00     0.032 A 
ATOM      2  C16 DN3 d          -6.517  55.504  13.375  0.00  0.00    -0.068 A 
ATOM      3  C17 DN3 d          -5.388  54.700  13.221  0.00  0.00    -0.081 A 
ATOM      4  C18 DN3 d          -5.402  53.603  12.367  0.00  0.00    -0.075 A 
ATOM      5  C19 DN3 d          -6.513  53.387  11.551  0.00  0.00    -0.032 A 
ATOM      6  C20 DN3 d          -7.641  54.181  11.708  0.00  0.00    -0.060 A 
ATOM      7  H1  DN3 d          -6.504  56.340  14.066  0.00  0.00     0.085 H 
ATOM      8  H2  DN3 d          -4.485  54.935  13.774  0.00  0.00     0.083 H 
ATOM      9  H3  DN3 d          -4.559  52.922  12.337  0.00  0.00     0.084 H 
ATOM     10  H13 DN3 d          -8.519  53.988  11.102  0.00  0.00     0.086 H 
ENDROOT
BRANCH   1  11
ATOM     11  C13 DN3 d          -8.874  56.122  12.702  0.00  0.00     0.256 C 
ATOM     12  O14 DN3 d          -9.455  56.265  13.774  0.00  0.00    -0.267 OA
ATOM     13  N12 DN3 d          -9.272  56.745  11.586  0.00  0.00    -0.323 N 
ATOM     14  H14 DN3 d          -8.716  56.627  10.763  0.00  0.00     0.169 HD
BRANCH  13  15
ATOM     15  C10 DN3 d         -10.425  57.558  11.490  0.00  0.00     0.035 A 
ATOM     16  C11 DN3 d         -11.630  57.026  11.939  0.00  0.00    -0.043 A 
ATOM     17  C6  DN3 d         -12.796  57.784  11.900  0.00  0.00     0.017 A 
ATOM     18  H15 DN3 d         -11.660  56.013  12.321  0.00  0.00     0.088 H 
ATOM     19  C7  DN3 d         -12.774  59.086  11.412  0.00  0.00    -0.069 A 
ATOM     20  C8  DN3 d         -11.572  59.632  10.987  0.00  0.00    -0.080 A 
ATOM     21  H16 DN3 d         -13.686  59.668  11.364  0.00  0.00     0.085 H 
ATOM     22  C9  DN3 d         -10.400  58.863  10.999  0.00  0.00    -0.057 A 
ATOM     23  H17 DN3 d         -11.539  60.659  10.643  0.00  0.00     0.083 H 
ATOM     24  H18 DN3 d          -9.473  59.284  10.626  0.00  0.00     0.086 H 
BRANCH  17  25
ATOM     25  C2  DN3 d         -14.075  57.203  12.372  0.00  0.00     0.198 A 
ATOM     26  N1  DN3 d         -15.206  57.900  12.597  0.00  0.00    -0.139 NA
ATOM     27  N5  DN3 d         -16.184  57.027  13.057  0.00  0.00    -0.200 N 
ATOM     28  N4  DN3 d         -15.604  55.758  13.090  0.00  0.00     0.022 NA
ATOM     29  H19 DN3 d         -17.150  57.269  13.322  0.00  0.00     0.208 HD
ATOM     30  N3  DN3 d         -14.279  55.898  12.673  0.00  0.00    -0.136 NA
ENDBRANCH  17  25
ENDBRANCH  13  15
ENDBRANCH   1  11
BRANCH   5  31
ATOM     31  C21 DN3 d          -6.552  52.218  10.580  0.00  0.00     0.106 C 
ATOM     32  H4  DN3 d          -7.515  51.695  10.663  0.00  0.00     0.083 H 
ATOM     33  H5  DN3 d          -5.733  51.518  10.805  0.00  0.00     0.083 H 
BRANCH  31  34
ATOM     34  N22 DN3 d          -6.389  52.757   9.215  0.00  0.00    -0.075 N 
ATOM     35  H6  DN3 d          -6.257  53.755   9.266  0.00  0.00     0.279 HD
BRANCH  34  36
ATOM     36  C23 DN3 d          -5.204  52.131   8.604  0.00  0.00     0.066 C 
ATOM     37  H7  DN3 d          -5.204  51.053   8.824  0.00  0.00     0.068 H 
ATOM     38  H8  DN3 d          -4.294  52.590   9.015  0.00  0.00     0.068 H 
ATOM     39  H9  DN3 d          -5.231  52.283   7.514  0.00  0.00     0.068 H 
ENDBRANCH  34  36
BRANCH  34  40
ATOM     40  C24 DN3 d          -7.565  52.468   8.380  0.00  0.00     0.066 C 
ATOM     41  H10 DN3 d          -7.965  51.478   8.641  0.00  0.00     0.068 H 
ATOM     42  H11 DN3 d          -7.272  52.479   7.320  0.00  0.00     0.068 H 
ATOM     43  H12 DN3 d          -8.337  53.233   8.556  0.00  0.00     0.068 H 
ENDBRANCH  34  40
ENDBRANCH  31  34
ENDBRANCH   5  31
TORSDOF 7
ENDMDL
MODEL 9
REMARK VINA RESULT:      -5.4      2.014      2.386
REMARK  7 active torsions:
REMARK  status: ('A' for Active; 'I' for Inactive)
REMARK    1  A    between atoms: C13_2  and  C15_3 
REMARK       I    between atoms: C13_2  and  N12_13 
REMARK    2  A    between atoms: C19_7  and  C21_8 
REMARK    3  A    between atoms: C21_8  and  N22_9 
REMARK    4  A    between atoms: N22_9  and  C23_10 
REMARK    5  A    between atoms: N22_9  and  C24_11 
REMARK    6  A    between atoms: N12_13  and  C10_14 
REMARK    7  A    between atoms: C6_16  and  C2_20 
ROOT
ATOM      1  C15 DN3 d         -10.747  57.026   9.414  0.00  0.00     0.032 A 
ATOM      2  C16 DN3 d         -11.806  56.716   8.564  0.00  0.00    -0.068 A 
ATOM      3  C17 DN3 d         -12.931  57.541   8.545  0.00  0.00    -0.081 A 
ATOM      4  C18 DN3 d         -13.024  58.642   9.389  0.00  0.00    -0.075 A 
ATOM      5  C19 DN3 d         -11.921  59.007  10.160  0.00  0.00    -0.032 A 
ATOM      6  C20 DN3 d         -10.803  58.183  10.186  0.00  0.00    -0.060 A 
ATOM      7  H1  DN3 d         -11.757  55.843   7.923  0.00  0.00     0.085 H 
ATOM      8  H2  DN3 d         -13.744  57.319   7.863  0.00  0.00     0.083 H 
ATOM      9  H3  DN3 d         -13.945  59.211   9.445  0.00  0.00     0.084 H 
ATOM     10  H13 DN3 d          -9.961  58.445  10.818  0.00  0.00     0.086 H 
ENDROOT
BRANCH   1  11
ATOM     11  C13 DN3 d          -9.473  56.212   9.397  0.00  0.00     0.256 C 
ATOM     12  O14 DN3 d          -8.551  56.555   8.664  0.00  0.00    -0.267 OA
ATOM     13  N12 DN3 d          -9.391  55.139  10.195  0.00  0.00    -0.323 N 
ATOM     14  H14 DN3 d         -10.159  54.954  10.807  0.00  0.00     0.169 HD
BRANCH  13  15
ATOM     15  C10 DN3 d          -8.292  54.251  10.230  0.00  0.00     0.035 A 
ATOM     16  C11 DN3 d          -7.376  54.395  11.268  0.00  0.00    -0.043 A 
ATOM     17  C6  DN3 d          -6.289  53.535  11.377  0.00  0.00     0.017 A 
ATOM     18  H15 DN3 d          -7.512  55.185  11.998  0.00  0.00     0.088 H 
ATOM     19  C7  DN3 d          -6.100  52.517  10.449  0.00  0.00    -0.069 A 
ATOM     20  C8  DN3 d          -7.022  52.351   9.426  0.00  0.00    -0.080 A 
ATOM     21  H16 DN3 d          -5.241  51.860  10.523  0.00  0.00     0.085 H 
ATOM     22  C9  DN3 d          -8.104  53.231   9.297  0.00  0.00    -0.057 A 
ATOM     23  H17 DN3 d          -6.904  51.534   8.723  0.00  0.00     0.083 H 
ATOM     24  H18 DN3 d          -8.797  53.120   8.471  0.00  0.00     0.086 H 
BRANCH  17  25
ATOM     25  C2  DN3 d          -5.316  53.705  12.482  0.00  0.00     0.198 A 
ATOM     26  N1  DN3 d          -4.025  54.063  12.330  0.00  0.00    -0.139 NA
ATOM     27  N5  DN3 d          -3.420  54.092  13.580  0.00  0.00    -0.200 N 
ATOM     28  N4  DN3 d          -4.403  53.749  14.508  0.00  0.00     0.022 NA
ATOM     29  H19 DN3 d          -2.436  54.322  13.782  0.00  0.00     0.208 HD
ATOM     30  N3  DN3 d          -5.576  53.495  13.794  0.00  0.00    -0.136 NA
ENDBRANCH  17  25
ENDBRANCH  13  15
ENDBRANCH   1  11
BRANCH   5  31
ATOM     31  C21 DN3 d         -11.973  60.225  11.069  0.00  0.00     0.106 C 
ATOM     32  H4  DN3 d         -12.584  61.012  10.603  0.00  0.00     0.083 H 
ATOM     33  H5  DN3 d         -10.955  60.606  11.243  0.00  0.00     0.083 H 
BRANCH  31  34
ATOM     34  N22 DN3 d         -12.578  59.810  12.349  0.00  0.00    -0.075 N 
ATOM     35  H6  DN3 d         -11.931  59.998  13.099  0.00  0.00     0.279 HD
BRANCH  34  36
ATOM     36  C23 DN3 d         -13.814  60.585  12.554  0.00  0.00     0.066 C 
ATOM     37  H7  DN3 d         -14.422  60.106  13.336  0.00  0.00     0.068 H 
ATOM     38  H8  DN3 d         -14.385  60.619  11.615  0.00  0.00     0.068 H 
ATOM     39  H9  DN3 d         -13.557  61.608  12.865  0.00  0.00     0.068 H 
ENDBRANCH  34  36
BRANCH  34  40
ATOM     40  C24 DN3 d         -12.910  58.376  12.347  0.00  0.00     0.066 C 
ATOM     41  H10 DN3 d         -11.982  57.786  12.321  0.00  0.00     0.068 H 
ATOM     42  H11 DN3 d         -13.518  58.143  11.461  0.00  0.00     0.068 H 
ATOM     43  H12 DN3 d         -13.476  58.129  13.257  0.00  0.00     0.068 H 
ENDBRANCH  34  40
ENDBRANCH  31  34
ENDBRANCH   5  31
TORSDOF 7
ENDMDL
MODEL 10
REMARK VINA RESULT:      -5.1      1.834      2.928
REMARK  7 active torsions:
REMARK  status: ('A' for Active; 'I' for Inactive)
REMARK    1  A    between atoms: C13_2  and  C15_3 
REMARK       I    between atoms: C13_2  and  N12_13 
REMARK    2  A    between atoms: C19_7  and  C21_8 
REMARK    3  A    between atoms: C21_8  and  N22_9 
REMARK    4  A    between atoms: N22_9  and  C23_10 
REMARK    5  A    between atoms: N22_9  and  C24_11 
REMARK    6  A    between atoms: N12_13  and  C10_14 
REMARK    7  A    between atoms: C6_16  and  C2_20 
ROOT
ATOM      1  C15 DN3 d         -12.672  57.746  12.027  0.00  0.00     0.032 A 
ATOM      2  C16 DN3 d         -13.533  56.692  12.326  0.00  0.00    -0.068 A 
ATOM      3  C17 DN3 d         -14.904  56.932  12.409  0.00  0.00    -0.081 A 
ATOM      4  C18 DN3 d         -15.418  58.212  12.235  0.00  0.00    -0.075 A 
ATOM      5  C19 DN3 d         -14.566  59.241  11.834  0.00  0.00    -0.032 A 
ATOM      6  C20 DN3 d         -13.199  59.006  11.758  0.00  0.00    -0.060 A 
ATOM      7  H1  DN3 d         -13.140  55.695  12.493  0.00  0.00     0.085 H 
ATOM      8  H2  DN3 d         -15.579  56.108  12.613  0.00  0.00     0.083 H 
ATOM      9  H3  DN3 d         -16.470  58.408  12.409  0.00  0.00     0.084 H 
ATOM     10  H13 DN3 d         -12.533  59.817  11.485  0.00  0.00     0.086 H 
ENDROOT
BRANCH   1  11
ATOM     11  C13 DN3 d         -11.192  57.510  11.837  0.00  0.00     0.256 C 
ATOM     12  O14 DN3 d         -10.416  58.457  11.934  0.00  0.00    -0.267 OA
ATOM     13  N12 DN3 d         -10.771  56.266  11.575  0.00  0.00    -0.323 N 
ATOM     14  H14 DN3 d         -11.454  55.536  11.568  0.00  0.00     0.169 HD
BRANCH  13  15
ATOM     15  C10 DN3 d          -9.428  55.915  11.308  0.00  0.00     0.035 A 
ATOM     16  C11 DN3 d          -8.682  55.374  12.350  0.00  0.00    -0.043 A 
ATOM     17  C6  DN3 d          -7.363  54.980  12.146  0.00  0.00     0.017 A 
ATOM     18  H15 DN3 d          -9.131  55.258  13.329  0.00  0.00     0.088 H 
ATOM     19  C7  DN3 d          -6.771  55.122  10.895  0.00  0.00    -0.069 A 
ATOM     20  C8  DN3 d          -7.517  55.637   9.845  0.00  0.00    -0.080 A 
ATOM     21  H16 DN3 d          -5.738  54.833  10.743  0.00  0.00     0.085 H 
ATOM     22  C9  DN3 d          -8.837  56.060  10.053  0.00  0.00    -0.057 A 
ATOM     23  H17 DN3 d          -7.075  55.713   8.858  0.00  0.00     0.083 H 
ATOM     24  H18 DN3 d          -9.399  56.499   9.237  0.00  0.00     0.086 H 
BRANCH  17  25
ATOM     25  C2  DN3 d          -6.576  54.413  13.266  0.00  0.00     0.198 A 
ATOM     26  N1  DN3 d          -7.044  53.536  14.176  0.00  0.00    -0.139 NA
ATOM     27  N5  DN3 d          -6.031  53.254  15.086  0.00  0.00    -0.200 N 
ATOM     28  N4  DN3 d          -4.916  53.989  14.682  0.00  0.00     0.022 NA
ATOM     29  H19 DN3 d          -6.093  52.626  15.899  0.00  0.00     0.208 HD
ATOM     30  N3  DN3 d          -5.287  54.719  13.551  0.00  0.00    -0.136 NA
ENDBRANCH  17  25
ENDBRANCH  13  15
ENDBRANCH   1  11
BRANCH   5  31
ATOM     31  C21 DN3 d         -15.097  60.646  11.599  0.00  0.00     0.106 C 
ATOM     32  H4  DN3 d         -14.269  61.369  11.636  0.00  0.00     0.083 H 
ATOM     33  H5  DN3 d         -15.840  60.899  12.370  0.00  0.00     0.083 H 
BRANCH  31  34
ATOM     34  N22 DN3 d         -15.729  60.675  10.265  0.00  0.00    -0.075 N 
ATOM     35  H6  DN3 d         -16.325  61.485  10.198  0.00  0.00     0.279 HD
BRANCH  34  36
ATOM     36  C23 DN3 d         -14.668  60.754   9.247  0.00  0.00     0.066 C 
ATOM     37  H7  DN3 d         -15.062  61.243   8.344  0.00  0.00     0.068 H 
ATOM     38  H8  DN3 d         -14.325  59.740   8.995  0.00  0.00     0.068 H 
ATOM     39  H9  DN3 d         -13.824  61.339   9.642  0.00  0.00     0.068 H 
ENDBRANCH  34  36
BRANCH  34  40
ATOM     40  C24 DN3 d         -16.531  59.465  10.025  0.00  0.00     0.066 C 
ATOM     41  H10 DN3 d         -16.147  58.942   9.137  0.00  0.00     0.068 H 
ATOM     42  H11 DN3 d         -17.581  59.749   9.859  0.00  0.00     0.068 H 
ATOM     43  H12 DN3 d         -16.464  58.801  10.900  0.00  0.00     0.068 H 
ENDBRANCH  34  40
ENDBRANCH  31  34
ENDBRANCH   5  31
TORSDOF 7
ENDMDL
