MODEL 1
REMARK VINA RESULT:     -11.2      0.000      0.000
REMARK  1 active torsions:
REMARK  status: ('A' for Active; 'I' for Inactive)
REMARK    1  A    between atoms: CAI_24  and  OAJ_25 
ROOT
ATOM      1  CAV SY9 d         -42.624   7.219 -16.997  0.00  0.00     0.118 C 
ATOM      2  CAU SY9 d         -41.720   6.825 -18.171  0.00  0.00    -0.030 C 
ATOM      3  CAT SY9 d         -40.533   6.021 -17.663  0.00  0.00    -0.021 C 
ATOM      4  CAN SY9 d         -41.049   4.705 -17.076  0.00  0.00    -0.001 C 
ATOM      5  CAK SY9 d         -42.016   4.922 -15.917  0.00  0.00     0.034 C 
ATOM      6  NAH SY9 d         -42.822   3.692 -15.857  0.00  0.00    -0.347 N 
ATOM      7  CAA SY9 d         -44.168   3.937 -16.113  0.00  0.00     0.040 A 
ATOM      8  CAF SY9 d         -45.206   3.022 -16.295  0.00  0.00    -0.057 A 
ATOM      9  CAE SY9 d         -46.478   3.457 -16.629  0.00  0.00    -0.081 A 
ATOM     10  CAD SY9 d         -46.695   4.815 -16.820  0.00  0.00    -0.082 A 
ATOM     11  CAC SY9 d         -45.653   5.729 -16.672  0.00  0.00    -0.074 A 
ATOM     12  CAB SY9 d         -44.373   5.294 -16.362  0.00  0.00    -0.019 A 
ATOM     13  CAG SY9 d         -43.058   6.046 -16.076  0.00  0.00     0.040 C 
ATOM     14  CAW SY9 d         -43.276   6.754 -14.740  0.00  0.00    -0.027 C 
ATOM     15  CAX SY9 d         -42.027   7.622 -14.694  0.00  0.00     0.085 C 
ATOM     16  NAY SY9 d         -41.896   8.155 -16.078  0.00  0.00    -0.062 N 
ATOM     17  CAS SY9 d         -40.449   8.264 -16.343  0.00  0.00     0.104 C 
ATOM     18  CAR SY9 d         -39.890   6.870 -16.607  0.00  0.00    -0.051 C 
ATOM     19  CAQ SY9 d         -38.826   6.509 -15.799  0.00  0.00    -0.076 C 
ATOM     20  CAP SY9 d         -38.231   5.256 -15.908  0.00  0.00     0.035 C 
ATOM     21  OAO SY9 d         -39.036   4.084 -15.633  0.00  0.00    -0.382 OA
ATOM     22  CAM SY9 d         -39.974   3.684 -16.630  0.00  0.00     0.049 C 
ATOM     23  CAL SY9 d         -40.608   2.471 -15.861  0.00  0.00     0.000 C 
ATOM     24  CAI SY9 d         -42.138   2.485 -15.913  0.00  0.00     0.105 C 
ATOM     25  H1  SY9 d         -43.519   7.708 -17.407  0.00  0.00     0.086 H 
ATOM     26  H2  SY9 d         -41.357   7.734 -18.673  0.00  0.00     0.037 H 
ATOM     27  H3  SY9 d         -42.293   6.217 -18.886  0.00  0.00     0.037 H 
ATOM     28  H4  SY9 d         -39.821   5.814 -18.475  0.00  0.00     0.048 H 
ATOM     29  H5  SY9 d         -41.616   4.223 -17.885  0.00  0.00     0.048 H 
ATOM     30  H6  SY9 d         -41.443   5.083 -14.992  0.00  0.00     0.075 H 
ATOM     31  H7  SY9 d         -45.015   1.962 -16.174  0.00  0.00     0.086 H 
ATOM     32  H8  SY9 d         -47.292   2.748 -16.739  0.00  0.00     0.083 H 
ATOM     33  H9  SY9 d         -47.684   5.169 -17.088  0.00  0.00     0.083 H 
ATOM     34  H10 SY9 d         -45.845   6.788 -16.799  0.00  0.00     0.084 H 
ATOM     35  H11 SY9 d         -43.310   6.043 -13.901  0.00  0.00     0.037 H 
ATOM     36  H12 SY9 d         -44.195   7.360 -14.744  0.00  0.00     0.037 H 
ATOM     37  H13 SY9 d         -41.145   7.023 -14.423  0.00  0.00     0.076 H 
ATOM     38  H14 SY9 d         -42.149   8.442 -13.972  0.00  0.00     0.076 H 
ATOM     39  H15 SY9 d         -42.315   9.070 -16.146  0.00  0.00     0.280 HD
ATOM     40  H16 SY9 d         -39.946   8.703 -15.469  0.00  0.00     0.083 H 
ATOM     41  H17 SY9 d         -40.282   8.901 -17.224  0.00  0.00     0.083 H 
ATOM     42  H18 SY9 d         -38.448   7.219 -15.064  0.00  0.00     0.080 H 
ATOM     43  H19 SY9 d         -37.382   5.238 -15.210  0.00  0.00     0.080 H 
ATOM     44  H20 SY9 d         -37.860   5.162 -16.939  0.00  0.00     0.080 H 
ATOM     45  H21 SY9 d         -39.441   3.351 -17.534  0.00  0.00     0.084 H 
ATOM     46  H22 SY9 d         -40.289   2.514 -14.810  0.00  0.00     0.043 H 
ATOM     47  H23 SY9 d         -40.247   1.537 -16.316  0.00  0.00     0.043 H 
ATOM     48  H24 SY9 d         -42.126   2.503 -17.012  0.00  0.00     0.117 H 
ENDROOT
BRANCH  24  49
ATOM     49  OAJ SY9 d         -42.855   1.328 -15.903  0.00  0.00    -0.377 OA
ATOM     50  H25 SY9 d         -43.611   1.429 -15.338  0.00  0.00     0.212 HD
ENDBRANCH  24  49
TORSDOF 1
ENDMDL
MODEL 2
REMARK VINA RESULT:     -10.7      1.299      4.828
REMARK  1 active torsions:
REMARK  status: ('A' for Active; 'I' for Inactive)
REMARK    1  A    between atoms: CAI_24  and  OAJ_25 
ROOT
ATOM      1  CAV SY9 d         -41.515   7.275 -16.015  0.00  0.00     0.118 C 
ATOM      2  CAU SY9 d         -42.358   7.146 -14.740  0.00  0.00    -0.030 C 
ATOM      3  CAT SY9 d         -43.498   6.166 -14.971  0.00  0.00    -0.021 C 
ATOM      4  CAN SY9 d         -42.906   4.777 -15.220  0.00  0.00    -0.001 C 
ATOM      5  CAK SY9 d         -41.986   4.743 -16.436  0.00  0.00     0.034 C 
ATOM      6  NAH SY9 d         -41.098   3.592 -16.210  0.00  0.00    -0.347 N 
ATOM      7  CAA SY9 d         -39.766   3.977 -16.086  0.00  0.00     0.040 A 
ATOM      8  CAF SY9 d         -38.661   3.207 -15.718  0.00  0.00    -0.057 A 
ATOM      9  CAE SY9 d         -37.415   3.791 -15.564  0.00  0.00    -0.081 A 
ATOM     10  CAD SY9 d         -37.290   5.163 -15.740  0.00  0.00    -0.082 A 
ATOM     11  CAC SY9 d         -38.397   5.941 -16.075  0.00  0.00    -0.074 A 
ATOM     12  CAB SY9 d         -39.651   5.362 -16.205  0.00  0.00    -0.019 A 
ATOM     13  CAG SY9 d         -41.023   5.931 -16.619  0.00  0.00     0.040 C 
ATOM     14  CAW SY9 d         -40.890   6.277 -18.101  0.00  0.00    -0.027 C 
ATOM     15  CAX SY9 d         -42.199   7.025 -18.315  0.00  0.00     0.085 C 
ATOM     16  NAY SY9 d         -42.331   7.892 -17.112  0.00  0.00    -0.062 N 
ATOM     17  CAS SY9 d         -43.774   7.976 -16.822  0.00  0.00     0.104 C 
ATOM     18  CAR SY9 d         -44.226   6.669 -16.182  0.00  0.00    -0.051 C 
ATOM     19  CAQ SY9 d         -45.283   6.044 -16.822  0.00  0.00    -0.076 C 
ATOM     20  CAP SY9 d         -45.784   4.829 -16.367  0.00  0.00     0.035 C 
ATOM     21  OAO SY9 d         -44.906   3.677 -16.363  0.00  0.00    -0.382 OA
ATOM     22  CAM SY9 d         -43.917   3.611 -15.339  0.00  0.00     0.049 C 
ATOM     23  CAL SY9 d         -43.219   2.281 -15.794  0.00  0.00     0.000 C 
ATOM     24  CAI SY9 d         -41.693   2.401 -15.814  0.00  0.00     0.105 C 
ATOM     25  H1  SY9 d         -40.646   7.908 -15.785  0.00  0.00     0.086 H 
ATOM     26  H2  SY9 d         -42.771   8.131 -14.476  0.00  0.00     0.037 H 
ATOM     27  H3  SY9 d         -41.725   6.783 -13.918  0.00  0.00     0.037 H 
ATOM     28  H4  SY9 d         -44.172   6.134 -14.103  0.00  0.00     0.048 H 
ATOM     29  H5  SY9 d         -42.285   4.558 -14.338  0.00  0.00     0.048 H 
ATOM     30  H6  SY9 d         -42.593   4.621 -17.345  0.00  0.00     0.075 H 
ATOM     31  H7  SY9 d         -38.780   2.142 -15.551  0.00  0.00     0.086 H 
ATOM     32  H8  SY9 d         -36.551   3.188 -15.310  0.00  0.00     0.083 H 
ATOM     33  H9  SY9 d         -36.322   5.635 -15.616  0.00  0.00     0.083 H 
ATOM     34  H10 SY9 d         -38.277   7.006 -16.234  0.00  0.00     0.084 H 
ATOM     35  H11 SY9 d         -40.828   5.375 -18.727  0.00  0.00     0.037 H 
ATOM     36  H12 SY9 d         -40.017   6.918 -18.294  0.00  0.00     0.037 H 
ATOM     37  H13 SY9 d         -43.042   6.322 -18.383  0.00  0.00     0.076 H 
ATOM     38  H14 SY9 d         -42.153   7.634 -19.230  0.00  0.00     0.076 H 
ATOM     39  H15 SY9 d         -41.976   8.816 -17.302  0.00  0.00     0.280 HD
ATOM     40  H16 SY9 d         -44.330   8.141 -17.757  0.00  0.00     0.083 H 
ATOM     41  H17 SY9 d         -43.964   8.810 -16.130  0.00  0.00     0.083 H 
ATOM     42  H18 SY9 d         -45.729   6.513 -17.699  0.00  0.00     0.080 H 
ATOM     43  H19 SY9 d         -46.648   4.577 -16.999  0.00  0.00     0.080 H 
ATOM     44  H20 SY9 d         -46.121   4.984 -15.331  0.00  0.00     0.080 H 
ATOM     45  H21 SY9 d         -44.401   3.493 -14.357  0.00  0.00     0.084 H 
ATOM     46  H22 SY9 d         -43.567   2.027 -16.806  0.00  0.00     0.043 H 
ATOM     47  H23 SY9 d         -43.500   1.477 -15.098  0.00  0.00     0.043 H 
ATOM     48  H24 SY9 d         -41.678   2.705 -14.757  0.00  0.00     0.117 H 
ENDROOT
BRANCH  24  49
ATOM     49  OAJ SY9 d         -40.897   1.328 -15.555  0.00  0.00    -0.377 OA
ATOM     50  H25 SY9 d         -40.037   1.473 -15.934  0.00  0.00     0.212 HD
ENDBRANCH  24  49
TORSDOF 1
ENDMDL
MODEL 3
REMARK VINA RESULT:      -9.4      1.803      3.296
REMARK  1 active torsions:
REMARK  status: ('A' for Active; 'I' for Inactive)
REMARK    1  A    between atoms: CAI_24  and  OAJ_25 
ROOT
ATOM      1  CAV SY9 d         -44.034   6.239 -16.686  0.00  0.00     0.118 C 
ATOM      2  CAU SY9 d         -43.618   6.569 -18.125  0.00  0.00    -0.030 C 
ATOM      3  CAT SY9 d         -42.319   7.360 -18.119  0.00  0.00    -0.021 C 
ATOM      4  CAN SY9 d         -41.207   6.471 -17.559  0.00  0.00    -0.001 C 
ATOM      5  CAK SY9 d         -41.494   6.004 -16.136  0.00  0.00     0.034 C 
ATOM      6  NAH SY9 d         -40.698   4.777 -15.969  0.00  0.00    -0.347 N 
ATOM      7  CAA SY9 d         -41.501   3.661 -15.752  0.00  0.00     0.040 A 
ATOM      8  CAF SY9 d         -41.134   2.315 -15.702  0.00  0.00    -0.057 A 
ATOM      9  CAE SY9 d         -42.096   1.328 -15.560  0.00  0.00    -0.081 A 
ATOM     10  CAD SY9 d         -43.434   1.696 -15.510  0.00  0.00    -0.082 A 
ATOM     11  CAC SY9 d         -43.806   3.036 -15.593  0.00  0.00    -0.074 A 
ATOM     12  CAB SY9 d         -42.847   4.024 -15.761  0.00  0.00    -0.019 A 
ATOM     13  CAG SY9 d         -42.936   5.563 -15.820  0.00  0.00     0.040 C 
ATOM     14  CAW SY9 d         -43.325   6.003 -14.410  0.00  0.00    -0.027 C 
ATOM     15  CAX SY9 d         -43.601   7.479 -14.662  0.00  0.00     0.085 C 
ATOM     16  NAY SY9 d         -44.360   7.500 -15.943  0.00  0.00    -0.062 N 
ATOM     17  CAS SY9 d         -43.959   8.737 -16.639  0.00  0.00     0.104 C 
ATOM     18  CAR SY9 d         -42.568   8.542 -17.230  0.00  0.00    -0.051 C 
ATOM     19  CAQ SY9 d         -41.637   9.494 -16.850  0.00  0.00    -0.076 C 
ATOM     20  CAP SY9 d         -40.319   9.428 -17.291  0.00  0.00     0.035 C 
ATOM     21  OAO SY9 d         -39.522   8.278 -16.916  0.00  0.00    -0.382 OA
ATOM     22  CAM SY9 d         -39.774   7.054 -17.602  0.00  0.00     0.049 C 
ATOM     23  CAL SY9 d         -38.755   6.151 -16.821  0.00  0.00     0.000 C 
ATOM     24  CAI SY9 d         -39.373   4.821 -16.382  0.00  0.00     0.105 C 
ATOM     25  H1  SY9 d         -44.916   5.584 -16.729  0.00  0.00     0.086 H 
ATOM     26  H2  SY9 d         -44.407   7.166 -18.605  0.00  0.00     0.037 H 
ATOM     27  H3  SY9 d         -43.474   5.635 -18.687  0.00  0.00     0.037 H 
ATOM     28  H4  SY9 d         -42.056   7.692 -19.134  0.00  0.00     0.048 H 
ATOM     29  H5  SY9 d         -41.195   5.575 -18.197  0.00  0.00     0.048 H 
ATOM     30  H6  SY9 d         -41.189   6.790 -15.429  0.00  0.00     0.075 H 
ATOM     31  H7  SY9 d         -40.089   2.039 -15.775  0.00  0.00     0.086 H 
ATOM     32  H8  SY9 d         -41.809   0.285 -15.488  0.00  0.00     0.083 H 
ATOM     33  H9  SY9 d         -44.197   0.934 -15.406  0.00  0.00     0.083 H 
ATOM     34  H10 SY9 d         -44.853   3.309 -15.527  0.00  0.00     0.084 H 
ATOM     35  H11 SY9 d         -42.502   5.859 -13.695  0.00  0.00     0.037 H 
ATOM     36  H12 SY9 d         -44.221   5.476 -14.050  0.00  0.00     0.037 H 
ATOM     37  H13 SY9 d         -42.659   8.041 -14.759  0.00  0.00     0.076 H 
ATOM     38  H14 SY9 d         -44.201   7.907 -13.847  0.00  0.00     0.076 H 
ATOM     39  H15 SY9 d         -45.352   7.527 -15.765  0.00  0.00     0.280 HD
ATOM     40  H16 SY9 d         -43.942   9.574 -15.925  0.00  0.00     0.083 H 
ATOM     41  H17 SY9 d         -44.675   8.956 -17.445  0.00  0.00     0.083 H 
ATOM     42  H18 SY9 d         -41.943  10.309 -16.195  0.00  0.00     0.080 H 
ATOM     43  H19 SY9 d         -39.803  10.320 -16.906  0.00  0.00     0.080 H 
ATOM     44  H20 SY9 d         -40.341   9.463 -18.390  0.00  0.00     0.080 H 
ATOM     45  H21 SY9 d         -39.491   7.154 -18.661  0.00  0.00     0.084 H 
ATOM     46  H22 SY9 d         -38.413   6.695 -15.928  0.00  0.00     0.043 H 
ATOM     47  H23 SY9 d         -37.895   5.942 -17.474  0.00  0.00     0.043 H 
ATOM     48  H24 SY9 d         -39.652   4.580 -17.418  0.00  0.00     0.117 H 
ENDROOT
BRANCH  24  49
ATOM     49  OAJ SY9 d         -38.620   3.692 -16.282  0.00  0.00    -0.377 OA
ATOM     50  H25 SY9 d         -38.998   3.011 -16.828  0.00  0.00     0.212 HD
ENDBRANCH  24  49
TORSDOF 1
ENDMDL
MODEL 4
REMARK VINA RESULT:      -8.3      1.722      2.634
REMARK  1 active torsions:
REMARK  status: ('A' for Active; 'I' for Inactive)
REMARK    1  A    between atoms: CAI_24  and  OAJ_25 
ROOT
ATOM      1  CAV SY9 d         -40.901   7.669 -17.357  0.00  0.00     0.118 C 
ATOM      2  CAU SY9 d         -40.594   6.640 -18.451  0.00  0.00    -0.030 C 
ATOM      3  CAT SY9 d         -40.448   5.258 -17.834  0.00  0.00    -0.021 C 
ATOM      4  CAN SY9 d         -41.795   4.842 -17.240  0.00  0.00    -0.001 C 
ATOM      5  CAK SY9 d         -42.279   5.804 -16.160  0.00  0.00     0.034 C 
ATOM      6  NAH SY9 d         -43.739   5.624 -16.114  0.00  0.00    -0.347 N 
ATOM      7  CAA SY9 d         -44.419   6.785 -16.471  0.00  0.00     0.040 A 
ATOM      8  CAF SY9 d         -45.785   6.967 -16.694  0.00  0.00    -0.057 A 
ATOM      9  CAE SY9 d         -46.271   8.189 -17.130  0.00  0.00    -0.081 A 
ATOM     10  CAD SY9 d         -45.372   9.218 -17.382  0.00  0.00    -0.082 A 
ATOM     11  CAC SY9 d         -44.004   9.029 -17.193  0.00  0.00    -0.074 A 
ATOM     12  CAB SY9 d         -43.513   7.799 -16.780  0.00  0.00    -0.019 A 
ATOM     13  CAG SY9 d         -42.094   7.310 -16.429  0.00  0.00     0.040 C 
ATOM     14  CAW SY9 d         -41.722   8.033 -15.136  0.00  0.00    -0.027 C 
ATOM     15  CAX SY9 d         -40.252   7.650 -15.033  0.00  0.00     0.085 C 
ATOM     16  NAY SY9 d         -39.735   7.791 -16.422  0.00  0.00    -0.062 N 
ATOM     17  CAS SY9 d         -38.710   6.743 -16.588  0.00  0.00     0.104 C 
ATOM     18  CAR SY9 d         -39.405   5.398 -16.765  0.00  0.00    -0.051 C 
ATOM     19  CAQ SY9 d         -39.007   4.418 -15.873  0.00  0.00    -0.076 C 
ATOM     20  CAP SY9 d         -39.574   3.148 -15.898  0.00  0.00     0.035 C 
ATOM     21  OAO SY9 d         -40.994   3.021 -15.640  0.00  0.00    -0.382 OA
ATOM     22  CAM SY9 d         -41.886   3.399 -16.686  0.00  0.00     0.049 C 
ATOM     23  CAL SY9 d         -43.236   3.154 -15.923  0.00  0.00     0.000 C 
ATOM     24  CAI SY9 d         -44.215   4.320 -16.081  0.00  0.00     0.105 C 
ATOM     25  H1  SY9 d         -41.101   8.635 -17.844  0.00  0.00     0.086 H 
ATOM     26  H2  SY9 d         -39.656   6.915 -18.957  0.00  0.00     0.037 H 
ATOM     27  H3  SY9 d         -41.414   6.629 -19.183  0.00  0.00     0.037 H 
ATOM     28  H4  SY9 d         -40.129   4.522 -18.587  0.00  0.00     0.048 H 
ATOM     29  H5  SY9 d         -42.514   4.900 -18.070  0.00  0.00     0.048 H 
ATOM     30  H6  SY9 d         -41.803   5.542 -15.203  0.00  0.00     0.075 H 
ATOM     31  H7  SY9 d         -46.471   6.146 -16.525  0.00  0.00     0.086 H 
ATOM     32  H8  SY9 d         -47.335   8.340 -17.273  0.00  0.00     0.083 H 
ATOM     33  H9  SY9 d         -45.738  10.177 -17.730  0.00  0.00     0.083 H 
ATOM     34  H10 SY9 d         -43.319   9.850 -17.369  0.00  0.00     0.084 H 
ATOM     35  H11 SY9 d         -42.301   7.662 -14.278  0.00  0.00     0.037 H 
ATOM     36  H12 SY9 d         -41.855   9.122 -15.224  0.00  0.00     0.037 H 
ATOM     37  H13 SY9 d         -40.143   6.613 -14.681  0.00  0.00     0.076 H 
ATOM     38  H14 SY9 d         -39.720   8.327 -14.349  0.00  0.00     0.076 H 
ATOM     39  H15 SY9 d         -39.308   8.696 -16.549  0.00  0.00     0.280 HD
ATOM     40  H16 SY9 d         -38.066   6.711 -15.697  0.00  0.00     0.083 H 
ATOM     41  H17 SY9 d         -38.099   6.962 -17.476  0.00  0.00     0.083 H 
ATOM     42  H18 SY9 d         -38.235   4.646 -15.138  0.00  0.00     0.080 H 
ATOM     43  H19 SY9 d         -39.052   2.544 -15.142  0.00  0.00     0.080 H 
ATOM     44  H20 SY9 d         -39.386   2.727 -16.896  0.00  0.00     0.080 H 
ATOM     45  H21 SY9 d         -41.778   2.712 -17.539  0.00  0.00     0.084 H 
ATOM     46  H22 SY9 d         -43.017   3.019 -14.853  0.00  0.00     0.043 H 
ATOM     47  H23 SY9 d         -43.705   2.242 -16.319  0.00  0.00     0.043 H 
ATOM     48  H24 SY9 d         -44.172   4.240 -17.177  0.00  0.00     0.117 H 
ENDROOT
BRANCH  24  49
ATOM     49  OAJ SY9 d         -45.561   4.116 -16.082  0.00  0.00    -0.377 OA
ATOM     50  H25 SY9 d         -45.966   4.680 -15.434  0.00  0.00     0.212 HD
ENDBRANCH  24  49
TORSDOF 1
ENDMDL
MODEL 5
REMARK VINA RESULT:      -8.3      2.207      4.333
REMARK  1 active torsions:
REMARK  status: ('A' for Active; 'I' for Inactive)
REMARK    1  A    between atoms: CAI_24  and  OAJ_25 
ROOT
ATOM      1  CAV SY9 d         -41.059   6.285 -15.949  0.00  0.00     0.118 C 
ATOM      2  CAU SY9 d         -41.695   7.164 -14.866  0.00  0.00    -0.030 C 
ATOM      3  CAT SY9 d         -42.912   7.881 -15.431  0.00  0.00    -0.021 C 
ATOM      4  CAN SY9 d         -43.971   6.837 -15.792  0.00  0.00    -0.001 C 
ATOM      5  CAK SY9 d         -43.474   5.837 -16.831  0.00  0.00     0.034 C 
ATOM      6  NAH SY9 d         -44.315   4.644 -16.645  0.00  0.00    -0.347 N 
ATOM      7  CAA SY9 d         -43.570   3.538 -16.246  0.00  0.00     0.040 A 
ATOM      8  CAF SY9 d         -44.019   2.284 -15.827  0.00  0.00    -0.057 A 
ATOM      9  CAE SY9 d         -43.122   1.328 -15.382  0.00  0.00    -0.081 A 
ATOM     10  CAD SY9 d         -41.772   1.650 -15.319  0.00  0.00    -0.082 A 
ATOM     11  CAC SY9 d         -41.324   2.912 -15.705  0.00  0.00    -0.074 A 
ATOM     12  CAB SY9 d         -42.224   3.880 -16.128  0.00  0.00    -0.019 A 
ATOM     13  CAG SY9 d         -42.035   5.312 -16.667  0.00  0.00     0.040 C 
ATOM     14  CAW SY9 d         -41.375   5.149 -18.034  0.00  0.00    -0.027 C 
ATOM     15  CAX SY9 d         -41.041   6.602 -18.341  0.00  0.00     0.085 C 
ATOM     16  NAY SY9 d         -40.517   7.141 -17.055  0.00  0.00    -0.062 N 
ATOM     17  CAS SY9 d         -40.943   8.551 -16.996  0.00  0.00     0.104 C 
ATOM     18  CAR SY9 d         -42.427   8.605 -16.651  0.00  0.00    -0.051 C 
ATOM     19  CAQ SY9 d         -43.205   9.320 -17.545  0.00  0.00    -0.076 C 
ATOM     20  CAP SY9 d         -44.581   9.432 -17.373  0.00  0.00     0.035 C 
ATOM     21  OAO SY9 d         -45.381   8.225 -17.405  0.00  0.00    -0.382 OA
ATOM     22  CAM SY9 d         -45.343   7.383 -16.255  0.00  0.00     0.049 C 
ATOM     23  CAL SY9 d         -46.273   6.237 -16.792  0.00  0.00     0.000 C 
ATOM     24  CAI SY9 d         -45.685   4.845 -16.543  0.00  0.00     0.105 C 
ATOM     25  H1  SY9 d         -40.248   5.706 -15.485  0.00  0.00     0.086 H 
ATOM     26  H2  SY9 d         -40.960   7.908 -14.522  0.00  0.00     0.037 H 
ATOM     27  H3  SY9 d         -42.002   6.535 -14.018  0.00  0.00     0.037 H 
ATOM     28  H4  SY9 d         -43.324   8.592 -14.700  0.00  0.00     0.048 H 
ATOM     29  H5  SY9 d         -44.159   6.274 -14.866  0.00  0.00     0.048 H 
ATOM     30  H6  SY9 d         -43.593   6.270 -17.835  0.00  0.00     0.075 H 
ATOM     31  H7  SY9 d         -45.079   2.057 -15.850  0.00  0.00     0.086 H 
ATOM     32  H8  SY9 d         -43.467   0.343 -15.086  0.00  0.00     0.083 H 
ATOM     33  H9  SY9 d         -41.060   0.913 -14.966  0.00  0.00     0.083 H 
ATOM     34  H10 SY9 d         -40.265   3.139 -15.675  0.00  0.00     0.084 H 
ATOM     35  H11 SY9 d         -42.068   4.725 -18.775  0.00  0.00     0.037 H 
ATOM     36  H12 SY9 d         -40.471   4.525 -17.979  0.00  0.00     0.037 H 
ATOM     37  H13 SY9 d         -41.941   7.151 -18.655  0.00  0.00     0.076 H 
ATOM     38  H14 SY9 d         -40.277   6.668 -19.130  0.00  0.00     0.076 H 
ATOM     39  H15 SY9 d         -39.510   7.097 -17.038  0.00  0.00     0.280 HD
ATOM     40  H16 SY9 d         -40.774   9.030 -17.972  0.00  0.00     0.083 H 
ATOM     41  H17 SY9 d         -40.365   9.079 -16.223  0.00  0.00     0.083 H 
ATOM     42  H18 SY9 d         -42.731   9.803 -18.399  0.00  0.00     0.080 H 
ATOM     43  H19 SY9 d         -44.956  10.091 -18.169  0.00  0.00     0.080 H 
ATOM     44  H20 SY9 d         -44.749   9.907 -16.395  0.00  0.00     0.080 H 
ATOM     45  H21 SY9 d         -45.799   7.899 -15.397  0.00  0.00     0.084 H 
ATOM     46  H22 SY9 d         -46.413   6.373 -17.874  0.00  0.00     0.043 H 
ATOM     47  H23 SY9 d         -47.246   6.305 -16.285  0.00  0.00     0.043 H 
ATOM     48  H24 SY9 d         -45.610   5.043 -15.463  0.00  0.00     0.117 H 
ENDROOT
BRANCH  24  49
ATOM     49  OAJ SY9 d         -46.489   3.768 -16.327  0.00  0.00    -0.377 OA
ATOM     50  H25 SY9 d         -47.054   3.940 -15.582  0.00  0.00     0.212 HD
ENDBRANCH  24  49
TORSDOF 1
ENDMDL
