MODEL 1
REMARK VINA RESULT:      -6.3      0.000      0.000
REMARK  5 active torsions:
REMARK  status: ('A' for Active; 'I' for Inactive)
REMARK    1  A    between atoms: N_1  and  CA_2 
REMARK    2  A    between atoms: CA_2  and  C_3 
REMARK    3  A    between atoms: CA_2  and  CB_6 
REMARK    4  A    between atoms: CB_6  and  CG_7 
REMARK    5  A    between atoms: CD2_9  and  CE2_10 
ROOT
ATOM      1  CB  MOL d          45.103  26.298  42.011  0.00  0.00     0.002 C 
ATOM      2  H5  MOL d          44.134  26.813  41.934  0.00  0.00     0.044 H 
ATOM      3  H6  MOL d          44.986  25.385  42.614  0.00  0.00     0.044 H 
ENDROOT
BRANCH   1   4
ATOM      4  CA  MOL d          46.100  27.237  42.735  0.00  0.00     0.186 C 
ATOM      5  H4  MOL d          45.531  28.007  43.276  0.00  0.00     0.101 H 
BRANCH   4   6
ATOM      6  N   MOL d          46.995  27.894  41.730  0.00  0.00    -0.065 N 
ATOM      7  H1  MOL d          47.869  28.138  42.168  0.00  0.00     0.275 HD
ATOM      8  H2  MOL d          46.551  28.728  41.379  0.00  0.00     0.275 HD
ATOM      9  H3  MOL d          47.168  27.258  40.967  0.00  0.00     0.275 HD
ENDBRANCH   4   6
BRANCH   4  10
ATOM     10  C   MOL d          47.000  26.449  43.761  0.00  0.00     0.204 C 
ATOM     11  OT1 MOL d          46.914  26.768  44.979  0.00  0.00    -0.646 OA
ATOM     12  OT2 MOL d          47.800  25.593  43.286  0.00  0.00    -0.646 OA
ENDBRANCH   4  10
ENDBRANCH   1   4
BRANCH   1  13
ATOM     13  CG  MOL d          45.542  25.900  40.630  0.00  0.00     0.031 A 
ATOM     14  CD1 MOL d          45.418  26.635  39.420  0.00  0.00     0.207 A 
ATOM     15  OE1 MOL d          44.736  27.781  39.485  0.00  0.00    -0.170 OA
ATOM     16  NE1 MOL d          45.943  26.146  38.335  0.00  0.00    -0.236 N 
ATOM     17  OE2 MOL d          46.500  24.910  38.836  0.00  0.00    -0.240 OA
ATOM     18  H10 MOL d          45.958  26.521  37.409  0.00  0.00     0.197 HD
ATOM     19  CD2 MOL d          46.235  24.817  40.185  0.00  0.00     0.083 A 
BRANCH  19  20
ATOM     20  CE2 MOL d          46.670  23.559  40.846  0.00  0.00    -0.029 C 
ATOM     21  H7  MOL d          46.166  22.704  40.372  0.00  0.00     0.036 H 
ATOM     22  H8  MOL d          46.406  23.596  41.913  0.00  0.00     0.036 H 
ATOM     23  H9  MOL d          47.759  23.447  40.741  0.00  0.00     0.036 H 
ENDBRANCH  19  20
ENDBRANCH   1  13
TORSDOF 5
ENDMDL
MODEL 2
REMARK VINA RESULT:      -6.2      1.727      4.881
REMARK  5 active torsions:
REMARK  status: ('A' for Active; 'I' for Inactive)
REMARK    1  A    between atoms: N_1  and  CA_2 
REMARK    2  A    between atoms: CA_2  and  C_3 
REMARK    3  A    between atoms: CA_2  and  CB_6 
REMARK    4  A    between atoms: CB_6  and  CG_7 
REMARK    5  A    between atoms: CD2_9  and  CE2_10 
ROOT
ATOM      1  CB  MOL d          46.580  25.018  40.986  0.00  0.00     0.002 C 
ATOM      2  H5  MOL d          47.402  25.352  40.335  0.00  0.00     0.044 H 
ATOM      3  H6  MOL d          46.830  24.039  41.419  0.00  0.00     0.044 H 
ENDROOT
BRANCH   1   4
ATOM      4  CA  MOL d          45.305  24.859  40.120  0.00  0.00     0.186 C 
ATOM      5  H4  MOL d          44.471  25.368  40.623  0.00  0.00     0.101 H 
BRANCH   4   6
ATOM      6  N   MOL d          44.980  23.406  39.964  0.00  0.00    -0.065 N 
ATOM      7  H1  MOL d          45.240  22.912  40.803  0.00  0.00     0.275 HD
ATOM      8  H2  MOL d          45.490  23.029  39.181  0.00  0.00     0.275 HD
ATOM      9  H3  MOL d          43.990  23.298  39.805  0.00  0.00     0.275 HD
ENDBRANCH   4   6
BRANCH   4  10
ATOM     10  C   MOL d          45.496  25.481  38.685  0.00  0.00     0.204 C 
ATOM     11  OT1 MOL d          46.347  26.405  38.558  0.00  0.00    -0.646 OA
ATOM     12  OT2 MOL d          44.736  25.059  37.768  0.00  0.00    -0.646 OA
ENDBRANCH   4  10
ENDBRANCH   1   4
BRANCH   1  13
ATOM     13  CG  MOL d          46.430  26.008  42.106  0.00  0.00     0.031 A 
ATOM     14  CD1 MOL d          47.085  26.019  43.368  0.00  0.00     0.207 A 
ATOM     15  OE1 MOL d          47.857  24.967  43.647  0.00  0.00    -0.170 OA
ATOM     16  NE1 MOL d          46.877  27.021  44.170  0.00  0.00    -0.236 N 
ATOM     17  OE2 MOL d          45.957  27.813  43.386  0.00  0.00    -0.240 OA
ATOM     18  H10 MOL d          47.251  27.196  45.081  0.00  0.00     0.197 HD
ATOM     19  CD2 MOL d          45.730  27.172  42.187  0.00  0.00     0.083 A 
BRANCH  19  20
ATOM     20  CE2 MOL d          44.736  27.814  41.288  0.00  0.00    -0.029 C 
ATOM     21  H7  MOL d          44.840  27.402  40.274  0.00  0.00     0.036 H 
ATOM     22  H8  MOL d          44.913  28.900  41.263  0.00  0.00     0.036 H 
ATOM     23  H9  MOL d          43.721  27.617  41.662  0.00  0.00     0.036 H 
ENDBRANCH  19  20
ENDBRANCH   1  13
TORSDOF 5
ENDMDL
MODEL 3
REMARK VINA RESULT:      -5.9      1.575      2.550
REMARK  5 active torsions:
REMARK  status: ('A' for Active; 'I' for Inactive)
REMARK    1  A    between atoms: N_1  and  CA_2 
REMARK    2  A    between atoms: CA_2  and  C_3 
REMARK    3  A    between atoms: CA_2  and  CB_6 
REMARK    4  A    between atoms: CB_6  and  CG_7 
REMARK    5  A    between atoms: CD2_9  and  CE2_10 
ROOT
ATOM      1  CB  MOL d          45.451  26.057  41.960  0.00  0.00     0.002 C 
ATOM      2  H5  MOL d          44.929  27.012  42.117  0.00  0.00     0.044 H 
ATOM      3  H6  MOL d          44.949  25.265  42.536  0.00  0.00     0.044 H 
ENDROOT
BRANCH   1   4
ATOM      4  CA  MOL d          46.901  26.199  42.487  0.00  0.00     0.186 C 
ATOM      5  H4  MOL d          47.419  26.965  41.891  0.00  0.00     0.101 H 
BRANCH   4   6
ATOM      6  N   MOL d          47.619  24.893  42.350  0.00  0.00    -0.065 N 
ATOM      7  H1  MOL d          47.365  24.289  43.115  0.00  0.00     0.275 HD
ATOM      8  H2  MOL d          48.614  25.053  42.364  0.00  0.00     0.275 HD
ATOM      9  H3  MOL d          47.360  24.457  41.478  0.00  0.00     0.275 HD
ENDBRANCH   4   6
BRANCH   4  10
ATOM     10  C   MOL d          46.928  26.624  44.004  0.00  0.00     0.204 C 
ATOM     11  OT1 MOL d          47.741  26.028  44.763  0.00  0.00    -0.646 OA
ATOM     12  OT2 MOL d          46.084  27.490  44.375  0.00  0.00    -0.646 OA
ENDBRANCH   4  10
ENDBRANCH   1   4
BRANCH   1  13
ATOM     13  CG  MOL d          45.370  25.706  40.501  0.00  0.00     0.031 A 
ATOM     14  CD1 MOL d          45.560  24.438  39.887  0.00  0.00     0.207 A 
ATOM     15  OE1 MOL d          45.964  23.444  40.683  0.00  0.00    -0.170 OA
ATOM     16  NE1 MOL d          45.359  24.328  38.607  0.00  0.00    -0.236 N 
ATOM     17  OE2 MOL d          44.989  25.684  38.271  0.00  0.00    -0.240 OA
ATOM     18  H10 MOL d          45.439  23.525  38.016  0.00  0.00     0.197 HD
ATOM     19  CD2 MOL d          45.013  26.448  39.418  0.00  0.00     0.083 A 
BRANCH  19  20
ATOM     20  CE2 MOL d          44.736  27.896  39.237  0.00  0.00    -0.029 C 
ATOM     21  H7  MOL d          44.898  28.171  38.185  0.00  0.00     0.036 H 
ATOM     22  H8  MOL d          45.412  28.481  39.878  0.00  0.00     0.036 H 
ATOM     23  H9  MOL d          43.692  28.107  39.515  0.00  0.00     0.036 H 
ENDBRANCH  19  20
ENDBRANCH   1  13
TORSDOF 5
ENDMDL
MODEL 4
REMARK VINA RESULT:      -5.7      1.624      4.340
REMARK  5 active torsions:
REMARK  status: ('A' for Active; 'I' for Inactive)
REMARK    1  A    between atoms: N_1  and  CA_2 
REMARK    2  A    between atoms: CA_2  and  C_3 
REMARK    3  A    between atoms: CA_2  and  CB_6 
REMARK    4  A    between atoms: CB_6  and  CG_7 
REMARK    5  A    between atoms: CD2_9  and  CE2_10 
ROOT
ATOM      1  CB  MOL d          44.983  25.065  40.473  0.00  0.00     0.002 C 
ATOM      2  H5  MOL d          44.856  23.973  40.428  0.00  0.00     0.044 H 
ATOM      3  H6  MOL d          44.027  25.534  40.748  0.00  0.00     0.044 H 
ENDROOT
BRANCH   1   4
ATOM      4  CA  MOL d          45.390  25.570  39.066  0.00  0.00     0.186 C 
ATOM      5  H4  MOL d          44.575  25.346  38.362  0.00  0.00     0.101 H 
BRANCH   4   6
ATOM      6  N   MOL d          46.638  24.873  38.621  0.00  0.00    -0.065 N 
ATOM      7  H1  MOL d          46.972  24.277  39.362  0.00  0.00     0.275 HD
ATOM      8  H2  MOL d          47.343  25.557  38.396  0.00  0.00     0.275 HD
ATOM      9  H3  MOL d          46.438  24.315  37.806  0.00  0.00     0.275 HD
ENDBRANCH   4   6
BRANCH   4  10
ATOM     10  C   MOL d          45.659  27.122  39.063  0.00  0.00     0.204 C 
ATOM     11  OT1 MOL d          44.736  27.877  39.475  0.00  0.00    -0.646 OA
ATOM     12  OT2 MOL d          46.761  27.514  38.583  0.00  0.00    -0.646 OA
ENDBRANCH   4  10
ENDBRANCH   1   4
BRANCH   1  13
ATOM     13  CG  MOL d          45.990  25.381  41.543  0.00  0.00     0.031 A 
ATOM     14  CD1 MOL d          47.180  24.675  41.871  0.00  0.00     0.207 A 
ATOM     15  OE1 MOL d          47.388  23.526  41.224  0.00  0.00    -0.170 OA
ATOM     16  NE1 MOL d          47.966  25.166  42.783  0.00  0.00    -0.236 N 
ATOM     17  OE2 MOL d          47.243  26.362  43.151  0.00  0.00    -0.240 OA
ATOM     18  H10 MOL d          48.834  24.814  43.133  0.00  0.00     0.197 HD
ATOM     19  CD2 MOL d          46.093  26.437  42.395  0.00  0.00     0.083 A 
BRANCH  19  20
ATOM     20  CE2 MOL d          45.186  27.571  42.707  0.00  0.00    -0.029 C 
ATOM     21  H7  MOL d          45.693  28.520  42.477  0.00  0.00     0.036 H 
ATOM     22  H8  MOL d          44.921  27.545  43.774  0.00  0.00     0.036 H 
ATOM     23  H9  MOL d          44.272  27.488  42.099  0.00  0.00     0.036 H 
ENDBRANCH  19  20
ENDBRANCH   1  13
TORSDOF 5
ENDMDL
MODEL 5
REMARK VINA RESULT:      -5.6      1.699      4.257
REMARK  5 active torsions:
REMARK  status: ('A' for Active; 'I' for Inactive)
REMARK    1  A    between atoms: N_1  and  CA_2 
REMARK    2  A    between atoms: CA_2  and  C_3 
REMARK    3  A    between atoms: CA_2  and  CB_6 
REMARK    4  A    between atoms: CB_6  and  CG_7 
REMARK    5  A    between atoms: CD2_9  and  CE2_10 
ROOT
ATOM      1  CB  MOL d          45.128  26.282  41.012  0.00  0.00     0.002 C 
ATOM      2  H5  MOL d          44.327  25.537  41.125  0.00  0.00     0.044 H 
ATOM      3  H6  MOL d          44.725  27.287  41.204  0.00  0.00     0.044 H 
ENDROOT
BRANCH   1   4
ATOM      4  CA  MOL d          45.640  26.232  39.550  0.00  0.00     0.186 C 
ATOM      5  H4  MOL d          46.736  26.150  39.562  0.00  0.00     0.101 H 
BRANCH   4   6
ATOM      6  N   MOL d          45.242  27.485  38.833  0.00  0.00    -0.065 N 
ATOM      7  H1  MOL d          45.294  28.266  39.468  0.00  0.00     0.275 HD
ATOM      8  H2  MOL d          44.299  27.391  38.491  0.00  0.00     0.275 HD
ATOM      9  H3  MOL d          45.868  27.640  38.058  0.00  0.00     0.275 HD
ENDBRANCH   4   6
BRANCH   4  10
ATOM     10  C   MOL d          45.042  25.001  38.768  0.00  0.00     0.204 C 
ATOM     11  OT1 MOL d          44.737  23.976  39.438  0.00  0.00    -0.646 OA
ATOM     12  OT2 MOL d          44.970  25.098  37.510  0.00  0.00    -0.646 OA
ENDBRANCH   4  10
ENDBRANCH   1   4
BRANCH   1  13
ATOM     13  CG  MOL d          46.191  25.995  42.034  0.00  0.00     0.031 A 
ATOM     14  CD1 MOL d          46.516  26.737  43.202  0.00  0.00     0.207 A 
ATOM     15  OE1 MOL d          45.873  27.895  43.370  0.00  0.00    -0.170 OA
ATOM     16  NE1 MOL d          47.422  26.268  44.009  0.00  0.00    -0.236 N 
ATOM     17  OE2 MOL d          47.789  25.048  43.326  0.00  0.00    -0.240 OA
ATOM     18  H10 MOL d          47.769  26.647  44.866  0.00  0.00     0.197 HD
ATOM     19  CD2 MOL d          47.038  24.939  42.176  0.00  0.00     0.083 A 
BRANCH  19  20
ATOM     20  CE2 MOL d          47.350  23.775  41.307  0.00  0.00    -0.029 C 
ATOM     21  H7  MOL d          47.460  22.873  41.927  0.00  0.00     0.036 H 
ATOM     22  H8  MOL d          48.288  23.964  40.764  0.00  0.00     0.036 H 
ATOM     23  H9  MOL d          46.532  23.625  40.586  0.00  0.00     0.036 H 
ENDBRANCH  19  20
ENDBRANCH   1  13
TORSDOF 5
ENDMDL
MODEL 6
REMARK VINA RESULT:      -4.6      1.393      1.407
REMARK  5 active torsions:
REMARK  status: ('A' for Active; 'I' for Inactive)
REMARK    1  A    between atoms: N_1  and  CA_2 
REMARK    2  A    between atoms: CA_2  and  C_3 
REMARK    3  A    between atoms: CA_2  and  CB_6 
REMARK    4  A    between atoms: CB_6  and  CG_7 
REMARK    5  A    between atoms: CD2_9  and  CE2_10 
ROOT
ATOM      1  CB  MOL d          46.819  25.309  41.958  0.00  0.00     0.002 C 
ATOM      2  H5  MOL d          47.013  24.237  42.110  0.00  0.00     0.044 H 
ATOM      3  H6  MOL d          47.773  25.858  41.957  0.00  0.00     0.044 H 
ENDROOT
BRANCH   1   4
ATOM      4  CA  MOL d          45.960  25.824  43.139  0.00  0.00     0.186 C 
ATOM      5  H4  MOL d          45.389  24.980  43.554  0.00  0.00     0.101 H 
BRANCH   4   6
ATOM      6  N   MOL d          45.012  26.876  42.654  0.00  0.00    -0.065 N 
ATOM      7  H1  MOL d          45.177  27.051  41.676  0.00  0.00     0.275 HD
ATOM      8  H2  MOL d          45.158  27.726  43.176  0.00  0.00     0.275 HD
ATOM      9  H3  MOL d          44.064  26.560  42.784  0.00  0.00     0.275 HD
ENDBRANCH   4   6
BRANCH   4  10
ATOM     10  C   MOL d          46.854  26.447  44.278  0.00  0.00     0.204 C 
ATOM     11  OT1 MOL d          46.549  27.598  44.695  0.00  0.00    -0.646 OA
ATOM     12  OT2 MOL d          47.859  25.778  44.652  0.00  0.00    -0.646 OA
ENDBRANCH   4  10
ENDBRANCH   1   4
BRANCH   1  13
ATOM     13  CG  MOL d          46.169  25.488  40.615  0.00  0.00     0.031 A 
ATOM     14  CD1 MOL d          46.034  26.679  39.851  0.00  0.00     0.207 A 
ATOM     15  OE1 MOL d          46.442  27.809  40.433  0.00  0.00    -0.170 OA
ATOM     16  NE1 MOL d          45.509  26.603  38.663  0.00  0.00    -0.236 N 
ATOM     17  OE2 MOL d          45.230  25.188  38.579  0.00  0.00    -0.240 OA
ATOM     18  H10 MOL d          45.344  27.326  37.993  0.00  0.00     0.197 HD
ATOM     19  CD2 MOL d          45.635  24.584  39.749  0.00  0.00     0.083 A 
BRANCH  19  20
ATOM     20  CE2 MOL d          45.344  23.131  39.862  0.00  0.00    -0.029 C 
ATOM     21  H7  MOL d          44.504  22.979  40.556  0.00  0.00     0.036 H 
ATOM     22  H8  MOL d          46.234  22.608  40.244  0.00  0.00     0.036 H 
ATOM     23  H9  MOL d          45.079  22.732  38.872  0.00  0.00     0.036 H 
ENDBRANCH  19  20
ENDBRANCH   1  13
TORSDOF 5
ENDMDL
MODEL 7
REMARK VINA RESULT:      -4.1      2.018      4.353
REMARK  5 active torsions:
REMARK  status: ('A' for Active; 'I' for Inactive)
REMARK    1  A    between atoms: N_1  and  CA_2 
REMARK    2  A    between atoms: CA_2  and  C_3 
REMARK    3  A    between atoms: CA_2  and  CB_6 
REMARK    4  A    between atoms: CB_6  and  CG_7 
REMARK    5  A    between atoms: CD2_9  and  CE2_10 
ROOT
ATOM      1  CB  MOL d          46.945  25.544  41.173  0.00  0.00     0.002 C 
ATOM      2  H5  MOL d          46.835  26.045  40.200  0.00  0.00     0.044 H 
ATOM      3  H6  MOL d          48.013  25.449  41.418  0.00  0.00     0.044 H 
ENDROOT
BRANCH   1   4
ATOM      4  CA  MOL d          46.340  24.122  41.064  0.00  0.00     0.186 C 
ATOM      5  H4  MOL d          45.733  23.927  41.960  0.00  0.00     0.101 H 
BRANCH   4   6
ATOM      6  N   MOL d          47.440  23.111  40.977  0.00  0.00    -0.065 N 
ATOM      7  H1  MOL d          47.378  22.622  40.099  0.00  0.00     0.275 HD
ATOM      8  H2  MOL d          47.352  22.452  41.735  0.00  0.00     0.275 HD
ATOM      9  H3  MOL d          48.332  23.578  41.039  0.00  0.00     0.275 HD
ENDBRANCH   4   6
BRANCH   4  10
ATOM     10  C   MOL d          45.429  23.976  39.786  0.00  0.00     0.204 C 
ATOM     11  OT1 MOL d          44.743  22.923  39.676  0.00  0.00    -0.646 OA
ATOM     12  OT2 MOL d          45.498  24.896  38.921  0.00  0.00    -0.646 OA
ENDBRANCH   4  10
ENDBRANCH   1   4
BRANCH   1  13
ATOM     13  CG  MOL d          46.293  26.399  42.223  0.00  0.00     0.031 A 
ATOM     14  CD1 MOL d          45.214  27.312  42.072  0.00  0.00     0.207 A 
ATOM     15  OE1 MOL d          44.783  27.524  40.826  0.00  0.00    -0.170 OA
ATOM     16  NE1 MOL d          44.736  27.896  43.132  0.00  0.00    -0.236 N 
ATOM     17  OE2 MOL d          45.585  27.334  44.158  0.00  0.00    -0.240 OA
ATOM     18  H10 MOL d          43.987  28.553  43.214  0.00  0.00     0.197 HD
ATOM     19  CD2 MOL d          46.478  26.465  43.569  0.00  0.00     0.083 A 
BRANCH  19  20
ATOM     20  CE2 MOL d          47.485  25.858  44.478  0.00  0.00    -0.029 C 
ATOM     21  H7  MOL d          48.355  26.527  44.559  0.00  0.00     0.036 H 
ATOM     22  H8  MOL d          47.805  24.887  44.073  0.00  0.00     0.036 H 
ATOM     23  H9  MOL d          47.041  25.713  45.473  0.00  0.00     0.036 H 
ENDBRANCH  19  20
ENDBRANCH   1  13
TORSDOF 5
ENDMDL
