REMARK  4 active torsions:
REMARK  status: ('A' for Active; 'I' for Inactive)
REMARK    1  A    between atoms: C15_2  and  C16_23 
REMARK    2  A    between atoms: C04_13  and  C02_11 
REMARK    3  A    between atoms: N08_17  and  C07_16 
REMARK    4  A    between atoms: C09_18  and  N08_17 
ROOT
ATOM      1  C13 ZZL d           0.239  -8.129  -4.330  0.00  0.00     0.043 C 
ATOM      2  C15 ZZL d           1.559 -10.168  -4.377  0.00  0.00     0.079 C 
ATOM      3  C24 ZZL d           2.934  -9.598  -4.624  0.00  0.00     0.007 A 
ATOM      4  C26 ZZL d           5.093  -9.735  -5.653  0.00  0.00     0.035 A 
ATOM      5  C28 ZZL d           5.476  -8.541  -5.011  0.00  0.00    -0.061 A 
ATOM      6  C09 ZZL d           2.476  -6.072  -1.407  0.00  0.00     0.727 A 
ATOM      7  N10 ZZL d           1.101  -5.920  -1.482  0.00  0.00    -0.074 NA
ATOM      8  C11 ZZL d           0.411  -6.600  -2.427  0.00  0.00     0.031 A 
ATOM      9  C12 ZZL d           1.088  -7.423  -3.265  0.00  0.00     0.010 A 
ATOM     10  N14 ZZL d           0.460  -9.551  -4.278  0.00  0.00    -0.283 NA
ATOM     11  C25 ZZL d           3.816 -10.270  -5.452  0.00  0.00    -0.049 A 
ATOM     12 CL1  ZZL d           6.186 -10.582  -6.778  0.00  0.00    -0.084 Cl
ATOM     13  C29 ZZL d           4.582  -7.870  -4.170  0.00  0.00    -0.068 A 
ATOM     14  C30 ZZL d           3.308  -8.412  -3.978  0.00  0.00     0.007 A 
ATOM     15  C31 ZZL d           2.483  -7.585  -3.177  0.00  0.00     0.096 A 
ATOM     16  N32 ZZL d           3.174  -6.913  -2.275  0.00  0.00    -0.061 NA
ATOM     17  H1  ZZL d           0.519  -7.754  -5.325  0.00  0.00     0.074 H 
ATOM     18  H2  ZZL d          -0.825  -7.919  -4.145  0.00  0.00     0.074 H 
ATOM     19  H5  ZZL d           6.470  -8.139  -5.170  0.00  0.00     0.086 H 
ATOM     20  H9  ZZL d          -0.664  -6.489  -2.512  0.00  0.00     0.116 H 
ATOM     21  H11 ZZL d           3.523 -11.194  -5.936  0.00  0.00     0.087 H 
ATOM     22  H12 ZZL d           4.871  -6.949  -3.677  0.00  0.00     0.085 H 
ENDROOT
BRANCH   6  23
ATOM     23  N08 ZZL d           3.216  -5.305  -0.444  0.00  0.00    -0.188 N 
ATOM     24  H8  ZZL d           2.600  -4.834   0.234  0.00  0.00     0.184 HD
BRANCH  23  25
ATOM     25  C07 ZZL d           4.609  -5.033  -0.195  0.00  0.00     0.049 A 
ATOM     26  C06 ZZL d           5.555  -5.982  -0.607  0.00  0.00    -0.056 A 
ATOM     27  C05 ZZL d           6.915  -5.696  -0.481  0.00  0.00    -0.064 A 
ATOM     28  H7  ZZL d           5.232  -6.931  -1.020  0.00  0.00     0.087 H 
ATOM     29  C04 ZZL d           7.302  -4.466   0.058  0.00  0.00     0.041 A 
ATOM     30  H6  ZZL d           7.660  -6.417  -0.796  0.00  0.00     0.085 H 
ATOM     31  C34 ZZL d           6.357  -3.522   0.463  0.00  0.00    -0.064 A 
ATOM     32  C33 ZZL d           4.996  -3.804   0.333  0.00  0.00    -0.056 A 
ATOM     33  H14 ZZL d           6.679  -2.573   0.877  0.00  0.00     0.085 H 
ATOM     34  H13 ZZL d           4.252  -3.077   0.638  0.00  0.00     0.087 H 
BRANCH  29  35
ATOM     35  C02 ZZL d           8.777  -4.154   0.201  0.00  0.00     0.209 C 
ATOM     36  O01 ZZL d           9.569  -4.964  -0.135  0.00  0.00    -0.644 OA
ATOM     37  O03 ZZL d           9.180  -2.923   0.724  0.00  0.00    -0.644 OA
ENDBRANCH  29  35
ENDBRANCH  23  25
ENDBRANCH   6  23
BRANCH   2  38
ATOM     38  C16 ZZL d           1.645 -11.680  -4.221  0.00  0.00     0.070 A 
ATOM     39  C17 ZZL d           1.089 -12.521  -5.188  0.00  0.00     0.132 A 
ATOM     40  F18 ZZL d           0.545 -11.990  -6.317  0.00  0.00    -0.205 F 
ATOM     41  C19 ZZL d           1.123 -13.909  -5.018  0.00  0.00    -0.045 A 
ATOM     42  C20 ZZL d           1.719 -14.468  -3.883  0.00  0.00    -0.077 A 
ATOM     43  H10 ZZL d           0.685 -14.555  -5.770  0.00  0.00     0.088 H 
ATOM     44  C21 ZZL d           2.281 -13.630  -2.914  0.00  0.00    -0.045 A 
ATOM     45  H3  ZZL d           1.745 -15.544  -3.755  0.00  0.00     0.083 H 
ATOM     46  C22 ZZL d           2.239 -12.239  -3.083  0.00  0.00     0.132 A 
ATOM     47  H4  ZZL d           2.748 -14.056  -2.034  0.00  0.00     0.088 H 
ATOM     48  F23 ZZL d           2.815 -11.427  -2.151  0.00  0.00    -0.205 F 
ENDBRANCH   2  38
TORSDOF 4
