MODEL 1
REMARK VINA RESULT:     -11.3      0.000      0.000
REMARK  4 active torsions:
REMARK  status: ('A' for Active; 'I' for Inactive)
REMARK    1  A    between atoms: C15_2  and  C16_23 
REMARK    2  A    between atoms: C04_13  and  C02_11 
REMARK    3  A    between atoms: N08_17  and  C07_16 
REMARK    4  A    between atoms: C09_18  and  N08_17 
ROOT
ATOM      1  C13 ZZL d           0.507  -8.045  -4.384  0.00  0.00     0.043 C 
ATOM      2  C15 ZZL d           1.762 -10.125  -4.414  0.00  0.00     0.079 C 
ATOM      3  C24 ZZL d           3.147  -9.605  -4.707  0.00  0.00     0.007 A 
ATOM      4  C26 ZZL d           5.275  -9.834  -5.784  0.00  0.00     0.035 A 
ATOM      5  C28 ZZL d           5.711  -8.638  -5.181  0.00  0.00    -0.061 A 
ATOM      6  C09 ZZL d           2.879  -5.992  -1.566  0.00  0.00     0.727 A 
ATOM      7  N10 ZZL d           1.508  -5.798  -1.612  0.00  0.00    -0.074 NA
ATOM      8  C11 ZZL d           0.774  -6.478  -2.523  0.00  0.00     0.031 A 
ATOM      9  C12 ZZL d           1.404  -7.341  -3.357  0.00  0.00     0.010 A 
ATOM     10  N14 ZZL d           0.685  -9.471  -4.303  0.00  0.00    -0.283 NA
ATOM     11  C25 ZZL d           3.987 -10.323  -5.540  0.00  0.00    -0.049 A 
ATOM     12 CL1  ZZL d           6.313 -10.741  -6.914  0.00  0.00    -0.084 Cl
ATOM     13  C29 ZZL d           4.859  -7.919  -4.335  0.00  0.00    -0.068 A 
ATOM     14  C30 ZZL d           3.574  -8.416  -4.099  0.00  0.00     0.007 A 
ATOM     15  C31 ZZL d           2.795  -7.545  -3.299  0.00  0.00     0.096 A 
ATOM     16  N32 ZZL d           3.529  -6.874  -2.430  0.00  0.00    -0.061 NA
ATOM     17  H1  ZZL d           0.774  -7.702  -5.395  0.00  0.00     0.074 H 
ATOM     18  H2  ZZL d          -0.545  -7.797  -4.179  0.00  0.00     0.074 H 
ATOM     19  H5  ZZL d           6.712  -8.271  -5.373  0.00  0.00     0.086 H 
ATOM     20  H9  ZZL d          -0.299  -6.335  -2.585  0.00  0.00     0.116 H 
ATOM     21  H11 ZZL d           3.654 -11.249  -5.994  0.00  0.00     0.087 H 
ATOM     22  H12 ZZL d           5.188  -6.997  -3.871  0.00  0.00     0.085 H 
ENDROOT
BRANCH   6  23
ATOM     23  N08 ZZL d           3.666  -5.226  -0.640  0.00  0.00    -0.188 N 
ATOM     24  H8  ZZL d           3.083  -4.628  -0.037  0.00  0.00     0.184 HD
BRANCH  23  25
ATOM     25  C07 ZZL d           5.070  -5.090  -0.349  0.00  0.00     0.049 A 
ATOM     26  C06 ZZL d           5.936  -6.112  -0.763  0.00  0.00    -0.056 A 
ATOM     27  C05 ZZL d           7.313  -5.956  -0.595  0.00  0.00    -0.064 A 
ATOM     28  H7  ZZL d           5.539  -7.016  -1.211  0.00  0.00     0.087 H 
ATOM     29  C04 ZZL d           7.796  -4.781  -0.013  0.00  0.00     0.041 A 
ATOM     30  H6  ZZL d           7.997  -6.735  -0.912  0.00  0.00     0.085 H 
ATOM     31  C34 ZZL d           6.931  -3.765   0.395  0.00  0.00    -0.064 A 
ATOM     32  C33 ZZL d           5.554  -3.916   0.223  0.00  0.00    -0.056 A 
ATOM     33  H14 ZZL d           7.327  -2.860   0.843  0.00  0.00     0.085 H 
ATOM     34  H13 ZZL d           4.871  -3.132   0.529  0.00  0.00     0.087 H 
BRANCH  29  35
ATOM     35  C02 ZZL d           9.289  -4.610   0.176  0.00  0.00     0.209 C 
ATOM     36  O01 ZZL d          10.012  -5.484  -0.157  0.00  0.00    -0.644 OA
ATOM     37  O03 ZZL d           9.789  -3.432   0.735  0.00  0.00    -0.644 OA
ENDBRANCH  29  35
ENDBRANCH  23  25
ENDBRANCH   6  23
BRANCH   2  38
ATOM     38  C16 ZZL d           1.805 -11.635  -4.224  0.00  0.00     0.070 A 
ATOM     39  C17 ZZL d           1.234 -12.482  -5.176  0.00  0.00     0.132 A 
ATOM     40  F18 ZZL d           0.714 -11.961  -6.322  0.00  0.00    -0.205 F 
ATOM     41  C19 ZZL d           1.228 -13.866  -4.975  0.00  0.00    -0.045 A 
ATOM     42  C20 ZZL d           1.799 -14.416  -3.823  0.00  0.00    -0.077 A 
ATOM     43  H10 ZZL d           0.778 -14.516  -5.717  0.00  0.00     0.088 H 
ATOM     44  C21 ZZL d           2.376 -13.572  -2.868  0.00  0.00    -0.045 A 
ATOM     45  H3  ZZL d           1.794 -15.489  -3.671  0.00  0.00     0.083 H 
ATOM     46  C22 ZZL d           2.374 -12.184  -3.068  0.00  0.00     0.132 A 
ATOM     47  H4  ZZL d           2.824 -13.991  -1.975  0.00  0.00     0.088 H 
ATOM     48  F23 ZZL d           2.964 -11.368  -2.149  0.00  0.00    -0.205 F 
ENDBRANCH   2  38
TORSDOF 4
ENDMDL
