MODEL 1
REMARK VINA RESULT:      -9.9      0.000      0.000
REMARK  4 active torsions:
REMARK  status: ('A' for Active; 'I' for Inactive)
REMARK    1  A    between atoms: C15_2  and  C16_23 
REMARK    2  A    between atoms: C04_13  and  C02_11 
REMARK    3  A    between atoms: N08_17  and  C07_16 
REMARK    4  A    between atoms: C09_18  and  N08_17 
ROOT
ATOM      1  C13 ZZL d           0.065  -8.567  -4.628  0.00  0.00     0.043 C 
ATOM      2  C15 ZZL d           1.501 -10.520  -4.463  0.00  0.00     0.079 C 
ATOM      3  C24 ZZL d           2.846  -9.894  -4.735  0.00  0.00     0.007 A 
ATOM      4  C26 ZZL d           5.034  -9.996  -5.705  0.00  0.00     0.035 A 
ATOM      5  C28 ZZL d           5.333  -8.728  -5.168  0.00  0.00    -0.061 A 
ATOM      6  C09 ZZL d           2.109  -6.125  -1.864  0.00  0.00     0.727 A 
ATOM      7  N10 ZZL d           0.730  -6.062  -1.979  0.00  0.00    -0.074 NA
ATOM      8  C11 ZZL d           0.103  -6.865  -2.870  0.00  0.00     0.031 A 
ATOM      9  C12 ZZL d           0.846  -7.719  -3.616  0.00  0.00     0.010 A 
ATOM     10  N14 ZZL d           0.366  -9.963  -4.442  0.00  0.00    -0.283 NA
ATOM     11  C25 ZZL d           3.785 -10.585  -5.480  0.00  0.00    -0.049 A 
ATOM     12 CL1  ZZL d           6.201 -10.875  -6.726  0.00  0.00    -0.084 Cl
ATOM     13  C29 ZZL d           4.381  -8.038  -4.409  0.00  0.00    -0.068 A 
ATOM     14  C30 ZZL d           3.136  -8.635  -4.193  0.00  0.00     0.007 A 
ATOM     15  C31 ZZL d           2.246  -7.789  -3.487  0.00  0.00     0.096 A 
ATOM     16  N32 ZZL d           2.875  -6.999  -2.637  0.00  0.00    -0.061 NA
ATOM     17  H1  ZZL d           0.348  -8.268  -5.648  0.00  0.00     0.074 H 
ATOM     18  H2  ZZL d          -1.013  -8.404  -4.484  0.00  0.00     0.074 H 
ATOM     19  H5  ZZL d           6.306  -8.284  -5.344  0.00  0.00     0.086 H 
ATOM     20  H9  ZZL d          -0.974  -6.826  -2.986  0.00  0.00     0.116 H 
ATOM     21  H11 ZZL d           3.558 -11.565  -5.883  0.00  0.00     0.087 H 
ATOM     22  H12 ZZL d           4.605  -7.061  -3.997  0.00  0.00     0.085 H 
ENDROOT
BRANCH   6  23
ATOM     23  N08 ZZL d           2.780  -5.232  -0.961  0.00  0.00    -0.188 N 
ATOM     24  H8  ZZL d           2.158  -4.486  -0.618  0.00  0.00     0.184 HD
BRANCH  23  25
ATOM     25  C07 ZZL d           4.110  -5.124  -0.419  0.00  0.00     0.049 A 
ATOM     26  C06 ZZL d           5.070  -6.063  -0.822  0.00  0.00    -0.056 A 
ATOM     27  C05 ZZL d           6.393  -5.917  -0.401  0.00  0.00    -0.064 A 
ATOM     28  H7  ZZL d           4.787  -6.896  -1.455  0.00  0.00     0.087 H 
ATOM     29  C04 ZZL d           6.729  -4.835   0.417  0.00  0.00     0.041 A 
ATOM     30  H6  ZZL d           7.148  -6.632  -0.705  0.00  0.00     0.085 H 
ATOM     31  C34 ZZL d           5.771  -3.900   0.812  0.00  0.00    -0.064 A 
ATOM     32  C33 ZZL d           4.448  -4.041   0.389  0.00  0.00    -0.056 A 
ATOM     33  H14 ZZL d           6.053  -3.066   1.446  0.00  0.00     0.085 H 
ATOM     34  H13 ZZL d           3.696  -3.318   0.684  0.00  0.00     0.087 H 
BRANCH  29  35
ATOM     35  C02 ZZL d           8.162  -4.676   0.879  0.00  0.00     0.209 C 
ATOM     36  O01 ZZL d           8.788  -5.641   1.147  0.00  0.00    -0.644 OA
ATOM     37  O03 ZZL d           8.722  -3.400   0.982  0.00  0.00    -0.644 OA
ENDBRANCH  29  35
ENDBRANCH  23  25
ENDBRANCH   6  23
BRANCH   2  38
ATOM     38  C16 ZZL d           1.669 -12.004  -4.167  0.00  0.00     0.070 A 
ATOM     39  C17 ZZL d           2.276 -12.422  -2.980  0.00  0.00     0.132 A 
ATOM     40  F18 ZZL d           2.640 -11.503  -2.045  0.00  0.00    -0.205 F 
ATOM     41  C19 ZZL d           2.477 -13.784  -2.734  0.00  0.00    -0.045 A 
ATOM     42  C20 ZZL d           2.067 -14.740  -3.668  0.00  0.00    -0.077 A 
ATOM     43  H10 ZZL d           2.954 -14.100  -1.813  0.00  0.00     0.088 H 
ATOM     44  C21 ZZL d           1.454 -14.327  -4.856  0.00  0.00    -0.045 A 
ATOM     45  H3  ZZL d           2.223 -15.795  -3.473  0.00  0.00     0.083 H 
ATOM     46  C22 ZZL d           1.261 -12.961  -5.105  0.00  0.00     0.132 A 
ATOM     47  H4  ZZL d           1.130 -15.062  -5.583  0.00  0.00     0.088 H 
ATOM     48  F23 ZZL d           0.636 -12.564  -6.250  0.00  0.00    -0.205 F 
ENDBRANCH   2  38
TORSDOF 4
ENDMDL
