MODEL 1
REMARK VINA RESULT:      -9.6      0.000      0.000
REMARK  9 active torsions:
REMARK  status: ('A' for Active; 'I' for Inactive)
REMARK       I    between atoms: N7_8  and  C9_9 
REMARK    1  A    between atoms: C9_9  and  C11_11 
REMARK    2  A    between atoms: C12_12  and  N19_20 
REMARK    3  A    between atoms: C13_13  and  O17_18 
REMARK    4  A    between atoms: O17_18  and  C18_19 
REMARK       I    between atoms: N19_20  and  C20_21 
REMARK    5  A    between atoms: C20_21  and  C22_23 
REMARK    6  A    between atoms: C25_26  and  C28_29 
REMARK    7  A    between atoms: C28_29  and  N29_30 
REMARK    8  A    between atoms: N29_30  and  C31_31 
REMARK    9  A    between atoms: N29_30  and  C32_32 
ROOT
ATOM      1  C11 XLD d           5.934   8.253  23.949  0.00  0.00     0.063 A 
ATOM      2  C12 XLD d           5.137   7.520  22.976  0.00  0.00     0.084 A 
ATOM      3  C13 XLD d           3.719   7.689  22.953  0.00  0.00     0.097 A 
ATOM      4  C14 XLD d           3.102   8.566  23.887  0.00  0.00    -0.028 A 
ATOM      5  C15 XLD d           3.884   9.267  24.833  0.00  0.00     0.037 A 
ATOM      6 CL2  XLD d           3.184  10.312  25.954  0.00  0.00    -0.084 Cl
ATOM      7  C16 XLD d           5.265   9.109  24.849  0.00  0.00    -0.044 A 
ATOM      8  H5  XLD d           2.027   8.698  23.872  0.00  0.00     0.090 H 
ATOM      9  H6  XLD d           5.847   9.663  25.576  0.00  0.00     0.087 H 
ENDROOT
BRANCH   2  10
ATOM     10  N19 XLD d           5.761   6.662  22.103  0.00  0.00    -0.319 N 
ATOM     11  C20 XLD d           5.634   5.302  22.055  0.00  0.00     0.264 C 
ATOM     12  O21 XLD d           4.879   4.760  22.908  0.00  0.00    -0.267 OA
ATOM     13  H10 XLD d           6.374   7.077  21.430  0.00  0.00     0.169 HD
BRANCH  11  14
ATOM     14  C22 XLD d           6.358   4.456  21.147  0.00  0.00     0.095 A 
ATOM     15  S23 XLD d           6.139   2.725  21.253  0.00  0.00    -0.094 SA
ATOM     16  C24 XLD d           7.274   2.501  19.989  0.00  0.00    -0.035 A 
ATOM     17  C25 XLD d           7.826   3.662  19.468  0.00  0.00    -0.011 A 
ATOM     18  H11 XLD d           7.545   1.513  19.619  0.00  0.00     0.096 H 
ATOM     19  C26 XLD d           7.291   4.792  20.127  0.00  0.00     0.065 A 
ATOM     20 CL3  XLD d           7.783   6.369  19.701  0.00  0.00    -0.082 Cl
BRANCH  17  21
ATOM     21  C28 XLD d           8.844   3.727  18.371  0.00  0.00     0.024 C 
ATOM     22  H12 XLD d           9.765   4.116  18.830  0.00  0.00     0.071 H 
ATOM     23  H13 XLD d           8.461   4.455  17.642  0.00  0.00     0.071 H 
BRANCH  21  24
ATOM     24  N29 XLD d           9.252   2.509  17.575  0.00  0.00    -0.346 N 
BRANCH  24  25
ATOM     25  C31 XLD d           9.837   1.358  18.318  0.00  0.00    -0.015 C 
ATOM     26  H14 XLD d          10.084   0.553  17.611  0.00  0.00     0.056 H 
ATOM     27  H15 XLD d           9.109   0.990  19.056  0.00  0.00     0.056 H 
ATOM     28  H16 XLD d          10.752   1.684  18.837  0.00  0.00     0.056 H 
ENDBRANCH  24  25
BRANCH  24  29
ATOM     29  C32 XLD d           8.290   2.130  16.605  0.00  0.00     0.239 A 
ATOM     30  N33 XLD d           7.329   2.960  16.135  0.00  0.00    -0.249 NA
ATOM     31  C34 XLD d           6.524   2.321  15.164  0.00  0.00     0.039 A 
ATOM     32  C35 XLD d           7.123   0.899  15.074  0.00  0.00     0.046 A 
ATOM     33  H17 XLD d           6.592   2.838  14.195  0.00  0.00     0.070 H 
ATOM     34  H18 XLD d           5.472   2.285  15.487  0.00  0.00     0.070 H 
ATOM     35  O36 XLD d           8.200   0.921  16.013  0.00  0.00    -0.319 OA
ATOM     36  H19 XLD d           7.493   0.692  14.059  0.00  0.00     0.077 H 
ATOM     37  H20 XLD d           6.376   0.141  15.353  0.00  0.00     0.077 H 
ENDBRANCH  24  29
ENDBRANCH  21  24
ENDBRANCH  17  21
ENDBRANCH  11  14
ENDBRANCH   2  10
BRANCH   1  38
ATOM     38  C9  XLD d           7.371   8.172  24.078  0.00  0.00     0.259 C 
ATOM     39  N7  XLD d           7.929   8.084  25.332  0.00  0.00    -0.307 N 
ATOM     40  C1  XLD d           9.249   8.038  25.678  0.00  0.00     0.130 A 
ATOM     41  H4  XLD d           7.280   8.049  26.092  0.00  0.00     0.170 HD
ATOM     42  N2  XLD d          10.224   8.605  24.897  0.00  0.00    -0.242 NA
ATOM     43  C6  XLD d           9.623   7.429  26.901  0.00  0.00    -0.037 A 
ATOM     44  C3  XLD d          11.522   8.589  25.209  0.00  0.00     0.025 A 
ATOM     45  C4  XLD d          11.963   7.969  26.404  0.00  0.00     0.051 A 
ATOM     46  H1  XLD d          12.242   9.053  24.544  0.00  0.00     0.117 H 
ATOM     47 CL1  XLD d          13.681   7.833  26.769  0.00  0.00    -0.083 Cl
ATOM     48  C5  XLD d          10.984   7.399  27.261  0.00  0.00    -0.057 A 
ATOM     49  H2  XLD d          11.286   6.939  28.195  0.00  0.00     0.086 H 
ATOM     50  H3  XLD d           8.873   6.993  27.551  0.00  0.00     0.089 H 
ATOM     51  O10 XLD d           8.098   8.210  23.048  0.00  0.00    -0.267 OA
ENDBRANCH   1  38
BRANCH   3  52
ATOM     52  O17 XLD d           2.998   6.993  22.028  0.00  0.00    -0.354 OA
BRANCH  52  53
ATOM     53  C18 XLD d           1.593   6.983  21.794  0.00  0.00     0.010 C 
ATOM     54  H7  XLD d           1.364   6.301  20.962  0.00  0.00     0.066 H 
ATOM     55  H8  XLD d           1.257   7.999  21.539  0.00  0.00     0.066 H 
ATOM     56  H9  XLD d           1.073   6.642  22.701  0.00  0.00     0.066 H 
ENDBRANCH  52  53
ENDBRANCH   3  52
TORSDOF 9
ENDMDL
