MODEL 1
REMARK VINA RESULT:      -6.9      0.000      0.000
REMARK  9 active torsions:
REMARK  status: ('A' for Active; 'I' for Inactive)
REMARK       I    between atoms: N7_8  and  C9_9 
REMARK    1  A    between atoms: C9_9  and  C11_11 
REMARK    2  A    between atoms: C12_12  and  N19_20 
REMARK    3  A    between atoms: C13_13  and  O17_18 
REMARK    4  A    between atoms: O17_18  and  C18_19 
REMARK       I    between atoms: N19_20  and  C20_21 
REMARK    5  A    between atoms: C20_21  and  C22_23 
REMARK    6  A    between atoms: C25_26  and  C28_29 
REMARK    7  A    between atoms: C28_29  and  N29_30 
REMARK    8  A    between atoms: N29_30  and  C31_31 
REMARK    9  A    between atoms: N29_30  and  C32_32 
ROOT
ATOM      1  C11 XLD d           4.516   4.598  19.084  0.00  0.00     0.063 A 
ATOM      2  C12 XLD d           5.948   4.769  18.890  0.00  0.00     0.084 A 
ATOM      3  C13 XLD d           6.654   3.885  18.018  0.00  0.00     0.097 A 
ATOM      4  C14 XLD d           5.949   2.844  17.355  0.00  0.00    -0.028 A 
ATOM      5  C15 XLD d           4.560   2.681  17.555  0.00  0.00     0.037 A 
ATOM      6 CL2  XLD d           3.696   1.456  16.786  0.00  0.00    -0.084 Cl
ATOM      7  C16 XLD d           3.872   3.548  18.397  0.00  0.00    -0.044 A 
ATOM      8  H5  XLD d           6.481   2.172  16.691  0.00  0.00     0.090 H 
ATOM      9  H6  XLD d           2.805   3.411  18.530  0.00  0.00     0.087 H 
ENDROOT
BRANCH   2  10
ATOM     10  N19 XLD d           6.605   5.771  19.564  0.00  0.00    -0.319 N 
ATOM     11  C20 XLD d           6.729   7.076  19.178  0.00  0.00     0.264 C 
ATOM     12  O21 XLD d           6.203   7.409  18.081  0.00  0.00    -0.267 OA
ATOM     13  H10 XLD d           7.038   5.517  20.429  0.00  0.00     0.169 HD
BRANCH  11  14
ATOM     14  C22 XLD d           7.477   8.064  19.907  0.00  0.00     0.095 A 
ATOM     15  S23 XLD d           7.738   9.629  19.175  0.00  0.00    -0.094 SA
ATOM     16  C24 XLD d           8.651  10.119  20.540  0.00  0.00    -0.035 A 
ATOM     17  C25 XLD d           8.780   9.170  21.544  0.00  0.00    -0.011 A 
ATOM     18  H11 XLD d           9.100  11.108  20.615  0.00  0.00     0.096 H 
ATOM     19  C26 XLD d           8.094   7.987  21.186  0.00  0.00     0.065 A 
ATOM     20 CL3  XLD d           8.075   6.636  22.227  0.00  0.00    -0.082 Cl
BRANCH  17  21
ATOM     21  C28 XLD d           9.536   9.354  22.824  0.00  0.00     0.024 C 
ATOM     22  H12 XLD d          10.080  10.305  22.725  0.00  0.00     0.071 H 
ATOM     23  H13 XLD d          10.254   8.524  22.877  0.00  0.00     0.071 H 
BRANCH  21  24
ATOM     24  N29 XLD d           8.847   9.402  24.169  0.00  0.00    -0.346 N 
BRANCH  24  25
ATOM     25  C31 XLD d           7.379   9.150  24.206  0.00  0.00    -0.015 C 
ATOM     26  H14 XLD d           6.882   9.967  24.749  0.00  0.00     0.056 H 
ATOM     27  H15 XLD d           7.184   8.196  24.717  0.00  0.00     0.056 H 
ATOM     28  H16 XLD d           6.989   9.103  23.178  0.00  0.00     0.056 H 
ENDBRANCH  24  25
BRANCH  24  29
ATOM     29  C32 XLD d           9.567   8.725  25.185  0.00  0.00     0.239 A 
ATOM     30  N33 XLD d          10.741   9.164  25.695  0.00  0.00    -0.249 NA
ATOM     31  C34 XLD d          11.221   8.302  26.708  0.00  0.00     0.039 A 
ATOM     32  C35 XLD d          10.147   7.193  26.779  0.00  0.00     0.046 A 
ATOM     33  H17 XLD d          11.303   8.832  27.668  0.00  0.00     0.070 H 
ATOM     34  H18 XLD d          12.202   7.883  26.435  0.00  0.00     0.070 H 
ATOM     35  O36 XLD d           9.190   7.578  25.790  0.00  0.00    -0.319 OA
ATOM     36  H19 XLD d           9.685   7.157  27.776  0.00  0.00     0.077 H 
ATOM     37  H20 XLD d          10.581   6.211  26.541  0.00  0.00     0.077 H 
ENDBRANCH  24  29
ENDBRANCH  21  24
ENDBRANCH  17  21
ENDBRANCH  11  14
ENDBRANCH   2  10
BRANCH   1  38
ATOM     38  C9  XLD d           3.687   5.420  19.935  0.00  0.00     0.259 C 
ATOM     39  N7  XLD d           4.028   5.572  21.259  0.00  0.00    -0.307 N 
ATOM     40  C1  XLD d           3.370   6.263  22.236  0.00  0.00     0.130 A 
ATOM     41  H4  XLD d           4.870   5.114  21.544  0.00  0.00     0.170 HD
ATOM     42  N2  XLD d           2.014   6.464  22.195  0.00  0.00    -0.242 NA
ATOM     43  C6  XLD d           4.099   6.749  23.350  0.00  0.00    -0.037 A 
ATOM     44  C3  XLD d           1.337   7.125  23.137  0.00  0.00     0.025 A 
ATOM     45  C4  XLD d           2.013   7.660  24.261  0.00  0.00     0.051 A 
ATOM     46  H1  XLD d           0.264   7.252  23.041  0.00  0.00     0.117 H 
ATOM     47 CL1  XLD d           1.154   8.638  25.449  0.00  0.00    -0.083 Cl
ATOM     48  C5  XLD d           3.413   7.447  24.362  0.00  0.00    -0.057 A 
ATOM     49  H2  XLD d           3.956   7.822  25.223  0.00  0.00     0.086 H 
ATOM     50  H3  XLD d           5.167   6.585  23.422  0.00  0.00     0.089 H 
ATOM     51  O10 XLD d           2.651   5.966  19.467  0.00  0.00    -0.267 OA
ENDBRANCH   1  38
BRANCH   3  52
ATOM     52  O17 XLD d           7.995   4.072  17.852  0.00  0.00    -0.354 OA
BRANCH  52  53
ATOM     53  C18 XLD d           9.083   3.267  18.296  0.00  0.00     0.010 C 
ATOM     54  H7  XLD d           8.797   2.737  19.216  0.00  0.00     0.066 H 
ATOM     55  H8  XLD d           9.954   3.908  18.497  0.00  0.00     0.066 H 
ATOM     56  H9  XLD d           9.339   2.535  17.516  0.00  0.00     0.066 H 
ENDBRANCH  52  53
ENDBRANCH   3  52
TORSDOF 9
ENDMDL
MODEL 2
REMARK VINA RESULT:      -6.3      3.506      7.169
REMARK  9 active torsions:
REMARK  status: ('A' for Active; 'I' for Inactive)
REMARK       I    between atoms: N7_8  and  C9_9 
REMARK    1  A    between atoms: C9_9  and  C11_11 
REMARK    2  A    between atoms: C12_12  and  N19_20 
REMARK    3  A    between atoms: C13_13  and  O17_18 
REMARK    4  A    between atoms: O17_18  and  C18_19 
REMARK       I    between atoms: N19_20  and  C20_21 
REMARK    5  A    between atoms: C20_21  and  C22_23 
REMARK    6  A    between atoms: C25_26  and  C28_29 
REMARK    7  A    between atoms: C28_29  and  N29_30 
REMARK    8  A    between atoms: N29_30  and  C31_31 
REMARK    9  A    between atoms: N29_30  and  C32_32 
ROOT
ATOM      1  C11 XLD d           5.639   8.171  18.885  0.00  0.00     0.063 A 
ATOM      2  C12 XLD d           4.982   6.985  18.354  0.00  0.00     0.084 A 
ATOM      3  C13 XLD d           4.571   6.957  16.986  0.00  0.00     0.097 A 
ATOM      4  C14 XLD d           4.802   8.092  16.162  0.00  0.00    -0.028 A 
ATOM      5  C15 XLD d           5.433   9.242  16.688  0.00  0.00     0.037 A 
ATOM      6 CL2  XLD d           5.720  10.604  15.738  0.00  0.00    -0.084 Cl
ATOM      7  C16 XLD d           5.841   9.265  18.017  0.00  0.00    -0.044 A 
ATOM      8  H5  XLD d           4.493   8.075  15.123  0.00  0.00     0.090 H 
ATOM      9  H6  XLD d           6.332  10.153  18.399  0.00  0.00     0.087 H 
ENDROOT
BRANCH   2  10
ATOM     10  N19 XLD d           4.752   5.914  19.184  0.00  0.00    -0.319 N 
ATOM     11  C20 XLD d           5.598   4.868  19.429  0.00  0.00     0.264 C 
ATOM     12  O21 XLD d           6.705   4.864  18.825  0.00  0.00    -0.267 OA
ATOM     13  H10 XLD d           3.872   5.897  19.658  0.00  0.00     0.169 HD
BRANCH  11  14
ATOM     14  C22 XLD d           5.272   3.749  20.269  0.00  0.00     0.095 A 
ATOM     15  S23 XLD d           6.524   3.063  21.278  0.00  0.00    -0.094 SA
ATOM     16  C24 XLD d           5.420   1.882  21.849  0.00  0.00    -0.035 A 
ATOM     17  C25 XLD d           4.137   1.963  21.329  0.00  0.00    -0.011 A 
ATOM     18  H11 XLD d           5.707   1.120  22.571  0.00  0.00     0.096 H 
ATOM     19  C26 XLD d           4.046   3.046  20.426  0.00  0.00     0.065 A 
ATOM     20 CL3  XLD d           2.582   3.397  19.624  0.00  0.00    -0.082 Cl
BRANCH  17  21
ATOM     21  C28 XLD d           3.003   1.043  21.663  0.00  0.00     0.024 C 
ATOM     22  H12 XLD d           3.413   0.023  21.620  0.00  0.00     0.071 H 
ATOM     23  H13 XLD d           2.259   1.172  20.863  0.00  0.00     0.071 H 
BRANCH  21  24
ATOM     24  N29 XLD d           2.242   1.137  22.965  0.00  0.00    -0.346 N 
BRANCH  24  25
ATOM     25  C31 XLD d           2.735   0.330  24.116  0.00  0.00    -0.015 C 
ATOM     26  H14 XLD d           1.921   0.195  24.844  0.00  0.00     0.056 H 
ATOM     27  H15 XLD d           3.575   0.852  24.597  0.00  0.00     0.056 H 
ATOM     28  H16 XLD d           3.072  -0.654  23.756  0.00  0.00     0.056 H 
ENDBRANCH  24  25
BRANCH  24  29
ATOM     29  C32 XLD d           1.893   2.467  23.310  0.00  0.00     0.239 A 
ATOM     30  N33 XLD d           2.408   3.128  24.372  0.00  0.00    -0.249 NA
ATOM     31  C34 XLD d           1.895   4.443  24.462  0.00  0.00     0.039 A 
ATOM     32  C35 XLD d           0.929   4.538  23.259  0.00  0.00     0.046 A 
ATOM     33  H17 XLD d           2.702   5.186  24.378  0.00  0.00     0.070 H 
ATOM     34  H18 XLD d           1.358   4.591  25.411  0.00  0.00     0.070 H 
ATOM     35  O36 XLD d           1.026   3.254  22.639  0.00  0.00    -0.319 OA
ATOM     36  H19 XLD d           1.244   5.332  22.565  0.00  0.00     0.077 H 
ATOM     37  H20 XLD d          -0.099   4.733  23.597  0.00  0.00     0.077 H 
ENDBRANCH  24  29
ENDBRANCH  21  24
ENDBRANCH  17  21
ENDBRANCH  11  14
ENDBRANCH   2  10
BRANCH   1  38
ATOM     38  C9  XLD d           6.101   8.328  20.245  0.00  0.00     0.259 C 
ATOM     39  N7  XLD d           7.445   8.497  20.481  0.00  0.00    -0.307 N 
ATOM     40  C1  XLD d           8.093   8.622  21.677  0.00  0.00     0.130 A 
ATOM     41  H4  XLD d           8.026   8.533  19.668  0.00  0.00     0.170 HD
ATOM     42  N2  XLD d           7.599   8.070  22.831  0.00  0.00    -0.242 NA
ATOM     43  C6  XLD d           9.336   9.301  21.723  0.00  0.00    -0.037 A 
ATOM     44  C3  XLD d           8.209   8.162  24.015  0.00  0.00     0.025 A 
ATOM     45  C4  XLD d           9.440   8.854  24.132  0.00  0.00     0.051 A 
ATOM     46  H1  XLD d           7.761   7.706  24.890  0.00  0.00     0.117 H 
ATOM     47 CL1  XLD d          10.196   9.090  25.705  0.00  0.00    -0.083 Cl
ATOM     48  C5  XLD d          10.007   9.413  22.956  0.00  0.00    -0.057 A 
ATOM     49  H2  XLD d          10.960   9.927  23.007  0.00  0.00     0.086 H 
ATOM     50  H3  XLD d           9.764   9.727  20.824  0.00  0.00     0.089 H 
ATOM     51  O10 XLD d           5.278   8.280  21.199  0.00  0.00    -0.267 OA
ENDBRANCH   1  38
BRANCH   3  52
ATOM     52  O17 XLD d           3.962   5.832  16.515  0.00  0.00    -0.354 OA
BRANCH  52  53
ATOM     53  C18 XLD d           4.345   4.976  15.443  0.00  0.00     0.010 C 
ATOM     54  H7  XLD d           3.729   5.198  14.559  0.00  0.00     0.066 H 
ATOM     55  H8  XLD d           4.196   3.927  15.740  0.00  0.00     0.066 H 
ATOM     56  H9  XLD d           5.405   5.142  15.202  0.00  0.00     0.066 H 
ENDBRANCH  52  53
ENDBRANCH   3  52
TORSDOF 9
ENDMDL
MODEL 3
REMARK VINA RESULT:      -6.3      3.310      7.972
REMARK  9 active torsions:
REMARK  status: ('A' for Active; 'I' for Inactive)
REMARK       I    between atoms: N7_8  and  C9_9 
REMARK    1  A    between atoms: C9_9  and  C11_11 
REMARK    2  A    between atoms: C12_12  and  N19_20 
REMARK    3  A    between atoms: C13_13  and  O17_18 
REMARK    4  A    between atoms: O17_18  and  C18_19 
REMARK       I    between atoms: N19_20  and  C20_21 
REMARK    5  A    between atoms: C20_21  and  C22_23 
REMARK    6  A    between atoms: C25_26  and  C28_29 
REMARK    7  A    between atoms: C28_29  and  N29_30 
REMARK    8  A    between atoms: N29_30  and  C31_31 
REMARK    9  A    between atoms: N29_30  and  C32_32 
ROOT
ATOM      1  C11 XLD d           3.954   8.338  22.672  0.00  0.00     0.063 A 
ATOM      2  C12 XLD d           5.320   7.913  22.939  0.00  0.00     0.084 A 
ATOM      3  C13 XLD d           5.931   8.240  24.189  0.00  0.00     0.097 A 
ATOM      4  C14 XLD d           5.197   8.982  25.154  0.00  0.00    -0.028 A 
ATOM      5  C15 XLD d           3.874   9.397  24.883  0.00  0.00     0.037 A 
ATOM      6 CL2  XLD d           2.979  10.280  26.004  0.00  0.00    -0.084 Cl
ATOM      7  C16 XLD d           3.277   9.071  23.669  0.00  0.00    -0.044 A 
ATOM      8  H5  XLD d           5.656   9.231  26.104  0.00  0.00     0.090 H 
ATOM      9  H6  XLD d           2.258   9.391  23.484  0.00  0.00     0.087 H 
ENDROOT
BRANCH   2  10
ATOM     10  N19 XLD d           6.010   7.216  21.976  0.00  0.00    -0.319 N 
ATOM     11  C20 XLD d           5.870   5.894  21.659  0.00  0.00     0.264 C 
ATOM     12  O21 XLD d           5.033   5.225  22.323  0.00  0.00    -0.267 OA
ATOM     13  H10 XLD d           6.688   7.732  21.452  0.00  0.00     0.169 HD
BRANCH  11  14
ATOM     14  C22 XLD d           6.664   5.214  20.674  0.00  0.00     0.095 A 
ATOM     15  S23 XLD d           7.356   6.141  19.364  0.00  0.00    -0.094 SA
ATOM     16  C24 XLD d           8.030   4.710  18.703  0.00  0.00    -0.035 A 
ATOM     17  C25 XLD d           7.773   3.546  19.411  0.00  0.00    -0.011 A 
ATOM     18  H11 XLD d           8.619   4.715  17.787  0.00  0.00     0.096 H 
ATOM     19  C26 XLD d           6.994   3.835  20.555  0.00  0.00     0.065 A 
ATOM     20 CL3  XLD d           6.518   2.596  21.627  0.00  0.00    -0.082 Cl
BRANCH  17  21
ATOM     21  C28 XLD d           8.241   2.175  19.033  0.00  0.00     0.024 C 
ATOM     22  H12 XLD d           7.356   1.523  19.085  0.00  0.00     0.071 H 
ATOM     23  H13 XLD d           8.963   1.874  19.805  0.00  0.00     0.071 H 
BRANCH  21  24
ATOM     24  N29 XLD d           8.900   1.884  17.704  0.00  0.00    -0.346 N 
BRANCH  24  25
ATOM     25  C31 XLD d          10.106   1.010  17.704  0.00  0.00    -0.015 C 
ATOM     26  H14 XLD d          10.840   1.399  18.425  0.00  0.00     0.056 H 
ATOM     27  H15 XLD d          10.550   0.998  16.697  0.00  0.00     0.056 H 
ATOM     28  H16 XLD d           9.818  -0.013  17.989  0.00  0.00     0.056 H 
ENDBRANCH  24  25
BRANCH  24  29
ATOM     29  C32 XLD d           7.971   1.573  16.680  0.00  0.00     0.239 A 
ATOM     30  N33 XLD d           6.689   2.009  16.668  0.00  0.00    -0.249 NA
ATOM     31  C34 XLD d           6.000   1.561  15.517  0.00  0.00     0.039 A 
ATOM     32  C35 XLD d           7.062   0.732  14.758  0.00  0.00     0.046 A 
ATOM     33  H17 XLD d           5.657   2.411  14.909  0.00  0.00     0.070 H 
ATOM     34  H18 XLD d           5.138   0.936  15.794  0.00  0.00     0.070 H 
ATOM     35  O36 XLD d           8.223   0.824  15.585  0.00  0.00    -0.319 OA
ATOM     36  H19 XLD d           7.255   1.159  13.764  0.00  0.00     0.077 H 
ATOM     37  H20 XLD d           6.739  -0.314  14.652  0.00  0.00     0.077 H 
ENDBRANCH  24  29
ENDBRANCH  21  24
ENDBRANCH  17  21
ENDBRANCH  11  14
ENDBRANCH   2  10
BRANCH   1  38
ATOM     38  C9  XLD d           3.224   8.074  21.454  0.00  0.00     0.259 C 
ATOM     39  N7  XLD d           3.545   8.774  20.314  0.00  0.00    -0.307 N 
ATOM     40  C1  XLD d           2.963   8.710  19.081  0.00  0.00     0.130 A 
ATOM     41  H4  XLD d           4.307   9.415  20.401  0.00  0.00     0.170 HD
ATOM     42  N2  XLD d           1.649   8.351  18.916  0.00  0.00    -0.242 NA
ATOM     43  C6  XLD d           3.720   9.070  17.938  0.00  0.00    -0.037 A 
ATOM     44  C3  XLD d           1.044   8.289  17.727  0.00  0.00     0.025 A 
ATOM     45  C4  XLD d           1.756   8.608  16.545  0.00  0.00     0.051 A 
ATOM     46  H1  XLD d           0.003   7.992  17.668  0.00  0.00     0.117 H 
ATOM     47 CL1  XLD d           1.009   8.413  14.961  0.00  0.00    -0.083 Cl
ATOM     48  C5  XLD d           3.109   9.018  16.671  0.00  0.00    -0.057 A 
ATOM     49  H2  XLD d           3.675   9.293  15.787  0.00  0.00     0.086 H 
ATOM     50  H3  XLD d           4.753   9.381  18.039  0.00  0.00     0.089 H 
ATOM     51  O10 XLD d           2.287   7.230  21.452  0.00  0.00    -0.267 OA
ENDBRANCH   1  38
BRANCH   3  52
ATOM     52  O17 XLD d           7.210   7.825  24.414  0.00  0.00    -0.354 OA
BRANCH  52  53
ATOM     53  C18 XLD d           8.351   8.579  24.811  0.00  0.00     0.010 C 
ATOM     54  H7  XLD d           9.154   8.447  24.072  0.00  0.00     0.066 H 
ATOM     55  H8  XLD d           8.696   8.230  25.795  0.00  0.00     0.066 H 
ATOM     56  H9  XLD d           8.083   9.644  24.873  0.00  0.00     0.066 H 
ENDBRANCH  52  53
ENDBRANCH   3  52
TORSDOF 9
ENDMDL
MODEL 4
REMARK VINA RESULT:      -5.4      3.119      7.865
REMARK  9 active torsions:
REMARK  status: ('A' for Active; 'I' for Inactive)
REMARK       I    between atoms: N7_8  and  C9_9 
REMARK    1  A    between atoms: C9_9  and  C11_11 
REMARK    2  A    between atoms: C12_12  and  N19_20 
REMARK    3  A    between atoms: C13_13  and  O17_18 
REMARK    4  A    between atoms: O17_18  and  C18_19 
REMARK       I    between atoms: N19_20  and  C20_21 
REMARK    5  A    between atoms: C20_21  and  C22_23 
REMARK    6  A    between atoms: C25_26  and  C28_29 
REMARK    7  A    between atoms: C28_29  and  N29_30 
REMARK    8  A    between atoms: N29_30  and  C31_31 
REMARK    9  A    between atoms: N29_30  and  C32_32 
ROOT
ATOM      1  C11 XLD d           3.061   7.555  22.321  0.00  0.00     0.063 A 
ATOM      2  C12 XLD d           4.501   7.598  22.523  0.00  0.00     0.084 A 
ATOM      3  C13 XLD d           5.038   8.315  23.636  0.00  0.00     0.097 A 
ATOM      4  C14 XLD d           4.158   8.984  24.529  0.00  0.00    -0.028 A 
ATOM      5  C15 XLD d           2.760   8.943  24.320  0.00  0.00     0.037 A 
ATOM      6 CL2  XLD d           1.690   9.726  25.359  0.00  0.00    -0.084 Cl
ATOM      7  C16 XLD d           2.238   8.237  23.242  0.00  0.00    -0.044 A 
ATOM      8  H5  XLD d           4.560   9.527  25.376  0.00  0.00     0.090 H 
ATOM      9  H6  XLD d           1.163   8.210  23.104  0.00  0.00     0.087 H 
ENDROOT
BRANCH   2  10
ATOM     10  N19 XLD d           5.327   6.961  21.628  0.00  0.00    -0.319 N 
ATOM     11  C20 XLD d           5.671   5.638  21.625  0.00  0.00     0.264 C 
ATOM     12  O21 XLD d           5.201   4.915  22.546  0.00  0.00    -0.267 OA
ATOM     13  H10 XLD d           5.718   7.526  20.901  0.00  0.00     0.169 HD
BRANCH  11  14
ATOM     14  C22 XLD d           6.585   5.045  20.688  0.00  0.00     0.095 A 
ATOM     15  S23 XLD d           7.603   6.092  19.729  0.00  0.00    -0.094 SA
ATOM     16  C24 XLD d           8.270   4.725  18.939  0.00  0.00    -0.035 A 
ATOM     17  C25 XLD d           7.777   3.496  19.352  0.00  0.00    -0.011 A 
ATOM     18  H11 XLD d           9.030   4.814  18.164  0.00  0.00     0.096 H 
ATOM     19  C26 XLD d           6.812   3.677  20.369  0.00  0.00     0.065 A 
ATOM     20 CL3  XLD d           6.025   2.340  21.078  0.00  0.00    -0.082 Cl
BRANCH  17  21
ATOM     21  C28 XLD d           8.191   2.164  18.809  0.00  0.00     0.024 C 
ATOM     22  H12 XLD d           7.284   1.541  18.797  0.00  0.00     0.071 H 
ATOM     23  H13 XLD d           8.910   1.749  19.530  0.00  0.00     0.071 H 
BRANCH  21  24
ATOM     24  N29 XLD d           8.825   2.009  17.445  0.00  0.00    -0.346 N 
BRANCH  24  25
ATOM     25  C31 XLD d           9.916   1.005  17.297  0.00  0.00    -0.015 C 
ATOM     26  H14 XLD d           9.484  -0.007  17.290  0.00  0.00     0.056 H 
ATOM     27  H15 XLD d          10.617   1.099  18.140  0.00  0.00     0.056 H 
ATOM     28  H16 XLD d          10.452   1.182  16.353  0.00  0.00     0.056 H 
ENDBRANCH  24  25
BRANCH  24  29
ATOM     29  C32 XLD d           7.877   1.979  16.392  0.00  0.00     0.239 A 
ATOM     30  N33 XLD d           7.289   3.085  15.878  0.00  0.00    -0.249 NA
ATOM     31  C34 XLD d           6.402   2.758  14.826  0.00  0.00     0.039 A 
ATOM     32  C35 XLD d           6.501   1.218  14.734  0.00  0.00     0.046 A 
ATOM     33  H17 XLD d           6.720   3.229  13.884  0.00  0.00     0.070 H 
ATOM     34  H18 XLD d           5.375   3.072  15.065  0.00  0.00     0.070 H 
ATOM     35  O36 XLD d           7.441   0.873  15.753  0.00  0.00    -0.319 OA
ATOM     36  H19 XLD d           6.866   0.907  13.744  0.00  0.00     0.077 H 
ATOM     37  H20 XLD d           5.525   0.751  14.928  0.00  0.00     0.077 H 
ENDBRANCH  24  29
ENDBRANCH  21  24
ENDBRANCH  17  21
ENDBRANCH  11  14
ENDBRANCH   2  10
BRANCH   1  38
ATOM     38  C9  XLD d           2.392   6.868  21.239  0.00  0.00     0.259 C 
ATOM     39  N7  XLD d           2.931   5.701  20.751  0.00  0.00    -0.307 N 
ATOM     40  C1  XLD d           2.489   4.922  19.720  0.00  0.00     0.130 A 
ATOM     41  H4  XLD d           3.757   5.379  21.213  0.00  0.00     0.170 HD
ATOM     42  N2  XLD d           1.768   5.442  18.675  0.00  0.00    -0.242 NA
ATOM     43  C6  XLD d           2.821   3.545  19.700  0.00  0.00    -0.037 A 
ATOM     44  C3  XLD d           1.330   4.714  17.645  0.00  0.00     0.025 A 
ATOM     45  C4  XLD d           1.604   3.326  17.583  0.00  0.00     0.051 A 
ATOM     46  H1  XLD d           0.761   5.189  16.854  0.00  0.00     0.117 H 
ATOM     47 CL1  XLD d           0.929   2.330  16.296  0.00  0.00    -0.083 Cl
ATOM     48  C5  XLD d           2.376   2.750  18.627  0.00  0.00    -0.057 A 
ATOM     49  H2  XLD d           2.625   1.696  18.596  0.00  0.00     0.086 H 
ATOM     50  H3  XLD d           3.409   3.109  20.500  0.00  0.00     0.089 H 
ATOM     51  O10 XLD d           1.344   7.357  20.737  0.00  0.00    -0.267 OA
ENDBRANCH   1  38
BRANCH   3  52
ATOM     52  O17 XLD d           6.391   8.335  23.802  0.00  0.00    -0.354 OA
BRANCH  52  53
ATOM     53  C18 XLD d           7.162   8.819  24.897  0.00  0.00     0.010 C 
ATOM     54  H7  XLD d           7.525   9.833  24.670  0.00  0.00     0.066 H 
ATOM     55  H8  XLD d           8.020   8.151  25.065  0.00  0.00     0.066 H 
ATOM     56  H9  XLD d           6.537   8.848  25.802  0.00  0.00     0.066 H 
ENDBRANCH  52  53
ENDBRANCH   3  52
TORSDOF 9
ENDMDL
MODEL 5
REMARK VINA RESULT:      -5.4      3.971      7.283
REMARK  9 active torsions:
REMARK  status: ('A' for Active; 'I' for Inactive)
REMARK       I    between atoms: N7_8  and  C9_9 
REMARK    1  A    between atoms: C9_9  and  C11_11 
REMARK    2  A    between atoms: C12_12  and  N19_20 
REMARK    3  A    between atoms: C13_13  and  O17_18 
REMARK    4  A    between atoms: O17_18  and  C18_19 
REMARK       I    between atoms: N19_20  and  C20_21 
REMARK    5  A    between atoms: C20_21  and  C22_23 
REMARK    6  A    between atoms: C25_26  and  C28_29 
REMARK    7  A    between atoms: C28_29  and  N29_30 
REMARK    8  A    between atoms: N29_30  and  C31_31 
REMARK    9  A    between atoms: N29_30  and  C32_32 
ROOT
ATOM      1  C11 XLD d           3.945   3.238  21.103  0.00  0.00     0.063 A 
ATOM      2  C12 XLD d           3.644   2.511  19.879  0.00  0.00     0.084 A 
ATOM      3  C13 XLD d           3.071   1.204  19.954  0.00  0.00     0.097 A 
ATOM      4  C14 XLD d           2.807   0.628  21.227  0.00  0.00    -0.028 A 
ATOM      5  C15 XLD d           3.110   1.338  22.411  0.00  0.00     0.037 A 
ATOM      6 CL2  XLD d           2.812   0.682  23.934  0.00  0.00    -0.084 Cl
ATOM      7  C16 XLD d           3.659   2.614  22.336  0.00  0.00    -0.044 A 
ATOM      8  H5  XLD d           2.371  -0.362  21.289  0.00  0.00     0.090 H 
ATOM      9  H6  XLD d           3.875   3.145  23.255  0.00  0.00     0.087 H 
ENDROOT
BRANCH   2  10
ATOM     10  N19 XLD d           3.933   3.087  18.665  0.00  0.00    -0.319 N 
ATOM     11  C20 XLD d           5.122   3.037  17.993  0.00  0.00     0.264 C 
ATOM     12  O21 XLD d           6.071   2.413  18.541  0.00  0.00    -0.267 OA
ATOM     13  H10 XLD d           3.193   3.597  18.226  0.00  0.00     0.169 HD
BRANCH  11  14
ATOM     14  C22 XLD d           5.373   3.708  16.748  0.00  0.00     0.095 A 
ATOM     15  S23 XLD d           5.581   2.749  15.302  0.00  0.00    -0.094 SA
ATOM     16  C24 XLD d           5.853   4.175  14.391  0.00  0.00    -0.035 A 
ATOM     17  C25 XLD d           5.796   5.361  15.107  0.00  0.00    -0.011 A 
ATOM     18  H11 XLD d           6.057   4.151  13.322  0.00  0.00     0.096 H 
ATOM     19  C26 XLD d           5.508   5.096  16.465  0.00  0.00     0.065 A 
ATOM     20 CL3  XLD d           5.375   6.365  17.597  0.00  0.00    -0.082 Cl
BRANCH  17  21
ATOM     21  C28 XLD d           6.009   6.732  14.541  0.00  0.00     0.024 C 
ATOM     22  H12 XLD d           6.405   6.585  13.525  0.00  0.00     0.071 H 
ATOM     23  H13 XLD d           6.777   7.206  15.169  0.00  0.00     0.071 H 
BRANCH  21  24
ATOM     24  N29 XLD d           4.887   7.737  14.415  0.00  0.00    -0.346 N 
BRANCH  24  25
ATOM     25  C31 XLD d           3.492   7.219  14.378  0.00  0.00    -0.015 C 
ATOM     26  H14 XLD d           2.788   8.048  14.544  0.00  0.00     0.056 H 
ATOM     27  H15 XLD d           3.361   6.463  15.167  0.00  0.00     0.056 H 
ATOM     28  H16 XLD d           3.295   6.762  13.396  0.00  0.00     0.056 H 
ENDBRANCH  24  25
BRANCH  24  29
ATOM     29  C32 XLD d           5.055   8.864  15.258  0.00  0.00     0.239 A 
ATOM     30  N33 XLD d           4.041   9.457  15.931  0.00  0.00    -0.249 NA
ATOM     31  C34 XLD d           4.502  10.545  16.708  0.00  0.00     0.039 A 
ATOM     32  C35 XLD d           6.021  10.576  16.423  0.00  0.00     0.046 A 
ATOM     33  H17 XLD d           4.305  10.376  17.777  0.00  0.00     0.070 H 
ATOM     34  H18 XLD d           4.024  11.485  16.392  0.00  0.00     0.070 H 
ATOM     35  O36 XLD d           6.222   9.490  15.517  0.00  0.00    -0.319 OA
ATOM     36  H19 XLD d           6.596  10.425  17.349  0.00  0.00     0.077 H 
ATOM     37  H20 XLD d           6.313  11.530  15.961  0.00  0.00     0.077 H 
ENDBRANCH  24  29
ENDBRANCH  21  24
ENDBRANCH  17  21
ENDBRANCH  11  14
ENDBRANCH   2  10
BRANCH   1  38
ATOM     38  C9  XLD d           4.523   4.560  21.165  0.00  0.00     0.259 C 
ATOM     39  N7  XLD d           5.840   4.734  20.809  0.00  0.00    -0.307 N 
ATOM     40  C1  XLD d           6.588   5.876  20.832  0.00  0.00     0.130 A 
ATOM     41  H4  XLD d           6.314   3.913  20.491  0.00  0.00     0.170 HD
ATOM     42  N2  XLD d           6.320   6.902  21.702  0.00  0.00    -0.242 NA
ATOM     43  C6  XLD d           7.702   5.992  19.964  0.00  0.00    -0.037 A 
ATOM     44  C3  XLD d           7.035   8.028  21.760  0.00  0.00     0.025 A 
ATOM     45  C4  XLD d           8.143   8.216  20.898  0.00  0.00     0.051 A 
ATOM     46  H1  XLD d           6.766   8.801  22.470  0.00  0.00     0.117 H 
ATOM     47 CL1  XLD d           9.021   9.743  20.877  0.00  0.00    -0.083 Cl
ATOM     48  C5  XLD d           8.478   7.166  20.003  0.00  0.00    -0.057 A 
ATOM     49  H2  XLD d           9.336   7.268  19.347  0.00  0.00     0.086 H 
ATOM     50  H3  XLD d           7.953   5.189  19.281  0.00  0.00     0.089 H 
ATOM     51  O10 XLD d           3.829   5.533  21.569  0.00  0.00    -0.267 OA
ENDBRANCH   1  38
BRANCH   3  52
ATOM     52  O17 XLD d           2.796   0.549  18.791  0.00  0.00    -0.354 OA
BRANCH  52  53
ATOM     53  C18 XLD d           1.537   0.239  18.201  0.00  0.00     0.010 C 
ATOM     54  H7  XLD d           0.751   0.285  18.969  0.00  0.00     0.066 H 
ATOM     55  H8  XLD d           1.573  -0.774  17.773  0.00  0.00     0.066 H 
ATOM     56  H9  XLD d           1.316   0.965  17.406  0.00  0.00     0.066 H 
ENDBRANCH  52  53
ENDBRANCH   3  52
TORSDOF 9
ENDMDL
MODEL 6
REMARK VINA RESULT:      -5.0      3.849      6.351
REMARK  9 active torsions:
REMARK  status: ('A' for Active; 'I' for Inactive)
REMARK       I    between atoms: N7_8  and  C9_9 
REMARK    1  A    between atoms: C9_9  and  C11_11 
REMARK    2  A    between atoms: C12_12  and  N19_20 
REMARK    3  A    between atoms: C13_13  and  O17_18 
REMARK    4  A    between atoms: O17_18  and  C18_19 
REMARK       I    between atoms: N19_20  and  C20_21 
REMARK    5  A    between atoms: C20_21  and  C22_23 
REMARK    6  A    between atoms: C25_26  and  C28_29 
REMARK    7  A    between atoms: C28_29  and  N29_30 
REMARK    8  A    between atoms: N29_30  and  C31_31 
REMARK    9  A    between atoms: N29_30  and  C32_32 
ROOT
ATOM      1  C11 XLD d           4.783   8.351  17.843  0.00  0.00     0.063 A 
ATOM      2  C12 XLD d           4.957   6.986  17.370  0.00  0.00     0.084 A 
ATOM      3  C13 XLD d           5.333   6.750  16.011  0.00  0.00     0.097 A 
ATOM      4  C14 XLD d           5.526   7.854  15.137  0.00  0.00    -0.028 A 
ATOM      5  C15 XLD d           5.347   9.176  15.603  0.00  0.00     0.037 A 
ATOM      6 CL2  XLD d           5.566  10.506  14.592  0.00  0.00    -0.084 Cl
ATOM      7  C16 XLD d           4.990   9.405  16.928  0.00  0.00    -0.044 A 
ATOM      8  H5  XLD d           5.813   7.681  14.106  0.00  0.00     0.090 H 
ATOM      9  H6  XLD d           4.867  10.426  17.268  0.00  0.00     0.087 H 
ENDROOT
BRANCH   2  10
ATOM     10  N19 XLD d           4.740   5.940  18.234  0.00  0.00    -0.319 N 
ATOM     11  C20 XLD d           5.664   5.332  19.037  0.00  0.00     0.264 C 
ATOM     12  O21 XLD d           6.851   5.754  18.977  0.00  0.00    -0.267 OA
ATOM     13  H10 XLD d           3.806   5.585  18.281  0.00  0.00     0.169 HD
BRANCH  11  14
ATOM     14  C22 XLD d           5.381   4.204  19.881  0.00  0.00     0.095 A 
ATOM     15  S23 XLD d           6.659   3.564  20.887  0.00  0.00    -0.094 SA
ATOM     16  C24 XLD d           5.599   2.347  21.465  0.00  0.00    -0.035 A 
ATOM     17  C25 XLD d           4.312   2.382  20.949  0.00  0.00    -0.011 A 
ATOM     18  H11 XLD d           5.915   1.597  22.188  0.00  0.00     0.096 H 
ATOM     19  C26 XLD d           4.180   3.459  20.044  0.00  0.00     0.065 A 
ATOM     20 CL3  XLD d           2.702   3.757  19.246  0.00  0.00    -0.082 Cl
BRANCH  17  21
ATOM     21  C28 XLD d           3.212   1.424  21.289  0.00  0.00     0.024 C 
ATOM     22  H12 XLD d           3.643   0.416  21.194  0.00  0.00     0.071 H 
ATOM     23  H13 XLD d           2.436   1.564  20.522  0.00  0.00     0.071 H 
BRANCH  21  24
ATOM     24  N29 XLD d           2.498   1.453  22.621  0.00  0.00    -0.346 N 
BRANCH  24  25
ATOM     25  C31 XLD d           3.056   0.624  23.725  0.00  0.00    -0.015 C 
ATOM     26  H14 XLD d           4.134   0.820  23.821  0.00  0.00     0.056 H 
ATOM     27  H15 XLD d           2.895  -0.441  23.501  0.00  0.00     0.056 H 
ATOM     28  H16 XLD d           2.551   0.881  24.668  0.00  0.00     0.056 H 
ENDBRANCH  24  25
BRANCH  24  29
ATOM     29  C32 XLD d           2.124   2.760  23.022  0.00  0.00     0.239 A 
ATOM     30  N33 XLD d           2.593   3.368  24.137  0.00  0.00    -0.249 NA
ATOM     31  C34 XLD d           2.064   4.672  24.277  0.00  0.00     0.039 A 
ATOM     32  C35 XLD d           1.143   4.824  23.045  0.00  0.00     0.046 A 
ATOM     33  H17 XLD d           2.867   5.424  24.263  0.00  0.00     0.070 H 
ATOM     34  H18 XLD d           1.491   4.765  25.211  0.00  0.00     0.070 H 
ATOM     35  O36 XLD d           1.274   3.576  22.362  0.00  0.00    -0.319 OA
ATOM     36  H19 XLD d           1.475   5.656  22.407  0.00  0.00     0.077 H 
ATOM     37  H20 XLD d           0.101   4.993  23.354  0.00  0.00     0.077 H 
ENDBRANCH  24  29
ENDBRANCH  21  24
ENDBRANCH  17  21
ENDBRANCH  11  14
ENDBRANCH   2  10
BRANCH   1  38
ATOM     38  C9  XLD d           4.406   8.724  19.187  0.00  0.00     0.259 C 
ATOM     39  N7  XLD d           4.903   8.004  20.248  0.00  0.00    -0.307 N 
ATOM     40  C1  XLD d           4.646   8.159  21.580  0.00  0.00     0.130 A 
ATOM     41  H4  XLD d           5.536   7.267  20.012  0.00  0.00     0.170 HD
ATOM     42  N2  XLD d           3.466   8.688  22.035  0.00  0.00    -0.242 NA
ATOM     43  C6  XLD d           5.606   7.719  22.525  0.00  0.00    -0.037 A 
ATOM     44  C3  XLD d           3.176   8.845  23.329  0.00  0.00     0.025 A 
ATOM     45  C4  XLD d           4.107   8.452  24.322  0.00  0.00     0.051 A 
ATOM     46  H1  XLD d           2.224   9.275  23.620  0.00  0.00     0.117 H 
ATOM     47 CL1  XLD d           3.792   8.764  26.027  0.00  0.00    -0.083 Cl
ATOM     48  C5  XLD d           5.329   7.867  23.898  0.00  0.00    -0.057 A 
ATOM     49  H2  XLD d           6.052   7.533  24.633  0.00  0.00     0.086 H 
ATOM     50  H3  XLD d           6.538   7.275  22.197  0.00  0.00     0.089 H 
ATOM     51  O10 XLD d           3.608   9.683  19.373  0.00  0.00    -0.267 OA
ENDBRANCH   1  38
BRANCH   3  52
ATOM     52  O17 XLD d           5.493   5.461  15.597  0.00  0.00    -0.354 OA
BRANCH  52  53
ATOM     53  C18 XLD d           4.599   4.627  14.867  0.00  0.00     0.010 C 
ATOM     54  H7  XLD d           4.306   3.769  15.490  0.00  0.00     0.066 H 
ATOM     55  H8  XLD d           5.098   4.265  13.956  0.00  0.00     0.066 H 
ATOM     56  H9  XLD d           3.703   5.202  14.591  0.00  0.00     0.066 H 
ENDBRANCH  52  53
ENDBRANCH   3  52
TORSDOF 9
ENDMDL
MODEL 7
REMARK VINA RESULT:      -5.0      3.845      5.587
REMARK  9 active torsions:
REMARK  status: ('A' for Active; 'I' for Inactive)
REMARK       I    between atoms: N7_8  and  C9_9 
REMARK    1  A    between atoms: C9_9  and  C11_11 
REMARK    2  A    between atoms: C12_12  and  N19_20 
REMARK    3  A    between atoms: C13_13  and  O17_18 
REMARK    4  A    between atoms: O17_18  and  C18_19 
REMARK       I    between atoms: N19_20  and  C20_21 
REMARK    5  A    between atoms: C20_21  and  C22_23 
REMARK    6  A    between atoms: C25_26  and  C28_29 
REMARK    7  A    between atoms: C28_29  and  N29_30 
REMARK    8  A    between atoms: N29_30  and  C31_31 
REMARK    9  A    between atoms: N29_30  and  C32_32 
ROOT
ATOM      1  C11 XLD d           6.450   3.099  19.633  0.00  0.00     0.063 A 
ATOM      2  C12 XLD d           6.460   4.534  19.390  0.00  0.00     0.084 A 
ATOM      3  C13 XLD d           7.584   5.135  18.744  0.00  0.00     0.097 A 
ATOM      4  C14 XLD d           8.684   4.323  18.353  0.00  0.00    -0.028 A 
ATOM      5  C15 XLD d           8.669   2.931  18.601  0.00  0.00     0.037 A 
ATOM      6 CL2  XLD d           9.957   1.942  18.153  0.00  0.00    -0.084 Cl
ATOM      7  C16 XLD d           7.570   2.346  19.222  0.00  0.00    -0.044 A 
ATOM      8  H5  XLD d           9.538   4.773  17.862  0.00  0.00     0.090 H 
ATOM      9  H6  XLD d           7.575   1.276  19.394  0.00  0.00     0.087 H 
ENDROOT
BRANCH   2  10
ATOM     10  N19 XLD d           5.391   5.295  19.801  0.00  0.00    -0.319 N 
ATOM     11  C20 XLD d           4.237   5.531  19.109  0.00  0.00     0.264 C 
ATOM     12  O21 XLD d           4.132   5.015  17.962  0.00  0.00    -0.267 OA
ATOM     13  H10 XLD d           5.468   5.721  20.702  0.00  0.00     0.169 HD
BRANCH  11  14
ATOM     14  C22 XLD d           3.177   6.382  19.576  0.00  0.00     0.095 A 
ATOM     15  S23 XLD d           1.725   6.523  18.613  0.00  0.00    -0.094 SA
ATOM     16  C24 XLD d           1.080   7.639  19.744  0.00  0.00    -0.035 A 
ATOM     17  C25 XLD d           1.893   7.925  20.831  0.00  0.00    -0.011 A 
ATOM     18  H11 XLD d           0.099   8.092  19.618  0.00  0.00     0.096 H 
ATOM     19  C26 XLD d           3.099   7.193  20.742  0.00  0.00     0.065 A 
ATOM     20 CL3  XLD d           4.303   7.339  21.942  0.00  0.00    -0.082 Cl
BRANCH  17  21
ATOM     21  C28 XLD d           1.559   8.871  21.943  0.00  0.00     0.024 C 
ATOM     22  H12 XLD d           0.652   9.408  21.627  0.00  0.00     0.071 H 
ATOM     23  H13 XLD d           2.399   9.578  22.006  0.00  0.00     0.071 H 
BRANCH  21  24
ATOM     24  N29 XLD d           1.299   8.399  23.355  0.00  0.00    -0.346 N 
BRANCH  24  25
ATOM     25  C31 XLD d           0.954   6.964  23.554  0.00  0.00    -0.015 C 
ATOM     26  H14 XLD d           0.158   6.678  22.851  0.00  0.00     0.056 H 
ATOM     27  H15 XLD d           0.605   6.811  24.586  0.00  0.00     0.056 H 
ATOM     28  H16 XLD d           1.845   6.344  23.372  0.00  0.00     0.056 H 
ENDBRANCH  24  25
BRANCH  24  29
ATOM     29  C32 XLD d           2.244   8.893  24.289  0.00  0.00     0.239 A 
ATOM     30  N33 XLD d           2.540  10.205  24.438  0.00  0.00    -0.249 NA
ATOM     31  C34 XLD d           3.502  10.407  25.454  0.00  0.00     0.039 A 
ATOM     32  C35 XLD d           3.804   8.977  25.957  0.00  0.00     0.046 A 
ATOM     33  H17 XLD d           3.094  11.031  26.263  0.00  0.00     0.070 H 
ATOM     34  H18 XLD d           4.409  10.881  25.049  0.00  0.00     0.070 H 
ATOM     35  O36 XLD d           2.963   8.147  25.154  0.00  0.00    -0.319 OA
ATOM     36  H19 XLD d           3.551   8.875  27.023  0.00  0.00     0.077 H 
ATOM     37  H20 XLD d           4.863   8.724  25.806  0.00  0.00     0.077 H 
ENDBRANCH  24  29
ENDBRANCH  21  24
ENDBRANCH  17  21
ENDBRANCH  11  14
ENDBRANCH   2  10
BRANCH   1  38
ATOM     38  C9  XLD d           5.380   2.371  20.275  0.00  0.00     0.259 C 
ATOM     39  N7  XLD d           5.060   2.660  21.581  0.00  0.00    -0.307 N 
ATOM     40  C1  XLD d           4.122   2.073  22.380  0.00  0.00     0.130 A 
ATOM     41  H4  XLD d           5.586   3.400  22.001  0.00  0.00     0.170 HD
ATOM     42  N2  XLD d           3.727   0.772  22.200  0.00  0.00    -0.242 NA
ATOM     43  C6  XLD d           3.571   2.809  23.458  0.00  0.00    -0.037 A 
ATOM     44  C3  XLD d           2.821   0.161  22.968  0.00  0.00     0.025 A 
ATOM     45  C4  XLD d           2.213   0.854  24.043  0.00  0.00     0.051 A 
ATOM     46  H1  XLD d           2.551  -0.869  22.767  0.00  0.00     0.117 H 
ATOM     47 CL1  XLD d           0.929   0.104  24.989  0.00  0.00    -0.083 Cl
ATOM     48  C5  XLD d           2.616   2.193  24.289  0.00  0.00    -0.057 A 
ATOM     49  H2  XLD d           2.188   2.743  25.119  0.00  0.00     0.086 H 
ATOM     50  H3  XLD d           3.881   3.832  23.640  0.00  0.00     0.089 H 
ATOM     51  O10 XLD d           4.770   1.464  19.645  0.00  0.00    -0.267 OA
ENDBRANCH   1  38
BRANCH   3  52
ATOM     52  O17 XLD d           7.563   6.480  18.525  0.00  0.00    -0.354 OA
BRANCH  52  53
ATOM     53  C18 XLD d           7.620   7.552  19.462  0.00  0.00     0.010 C 
ATOM     54  H7  XLD d           6.599   7.821  19.773  0.00  0.00     0.066 H 
ATOM     55  H8  XLD d           8.102   8.422  18.994  0.00  0.00     0.066 H 
ATOM     56  H9  XLD d           8.200   7.239  20.342  0.00  0.00     0.066 H 
ENDBRANCH  52  53
ENDBRANCH   3  52
TORSDOF 9
ENDMDL
MODEL 8
REMARK VINA RESULT:      -4.9      4.816      7.768
REMARK  9 active torsions:
REMARK  status: ('A' for Active; 'I' for Inactive)
REMARK       I    between atoms: N7_8  and  C9_9 
REMARK    1  A    between atoms: C9_9  and  C11_11 
REMARK    2  A    between atoms: C12_12  and  N19_20 
REMARK    3  A    between atoms: C13_13  and  O17_18 
REMARK    4  A    between atoms: O17_18  and  C18_19 
REMARK       I    between atoms: N19_20  and  C20_21 
REMARK    5  A    between atoms: C20_21  and  C22_23 
REMARK    6  A    between atoms: C25_26  and  C28_29 
REMARK    7  A    between atoms: C28_29  and  N29_30 
REMARK    8  A    between atoms: N29_30  and  C31_31 
REMARK    9  A    between atoms: N29_30  and  C32_32 
ROOT
ATOM      1  C11 XLD d           3.865   7.681  17.047  0.00  0.00     0.063 A 
ATOM      2  C12 XLD d           2.743   8.203  17.814  0.00  0.00     0.084 A 
ATOM      3  C13 XLD d           2.205   9.488  17.494  0.00  0.00     0.097 A 
ATOM      4  C14 XLD d           2.777  10.243  16.434  0.00  0.00    -0.028 A 
ATOM      5  C15 XLD d           3.871   9.731  15.700  0.00  0.00     0.037 A 
ATOM      6 CL2  XLD d           4.574  10.602  14.440  0.00  0.00    -0.084 Cl
ATOM      7  C16 XLD d           4.388   8.477  16.007  0.00  0.00    -0.044 A 
ATOM      8  H5  XLD d           2.371  11.217  16.187  0.00  0.00     0.090 H 
ATOM      9  H6  XLD d           5.222   8.098  15.426  0.00  0.00     0.087 H 
ENDROOT
BRANCH   2  10
ATOM     10  N19 XLD d           2.227   7.458  18.847  0.00  0.00    -0.319 N 
ATOM     11  C20 XLD d           2.625   7.481  20.155  0.00  0.00     0.264 C 
ATOM     12  O21 XLD d           3.577   8.251  20.458  0.00  0.00    -0.267 OA
ATOM     13  H10 XLD d           1.481   6.833  18.618  0.00  0.00     0.169 HD
BRANCH  11  14
ATOM     14  C22 XLD d           2.078   6.635  21.178  0.00  0.00     0.095 A 
ATOM     15  S23 XLD d           1.532   7.364  22.670  0.00  0.00    -0.094 SA
ATOM     16  C24 XLD d           1.118   5.816  23.279  0.00  0.00    -0.035 A 
ATOM     17  C25 XLD d           1.360   4.753  22.422  0.00  0.00    -0.011 A 
ATOM     18  H11 XLD d           0.693   5.677  24.272  0.00  0.00     0.096 H 
ATOM     19  C26 XLD d           1.904   5.223  21.205  0.00  0.00     0.065 A 
ATOM     20 CL3  XLD d           2.307   4.141  19.950  0.00  0.00    -0.082 Cl
BRANCH  17  21
ATOM     21  C28 XLD d           1.095   3.311  22.727  0.00  0.00     0.024 C 
ATOM     22  H12 XLD d           0.855   2.833  21.765  0.00  0.00     0.071 H 
ATOM     23  H13 XLD d           0.208   3.293  23.376  0.00  0.00     0.071 H 
BRANCH  21  24
ATOM     24  N29 XLD d           2.121   2.423  23.393  0.00  0.00    -0.346 N 
BRANCH  24  25
ATOM     25  C31 XLD d           1.722   1.026  23.721  0.00  0.00    -0.015 C 
ATOM     26  H14 XLD d           1.820   0.398  22.823  0.00  0.00     0.056 H 
ATOM     27  H15 XLD d           0.678   1.014  24.066  0.00  0.00     0.056 H 
ATOM     28  H16 XLD d           2.375   0.635  24.515  0.00  0.00     0.056 H 
ENDBRANCH  24  25
BRANCH  24  29
ATOM     29  C32 XLD d           3.408   2.526  22.808  0.00  0.00     0.239 A 
ATOM     30  N33 XLD d           3.916   1.617  21.944  0.00  0.00    -0.249 NA
ATOM     31  C34 XLD d           5.210   1.985  21.506  0.00  0.00     0.039 A 
ATOM     32  C35 XLD d           5.479   3.315  22.248  0.00  0.00     0.046 A 
ATOM     33  H17 XLD d           5.229   2.132  20.417  0.00  0.00     0.070 H 
ATOM     34  H18 XLD d           5.951   1.222  21.786  0.00  0.00     0.070 H 
ATOM     35  O36 XLD d           4.290   3.527  23.012  0.00  0.00    -0.319 OA
ATOM     36  H19 XLD d           5.637   4.136  21.535  0.00  0.00     0.077 H 
ATOM     37  H20 XLD d           6.356   3.225  22.906  0.00  0.00     0.077 H 
ENDBRANCH  24  29
ENDBRANCH  21  24
ENDBRANCH  17  21
ENDBRANCH  11  14
ENDBRANCH   2  10
BRANCH   1  38
ATOM     38  C9  XLD d           4.499   6.402  17.268  0.00  0.00     0.259 C 
ATOM     39  N7  XLD d           5.796   6.367  17.727  0.00  0.00    -0.307 N 
ATOM     40  C1  XLD d           6.588   5.280  17.962  0.00  0.00     0.130 A 
ATOM     41  H4  XLD d           6.213   7.256  17.912  0.00  0.00     0.170 HD
ATOM     42  N2  XLD d           6.422   4.099  17.285  0.00  0.00    -0.242 NA
ATOM     43  C6  XLD d           7.646   5.385  18.900  0.00  0.00    -0.037 A 
ATOM     44  C3  XLD d           7.184   3.021  17.481  0.00  0.00     0.025 A 
ATOM     45  C4  XLD d           8.238   3.053  18.426  0.00  0.00     0.051 A 
ATOM     46  H1  XLD d           6.995   2.116  16.913  0.00  0.00     0.117 H 
ATOM     47 CL1  XLD d           9.174   1.604  18.784  0.00  0.00    -0.083 Cl
ATOM     48  C5  XLD d           8.470   4.266  19.127  0.00  0.00    -0.057 A 
ATOM     49  H2  XLD d           9.285   4.332  19.839  0.00  0.00     0.086 H 
ATOM     50  H3  XLD d           7.817   6.312  19.434  0.00  0.00     0.089 H 
ATOM     51  O10 XLD d           3.874   5.337  17.014  0.00  0.00    -0.267 OA
ENDBRANCH   1  38
BRANCH   3  52
ATOM     52  O17 XLD d           1.152   9.950  18.226  0.00  0.00    -0.354 OA
BRANCH  52  53
ATOM     53  C18 XLD d           1.145  10.604  19.491  0.00  0.00     0.010 C 
ATOM     54  H7  XLD d           1.988  10.240  20.097  0.00  0.00     0.066 H 
ATOM     55  H8  XLD d           0.199  10.388  20.010  0.00  0.00     0.066 H 
ATOM     56  H9  XLD d           1.242  11.689  19.342  0.00  0.00     0.066 H 
ENDBRANCH  52  53
ENDBRANCH   3  52
TORSDOF 9
ENDMDL
MODEL 9
REMARK VINA RESULT:      -4.5      3.083      7.722
REMARK  9 active torsions:
REMARK  status: ('A' for Active; 'I' for Inactive)
REMARK       I    between atoms: N7_8  and  C9_9 
REMARK    1  A    between atoms: C9_9  and  C11_11 
REMARK    2  A    between atoms: C12_12  and  N19_20 
REMARK    3  A    between atoms: C13_13  and  O17_18 
REMARK    4  A    between atoms: O17_18  and  C18_19 
REMARK       I    between atoms: N19_20  and  C20_21 
REMARK    5  A    between atoms: C20_21  and  C22_23 
REMARK    6  A    between atoms: C25_26  and  C28_29 
REMARK    7  A    between atoms: C28_29  and  N29_30 
REMARK    8  A    between atoms: N29_30  and  C31_31 
REMARK    9  A    between atoms: N29_30  and  C32_32 
ROOT
ATOM      1  C11 XLD d           2.551   7.299  23.511  0.00  0.00     0.063 A 
ATOM      2  C12 XLD d           3.856   7.940  23.442  0.00  0.00     0.084 A 
ATOM      3  C13 XLD d           4.225   8.903  24.431  0.00  0.00     0.097 A 
ATOM      4  C14 XLD d           3.308   9.229  25.467  0.00  0.00    -0.028 A 
ATOM      5  C15 XLD d           2.039   8.608  25.522  0.00  0.00     0.037 A 
ATOM      6 CL2  XLD d           0.929   8.974  26.735  0.00  0.00    -0.084 Cl
ATOM      7  C16 XLD d           1.686   7.664  24.564  0.00  0.00    -0.044 A 
ATOM      8  H5  XLD d           3.583   9.958  26.220  0.00  0.00     0.090 H 
ATOM      9  H6  XLD d           0.712   7.192  24.629  0.00  0.00     0.087 H 
ENDROOT
BRANCH   2  10
ATOM     10  N19 XLD d           4.711   7.620  22.414  0.00  0.00    -0.319 N 
ATOM     11  C20 XLD d           5.456   6.481  22.290  0.00  0.00     0.264 C 
ATOM     12  O21 XLD d           5.374   5.630  23.218  0.00  0.00    -0.267 OA
ATOM     13  H10 XLD d           4.796   8.292  21.679  0.00  0.00     0.169 HD
BRANCH  11  14
ATOM     14  C22 XLD d           6.373   6.232  21.212  0.00  0.00     0.095 A 
ATOM     15  S23 XLD d           7.542   7.465  20.801  0.00  0.00    -0.094 SA
ATOM     16  C24 XLD d           8.135   6.482  19.528  0.00  0.00    -0.035 A 
ATOM     17  C25 XLD d           7.508   5.253  19.380  0.00  0.00    -0.011 A 
ATOM     18  H11 XLD d           8.950   6.800  18.879  0.00  0.00     0.096 H 
ATOM     19  C26 XLD d           6.499   5.102  20.357  0.00  0.00     0.065 A 
ATOM     20 CL3  XLD d           5.551   3.686  20.426  0.00  0.00    -0.082 Cl
BRANCH  17  21
ATOM     21  C28 XLD d           7.837   4.227  18.340  0.00  0.00     0.024 C 
ATOM     22  H12 XLD d           8.116   3.314  18.887  0.00  0.00     0.071 H 
ATOM     23  H13 XLD d           8.714   4.611  17.798  0.00  0.00     0.071 H 
BRANCH  21  24
ATOM     24  N29 XLD d           6.844   3.799  17.284  0.00  0.00    -0.346 N 
BRANCH  24  25
ATOM     25  C31 XLD d           6.301   4.848  16.376  0.00  0.00    -0.015 C 
ATOM     26  H14 XLD d           5.901   5.679  16.975  0.00  0.00     0.056 H 
ATOM     27  H15 XLD d           5.498   4.419  15.759  0.00  0.00     0.056 H 
ATOM     28  H16 XLD d           7.106   5.220  15.724  0.00  0.00     0.056 H 
ENDBRANCH  24  25
BRANCH  24  29
ATOM     29  C32 XLD d           7.222   2.608  16.616  0.00  0.00     0.239 A 
ATOM     30  N33 XLD d           6.403   1.916  15.789  0.00  0.00    -0.249 NA
ATOM     31  C34 XLD d           7.050   0.781  15.249  0.00  0.00     0.039 A 
ATOM     32  C35 XLD d           8.462   0.836  15.877  0.00  0.00     0.046 A 
ATOM     33  H17 XLD d           7.105   0.845  14.153  0.00  0.00     0.070 H 
ATOM     34  H18 XLD d           6.527  -0.144  15.537  0.00  0.00     0.070 H 
ATOM     35  O36 XLD d           8.428   2.007  16.695  0.00  0.00    -0.319 OA
ATOM     36  H19 XLD d           9.234   0.924  15.099  0.00  0.00     0.077 H 
ATOM     37  H20 XLD d           8.655  -0.060  16.485  0.00  0.00     0.077 H 
ENDBRANCH  24  29
ENDBRANCH  21  24
ENDBRANCH  17  21
ENDBRANCH  11  14
ENDBRANCH   2  10
BRANCH   1  38
ATOM     38  C9  XLD d           2.058   6.313  22.578  0.00  0.00     0.259 C 
ATOM     39  N7  XLD d           2.400   4.993  22.754  0.00  0.00    -0.307 N 
ATOM     40  C1  XLD d           2.080   3.917  21.976  0.00  0.00     0.130 A 
ATOM     41  H4  XLD d           2.959   4.794  23.559  0.00  0.00     0.170 HD
ATOM     42  N2  XLD d           1.830   4.041  20.633  0.00  0.00    -0.242 NA
ATOM     43  C6  XLD d           2.049   2.626  22.559  0.00  0.00    -0.037 A 
ATOM     44  C3  XLD d           1.525   3.011  19.840  0.00  0.00     0.025 A 
ATOM     45  C4  XLD d           1.449   1.699  20.369  0.00  0.00     0.051 A 
ATOM     46  H1  XLD d           1.334   3.180  18.786  0.00  0.00     0.117 H 
ATOM     47 CL1  XLD d           0.929   0.349  19.364  0.00  0.00    -0.083 Cl
ATOM     48  C5  XLD d           1.734   1.518  21.749  0.00  0.00    -0.057 A 
ATOM     49  H2  XLD d           1.709   0.524  22.180  0.00  0.00     0.086 H 
ATOM     50  H3  XLD d           2.265   2.493  23.612  0.00  0.00     0.089 H 
ATOM     51  O10 XLD d           1.346   6.672  21.601  0.00  0.00    -0.267 OA
ENDBRANCH   1  38
BRANCH   3  52
ATOM     52  O17 XLD d           5.455   9.484  24.344  0.00  0.00    -0.354 OA
BRANCH  52  53
ATOM     53  C18 XLD d           6.700   9.056  24.888  0.00  0.00     0.010 C 
ATOM     54  H7  XLD d           7.514   9.328  24.200  0.00  0.00     0.066 H 
ATOM     55  H8  XLD d           6.684   7.965  25.026  0.00  0.00     0.066 H 
ATOM     56  H9  XLD d           6.862   9.546  25.859  0.00  0.00     0.066 H 
ENDBRANCH  52  53
ENDBRANCH   3  52
TORSDOF 9
ENDMDL
MODEL 10
REMARK VINA RESULT:      -4.0      3.927      7.043
REMARK  9 active torsions:
REMARK  status: ('A' for Active; 'I' for Inactive)
REMARK       I    between atoms: N7_8  and  C9_9 
REMARK    1  A    between atoms: C9_9  and  C11_11 
REMARK    2  A    between atoms: C12_12  and  N19_20 
REMARK    3  A    between atoms: C13_13  and  O17_18 
REMARK    4  A    between atoms: O17_18  and  C18_19 
REMARK       I    between atoms: N19_20  and  C20_21 
REMARK    5  A    between atoms: C20_21  and  C22_23 
REMARK    6  A    between atoms: C25_26  and  C28_29 
REMARK    7  A    between atoms: C28_29  and  N29_30 
REMARK    8  A    between atoms: N29_30  and  C31_31 
REMARK    9  A    between atoms: N29_30  and  C32_32 
ROOT
ATOM      1  C11 XLD d           3.917   3.631  21.498  0.00  0.00     0.063 A 
ATOM      2  C12 XLD d           2.927   3.603  20.432  0.00  0.00     0.084 A 
ATOM      3  C13 XLD d           1.844   2.673  20.496  0.00  0.00     0.097 A 
ATOM      4  C14 XLD d           1.751   1.782  21.599  0.00  0.00    -0.028 A 
ATOM      5  C15 XLD d           2.722   1.811  22.626  0.00  0.00     0.037 A 
ATOM      6 CL2  XLD d           2.642   0.766  23.946  0.00  0.00    -0.084 Cl
ATOM      7  C16 XLD d           3.771   2.722  22.567  0.00  0.00    -0.044 A 
ATOM      8  H5  XLD d           0.931   1.076  21.654  0.00  0.00     0.090 H 
ATOM      9  H6  XLD d           4.500   2.735  23.369  0.00  0.00     0.087 H 
ENDROOT
BRANCH   2  10
ATOM     10  N19 XLD d           3.058   4.463  19.367  0.00  0.00    -0.319 N 
ATOM     11  C20 XLD d           3.769   4.248  18.220  0.00  0.00     0.264 C 
ATOM     12  O21 XLD d           4.391   3.155  18.119  0.00  0.00    -0.267 OA
ATOM     13  H10 XLD d           2.582   5.339  19.440  0.00  0.00     0.169 HD
BRANCH  11  14
ATOM     14  C22 XLD d           3.908   5.214  17.165  0.00  0.00     0.095 A 
ATOM     15  S23 XLD d           2.829   5.123  15.794  0.00  0.00    -0.094 SA
ATOM     16  C24 XLD d           3.624   6.460  15.075  0.00  0.00    -0.035 A 
ATOM     17  C25 XLD d           4.674   6.995  15.807  0.00  0.00    -0.011 A 
ATOM     18  H11 XLD d           3.326   6.863  14.108  0.00  0.00     0.096 H 
ATOM     19  C26 XLD d           4.833   6.285  17.019  0.00  0.00     0.065 A 
ATOM     20 CL3  XLD d           6.051   6.714  18.133  0.00  0.00    -0.082 Cl
BRANCH  17  21
ATOM     21  C28 XLD d           5.527   8.153  15.389  0.00  0.00     0.024 C 
ATOM     22  H12 XLD d           5.279   8.351  14.335  0.00  0.00     0.071 H 
ATOM     23  H13 XLD d           6.568   7.808  15.462  0.00  0.00     0.071 H 
BRANCH  21  24
ATOM     24  N29 XLD d           5.475   9.490  16.092  0.00  0.00    -0.346 N 
BRANCH  24  25
ATOM     25  C31 XLD d           6.285  10.604  15.524  0.00  0.00    -0.015 C 
ATOM     26  H14 XLD d           5.882  11.565  15.875  0.00  0.00     0.056 H 
ATOM     27  H15 XLD d           6.242  10.566  14.426  0.00  0.00     0.056 H 
ATOM     28  H16 XLD d           7.330  10.502  15.854  0.00  0.00     0.056 H 
ENDBRANCH  24  25
BRANCH  24  29
ATOM     29  C32 XLD d           4.162   9.872  16.464  0.00  0.00     0.239 A 
ATOM     30  N33 XLD d           3.765  10.052  17.745  0.00  0.00    -0.249 NA
ATOM     31  C34 XLD d           2.410  10.450  17.816  0.00  0.00     0.039 A 
ATOM     32  C35 XLD d           1.968  10.498  16.335  0.00  0.00     0.046 A 
ATOM     33  H17 XLD d           2.316  11.440  18.286  0.00  0.00     0.070 H 
ATOM     34  H18 XLD d           1.814   9.718  18.381  0.00  0.00     0.070 H 
ATOM     35  O36 XLD d           3.142  10.120  15.615  0.00  0.00    -0.319 OA
ATOM     36  H19 XLD d           1.646  11.511  16.055  0.00  0.00     0.077 H 
ATOM     37  H20 XLD d           1.149   9.788  16.149  0.00  0.00     0.077 H 
ENDBRANCH  24  29
ENDBRANCH  21  24
ENDBRANCH  17  21
ENDBRANCH  11  14
ENDBRANCH   2  10
BRANCH   1  38
ATOM     38  C9  XLD d           5.056   4.519  21.553  0.00  0.00     0.259 C 
ATOM     39  N7  XLD d           5.006   5.625  22.368  0.00  0.00    -0.307 N 
ATOM     40  C1  XLD d           5.943   6.604  22.537  0.00  0.00     0.130 A 
ATOM     41  H4  XLD d           4.171   5.727  22.908  0.00  0.00     0.170 HD
ATOM     42  N2  XLD d           6.835   6.934  21.549  0.00  0.00    -0.242 NA
ATOM     43  C6  XLD d           5.969   7.335  23.751  0.00  0.00    -0.037 A 
ATOM     44  C3  XLD d           7.757   7.891  21.675  0.00  0.00     0.025 A 
ATOM     45  C4  XLD d           7.853   8.637  22.875  0.00  0.00     0.051 A 
ATOM     46  H1  XLD d           8.436   8.098  20.855  0.00  0.00     0.117 H 
ATOM     47 CL1  XLD d           9.141   9.818  23.103  0.00  0.00    -0.083 Cl
ATOM     48  C5  XLD d           6.927   8.353  23.914  0.00  0.00    -0.057 A 
ATOM     49  H2  XLD d           6.958   8.923  24.836  0.00  0.00     0.086 H 
ATOM     50  H3  XLD d           5.262   7.113  24.542  0.00  0.00     0.089 H 
ATOM     51  O10 XLD d           6.068   4.288  20.837  0.00  0.00    -0.267 OA
ENDBRANCH   1  38
BRANCH   3  52
ATOM     52  O17 XLD d           0.929   2.673  19.486  0.00  0.00    -0.354 OA
BRANCH  52  53
ATOM     53  C18 XLD d           1.082   2.280  18.125  0.00  0.00     0.010 C 
ATOM     54  H7  XLD d           2.083   1.849  17.978  0.00  0.00     0.066 H 
ATOM     55  H8  XLD d           0.962   3.159  17.475  0.00  0.00     0.066 H 
ATOM     56  H9  XLD d           0.319   1.530  17.872  0.00  0.00     0.066 H 
ENDBRANCH  52  53
ENDBRANCH   3  52
TORSDOF 9
ENDMDL
