MODEL 1
REMARK VINA RESULT:      -9.5      0.000      0.000
REMARK  7 active torsions:
REMARK  status: ('A' for Active; 'I' for Inactive)
REMARK    1  A    between atoms: P_1  and  O5'_5 
REMARK    2  A    between atoms: O5'_5  and  C5'_6 
REMARK    3  A    between atoms: C5'_6  and  C4'_7 
REMARK    4  A    between atoms: C3'_9  and  O3'_10 
REMARK    5  A    between atoms: C2'_11  and  O2'_12 
REMARK    6  A    between atoms: C1'_13  and  N1_14 
REMARK    7  A    between atoms: C6_21  and  O1_22 
ROOT
ATOM      1  C4' BMP d          39.277  37.984  37.482  0.00  0.00     0.089 C 
ATOM      2  O4' BMP d          40.157  38.696  38.360  0.00  0.00    -0.353 OA
ATOM      3  C3' BMP d          38.697  39.011  36.531  0.00  0.00     0.091 C 
ATOM      4  C2' BMP d          39.821  40.047  36.465  0.00  0.00     0.105 C 
ATOM      5  C1' BMP d          40.454  39.960  37.856  0.00  0.00     0.143 C 
ATOM      6  H3  BMP d          38.436  37.580  38.065  0.00  0.00     0.090 H 
ATOM      7  H4  BMP d          38.501  38.567  35.544  0.00  0.00     0.091 H 
ATOM      8  H6  BMP d          40.558  39.741  35.708  0.00  0.00     0.093 H 
ATOM      9  H8  BMP d          39.910  40.692  38.471  0.00  0.00     0.123 H 
ENDROOT
BRANCH   5  10
ATOM     10  N1  BMP d          41.875  40.299  38.046  0.00  0.00    -0.249 N 
ATOM     11  C6  BMP d          42.255  41.182  39.075  0.00  0.00     0.153 A 
ATOM     12  C5  BMP d          43.540  41.504  39.261  0.00  0.00     0.032 A 
ATOM     13  C4  BMP d          44.577  40.964  38.424  0.00  0.00     0.253 A 
ATOM     14  H10 BMP d          43.806  42.191  40.063  0.00  0.00     0.098 H 
ATOM     15  N3  BMP d          44.127  40.089  37.436  0.00  0.00    -0.275 N 
ATOM     16  O4  BMP d          45.773  41.178  38.494  0.00  0.00    -0.268 OA
ATOM     17  C2  BMP d          42.833  39.719  37.196  0.00  0.00     0.333 A 
ATOM     18  H9  BMP d          44.824  39.691  36.840  0.00  0.00     0.173 HD
ATOM     19  O2  BMP d          42.495  38.941  36.324  0.00  0.00    -0.246 OA
BRANCH  11  20
ATOM     20  O1  BMP d          41.336  41.634  39.800  0.00  0.00    -0.346 OA
ATOM     21  H11 BMP d          41.708  42.215  40.455  0.00  0.00     0.219 HD
ENDBRANCH  11  20
ENDBRANCH   5  10
BRANCH   4  22
ATOM     22  O2' BMP d          39.368  41.369  36.117  0.00  0.00    -0.388 OA
ATOM     23  H7  BMP d          38.715  41.654  36.744  0.00  0.00     0.210 HD
ENDBRANCH   4  22
BRANCH   1  24
ATOM     24  C5' BMP d          40.022  36.792  36.924  0.00  0.00     0.059 C 
ATOM     25  H1  BMP d          40.892  37.130  36.342  0.00  0.00     0.079 H 
ATOM     26  H2  BMP d          40.362  36.144  37.745  0.00  0.00     0.079 H 
BRANCH  24  27
ATOM     27  O5' BMP d          39.121  36.079  36.083  0.00  0.00    -0.280 OA
BRANCH  27  28
ATOM     28  P   BMP d          39.534  34.727  35.339  0.00  0.00     0.422 P 
ATOM     29  O3P BMP d          39.622  33.586  36.483  0.00  0.00    -0.617 OA
ATOM     30  O2P BMP d          38.381  34.381  34.481  0.00  0.00    -0.617 OA
ATOM     31  O1P BMP d          40.768  34.865  34.490  0.00  0.00    -0.617 OA
ENDBRANCH  27  28
ENDBRANCH  24  27
ENDBRANCH   1  24
BRANCH   3  32
ATOM     32  O3' BMP d          37.488  39.608  37.034  0.00  0.00    -0.390 OA
ATOM     33  H5  BMP d          37.223  40.315  36.458  0.00  0.00     0.210 HD
ENDBRANCH   3  32
TORSDOF 7
ENDMDL
