MODEL 1
REMARK VINA RESULT:      -8.0      0.000      0.000
REMARK  7 active torsions:
REMARK  status: ('A' for Active; 'I' for Inactive)
REMARK    1  A    between atoms: P_1  and  O5'_5 
REMARK    2  A    between atoms: O5'_5  and  C5'_6 
REMARK    3  A    between atoms: C5'_6  and  C4'_7 
REMARK    4  A    between atoms: C3'_9  and  O3'_10 
REMARK    5  A    between atoms: C2'_11  and  O2'_12 
REMARK    6  A    between atoms: C1'_13  and  N1_14 
REMARK    7  A    between atoms: C6_21  and  O1_22 
ROOT
ATOM      1  C4' BMP d          38.999  38.454  36.684  0.00  0.00     0.089 C 
ATOM      2  O4' BMP d          39.907  38.748  37.753  0.00  0.00    -0.353 OA
ATOM      3  C3' BMP d          38.274  39.747  36.372  0.00  0.00     0.091 C 
ATOM      4  C2' BMP d          39.320  40.795  36.756  0.00  0.00     0.105 C 
ATOM      5  C1' BMP d          40.079  40.122  37.902  0.00  0.00     0.143 C 
ATOM      6  H3  BMP d          38.240  37.743  37.043  0.00  0.00     0.090 H 
ATOM      7  H4  BMP d          38.018  39.806  35.304  0.00  0.00     0.091 H 
ATOM      8  H6  BMP d          40.004  40.957  35.910  0.00  0.00     0.093 H 
ATOM      9  H8  BMP d          39.547  40.419  38.818  0.00  0.00     0.123 H 
ENDROOT
BRANCH   5  10
ATOM     10  N1  BMP d          41.487  40.467  38.162  0.00  0.00    -0.249 N 
ATOM     11  C6  BMP d          42.484  40.091  37.242  0.00  0.00     0.153 A 
ATOM     12  C5  BMP d          43.769  40.391  37.463  0.00  0.00     0.032 A 
ATOM     13  C4  BMP d          44.180  41.106  38.641  0.00  0.00     0.253 A 
ATOM     14  H10 BMP d          44.520  40.087  36.734  0.00  0.00     0.098 H 
ATOM     15  N3  BMP d          43.138  41.453  39.500  0.00  0.00    -0.275 N 
ATOM     16  O4  BMP d          45.309  41.435  38.952  0.00  0.00    -0.268 OA
ATOM     17  C2  BMP d          41.810  41.179  39.331  0.00  0.00     0.333 A 
ATOM     18  H9  BMP d          43.390  41.956  40.327  0.00  0.00     0.173 HD
ATOM     19  O2  BMP d          40.937  41.517  40.109  0.00  0.00    -0.246 OA
BRANCH  11  20
ATOM     20  O1  BMP d          42.104  39.477  36.215  0.00  0.00    -0.346 OA
ATOM     21  H11 BMP d          42.390  38.572  36.264  0.00  0.00     0.219 HD
ENDBRANCH  11  20
ENDBRANCH   5  10
BRANCH   4  22
ATOM     22  O2' BMP d          38.757  42.073  37.107  0.00  0.00    -0.388 OA
ATOM     23  H7  BMP d          39.199  42.757  36.618  0.00  0.00     0.210 HD
ENDBRANCH   4  22
BRANCH   1  24
ATOM     24  C5' BMP d          39.764  37.747  35.588  0.00  0.00     0.059 C 
ATOM     25  H1  BMP d          39.063  37.268  34.889  0.00  0.00     0.079 H 
ATOM     26  H2  BMP d          40.389  38.468  35.042  0.00  0.00     0.079 H 
BRANCH  24  27
ATOM     27  O5' BMP d          40.584  36.762  36.207  0.00  0.00    -0.280 OA
BRANCH  27  28
ATOM     28  P   BMP d          40.056  35.288  36.527  0.00  0.00     0.422 P 
ATOM     29  O3P BMP d          39.474  34.700  35.137  0.00  0.00    -0.617 OA
ATOM     30  O2P BMP d          41.263  34.498  36.852  0.00  0.00    -0.617 OA
ATOM     31  O1P BMP d          39.097  35.236  37.685  0.00  0.00    -0.617 OA
ENDBRANCH  27  28
ENDBRANCH  24  27
ENDBRANCH   1  24
BRANCH   3  32
ATOM     32  O3' BMP d          37.079  39.914  37.157  0.00  0.00    -0.390 OA
ATOM     33  H5  BMP d          36.488  39.189  36.991  0.00  0.00     0.210 HD
ENDBRANCH   3  32
TORSDOF 7
ENDMDL
MODEL 2
REMARK VINA RESULT:      -5.3      2.830      5.866
REMARK  7 active torsions:
REMARK  status: ('A' for Active; 'I' for Inactive)
REMARK    1  A    between atoms: P_1  and  O5'_5 
REMARK    2  A    between atoms: O5'_5  and  C5'_6 
REMARK    3  A    between atoms: C5'_6  and  C4'_7 
REMARK    4  A    between atoms: C3'_9  and  O3'_10 
REMARK    5  A    between atoms: C2'_11  and  O2'_12 
REMARK    6  A    between atoms: C1'_13  and  N1_14 
REMARK    7  A    between atoms: C6_21  and  O1_22 
ROOT
ATOM      1  C4' BMP d          40.654  41.053  37.323  0.00  0.00     0.089 C 
ATOM      2  O4' BMP d          40.606  40.219  36.159  0.00  0.00    -0.353 OA
ATOM      3  C3' BMP d          39.220  41.414  37.650  0.00  0.00     0.091 C 
ATOM      4  C2' BMP d          38.461  40.195  37.121  0.00  0.00     0.105 C 
ATOM      5  C1' BMP d          39.316  39.743  35.935  0.00  0.00     0.143 C 
ATOM      6  H3  BMP d          41.169  41.992  37.071  0.00  0.00     0.090 H 
ATOM      7  H4  BMP d          39.082  41.533  38.735  0.00  0.00     0.091 H 
ATOM      8  H6  BMP d          38.453  39.407  37.888  0.00  0.00     0.093 H 
ATOM      9  H8  BMP d          38.917  40.283  35.064  0.00  0.00     0.123 H 
ENDROOT
BRANCH   5  10
ATOM     10  N1  BMP d          39.325  38.329  35.523  0.00  0.00    -0.249 N 
ATOM     11  C6  BMP d          40.260  37.439  36.085  0.00  0.00     0.153 A 
ATOM     12  C5  BMP d          40.286  36.152  35.720  0.00  0.00     0.032 A 
ATOM     13  C4  BMP d          39.365  35.630  34.747  0.00  0.00     0.253 A 
ATOM     14  H10 BMP d          41.021  35.486  36.170  0.00  0.00     0.098 H 
ATOM     15  N3  BMP d          38.463  36.566  34.243  0.00  0.00    -0.275 N 
ATOM     16  O4  BMP d          39.290  34.487  34.336  0.00  0.00    -0.268 OA
ATOM     17  C2  BMP d          38.384  37.889  34.575  0.00  0.00     0.333 A 
ATOM     18  H9  BMP d          37.805  36.234  33.567  0.00  0.00     0.173 HD
ATOM     19  O2  BMP d          37.567  38.663  34.111  0.00  0.00    -0.246 OA
BRANCH  11  20
ATOM     20  O1  BMP d          41.048  37.912  36.940  0.00  0.00    -0.346 OA
ATOM     21  H11 BMP d          41.718  38.425  36.503  0.00  0.00     0.219 HD
ENDBRANCH  11  20
ENDBRANCH   5  10
BRANCH   4  22
ATOM     22  O2' BMP d          37.091  40.473  36.774  0.00  0.00    -0.388 OA
ATOM     23  H7  BMP d          36.808  41.264  37.217  0.00  0.00     0.210 HD
ENDBRANCH   4  22
BRANCH   1  24
ATOM     24  C5' BMP d          41.505  40.366  38.367  0.00  0.00     0.059 C 
ATOM     25  H1  BMP d          41.579  40.995  39.266  0.00  0.00     0.079 H 
ATOM     26  H2  BMP d          41.061  39.396  38.635  0.00  0.00     0.079 H 
BRANCH  24  27
ATOM     27  O5' BMP d          42.798  40.170  37.804  0.00  0.00    -0.280 OA
BRANCH  27  28
ATOM     28  P   BMP d          43.992  41.209  38.020  0.00  0.00     0.422 P 
ATOM     29  O3P BMP d          45.310  40.531  37.373  0.00  0.00    -0.617 OA
ATOM     30  O2P BMP d          43.656  42.377  37.177  0.00  0.00    -0.617 OA
ATOM     31  O1P BMP d          44.146  41.651  39.449  0.00  0.00    -0.617 OA
ENDBRANCH  27  28
ENDBRANCH  24  27
ENDBRANCH   1  24
BRANCH   3  32
ATOM     32  O3' BMP d          38.785  42.610  36.980  0.00  0.00    -0.390 OA
ATOM     33  H5  BMP d          37.970  42.910  37.367  0.00  0.00     0.210 HD
ENDBRANCH   3  32
TORSDOF 7
ENDMDL
MODEL 3
REMARK VINA RESULT:      -5.2      1.955      3.953
REMARK  7 active torsions:
REMARK  status: ('A' for Active; 'I' for Inactive)
REMARK    1  A    between atoms: P_1  and  O5'_5 
REMARK    2  A    between atoms: O5'_5  and  C5'_6 
REMARK    3  A    between atoms: C5'_6  and  C4'_7 
REMARK    4  A    between atoms: C3'_9  and  O3'_10 
REMARK    5  A    between atoms: C2'_11  and  O2'_12 
REMARK    6  A    between atoms: C1'_13  and  N1_14 
REMARK    7  A    between atoms: C6_21  and  O1_22 
ROOT
ATOM      1  C4' BMP d          39.585  37.317  35.075  0.00  0.00     0.089 C 
ATOM      2  O4' BMP d          40.734  38.067  35.488  0.00  0.00    -0.353 OA
ATOM      3  C3' BMP d          39.490  36.130  36.011  0.00  0.00     0.091 C 
ATOM      4  C2' BMP d          40.120  36.687  37.290  0.00  0.00     0.105 C 
ATOM      5  C1' BMP d          41.152  37.685  36.761  0.00  0.00     0.143 C 
ATOM      6  H3  BMP d          39.763  36.914  34.067  0.00  0.00     0.090 H 
ATOM      7  H4  BMP d          38.442  35.839  36.172  0.00  0.00     0.091 H 
ATOM      8  H6  BMP d          39.355  37.224  37.870  0.00  0.00     0.093 H 
ATOM      9  H8  BMP d          42.080  37.108  36.638  0.00  0.00     0.123 H 
ENDROOT
BRANCH   5  10
ATOM     10  N1  BMP d          41.543  38.850  37.574  0.00  0.00    -0.249 N 
ATOM     11  C6  BMP d          42.660  39.622  37.204  0.00  0.00     0.153 A 
ATOM     12  C5  BMP d          43.033  40.680  37.932  0.00  0.00     0.032 A 
ATOM     13  C4  BMP d          42.311  41.070  39.114  0.00  0.00     0.253 A 
ATOM     14  H10 BMP d          43.902  41.260  37.624  0.00  0.00     0.098 H 
ATOM     15  N3  BMP d          41.212  40.265  39.411  0.00  0.00    -0.275 N 
ATOM     16  O4  BMP d          42.549  42.005  39.853  0.00  0.00    -0.268 OA
ATOM     17  C2  BMP d          40.779  39.175  38.709  0.00  0.00     0.333 A 
ATOM     18  H9  BMP d          40.684  40.511  40.224  0.00  0.00     0.173 HD
ATOM     19  O2  BMP d          39.803  38.512  39.007  0.00  0.00    -0.246 OA
BRANCH  11  20
ATOM     20  O1  BMP d          43.270  39.273  36.164  0.00  0.00    -0.346 OA
ATOM     21  H11 BMP d          44.173  39.068  36.381  0.00  0.00     0.219 HD
ENDBRANCH  11  20
ENDBRANCH   5  10
BRANCH   4  22
ATOM     22  O2' BMP d          40.680  35.675  38.147  0.00  0.00    -0.388 OA
ATOM     23  H7  BMP d          40.747  34.858  37.667  0.00  0.00     0.210 HD
ENDBRANCH   4  22
BRANCH   1  24
ATOM     24  C5' BMP d          38.413  38.266  34.956  0.00  0.00     0.059 C 
ATOM     25  H1  BMP d          37.999  38.225  33.938  0.00  0.00     0.079 H 
ATOM     26  H2  BMP d          37.632  37.991  35.679  0.00  0.00     0.079 H 
BRANCH  24  27
ATOM     27  O5' BMP d          38.894  39.576  35.233  0.00  0.00    -0.280 OA
BRANCH  27  28
ATOM     28  P   BMP d          38.292  40.477  36.408  0.00  0.00     0.422 P 
ATOM     29  O3P BMP d          37.083  41.331  35.753  0.00  0.00    -0.617 OA
ATOM     30  O2P BMP d          37.675  39.526  37.358  0.00  0.00    -0.617 OA
ATOM     31  O1P BMP d          39.329  41.297  37.123  0.00  0.00    -0.617 OA
ENDBRANCH  27  28
ENDBRANCH  24  27
ENDBRANCH   1  24
BRANCH   3  32
ATOM     32  O3' BMP d          40.233  34.992  35.537  0.00  0.00    -0.390 OA
ATOM     33  H5  BMP d          40.894  34.758  36.178  0.00  0.00     0.210 HD
ENDBRANCH   3  32
TORSDOF 7
ENDMDL
MODEL 4
REMARK VINA RESULT:      -5.1      1.972      4.215
REMARK  7 active torsions:
REMARK  status: ('A' for Active; 'I' for Inactive)
REMARK    1  A    between atoms: P_1  and  O5'_5 
REMARK    2  A    between atoms: O5'_5  and  C5'_6 
REMARK    3  A    between atoms: C5'_6  and  C4'_7 
REMARK    4  A    between atoms: C3'_9  and  O3'_10 
REMARK    5  A    between atoms: C2'_11  and  O2'_12 
REMARK    6  A    between atoms: C1'_13  and  N1_14 
REMARK    7  A    between atoms: C6_21  and  O1_22 
ROOT
ATOM      1  C4' BMP d          39.546  37.300  35.077  0.00  0.00     0.089 C 
ATOM      2  O4' BMP d          40.690  38.066  35.475  0.00  0.00    -0.353 OA
ATOM      3  C3' BMP d          39.500  36.094  35.992  0.00  0.00     0.091 C 
ATOM      4  C2' BMP d          40.150  36.641  37.265  0.00  0.00     0.105 C 
ATOM      5  C1' BMP d          41.149  37.669  36.729  0.00  0.00     0.143 C 
ATOM      6  H3  BMP d          39.706  36.919  34.057  0.00  0.00     0.090 H 
ATOM      7  H4  BMP d          38.462  35.779  36.175  0.00  0.00     0.091 H 
ATOM      8  H6  BMP d          39.391  37.151  37.875  0.00  0.00     0.093 H 
ATOM      9  H8  BMP d          42.085  37.113  36.572  0.00  0.00     0.123 H 
ENDROOT
BRANCH   5  10
ATOM     10  N1  BMP d          41.537  38.826  37.554  0.00  0.00    -0.249 N 
ATOM     11  C6  BMP d          40.757  39.188  38.668  0.00  0.00     0.153 A 
ATOM     12  C5  BMP d          41.091  40.238  39.427  0.00  0.00     0.032 A 
ATOM     13  C4  BMP d          42.255  41.032  39.137  0.00  0.00     0.253 A 
ATOM     14  H10 BMP d          40.469  40.496  40.283  0.00  0.00     0.098 H 
ATOM     15  N3  BMP d          42.983  40.607  38.027  0.00  0.00    -0.275 N 
ATOM     16  O4  BMP d          42.661  42.002  39.748  0.00  0.00    -0.268 OA
ATOM     17  C2  BMP d          42.696  39.546  37.215  0.00  0.00     0.333 A 
ATOM     18  H9  BMP d          43.802  41.135  37.801  0.00  0.00     0.173 HD
ATOM     19  O2  BMP d          43.375  39.211  36.262  0.00  0.00    -0.246 OA
BRANCH  11  20
ATOM     20  O1  BMP d          39.752  38.476  38.911  0.00  0.00    -0.346 OA
ATOM     21  H11 BMP d          39.717  38.285  39.841  0.00  0.00     0.219 HD
ENDBRANCH  11  20
ENDBRANCH   5  10
BRANCH   4  22
ATOM     22  O2' BMP d          40.753  35.624  38.088  0.00  0.00    -0.388 OA
ATOM     23  H7  BMP d          41.687  35.783  38.153  0.00  0.00     0.210 HD
ENDBRANCH   4  22
BRANCH   1  24
ATOM     24  C5' BMP d          38.353  38.227  35.005  0.00  0.00     0.059 C 
ATOM     25  H1  BMP d          37.848  38.114  34.035  0.00  0.00     0.079 H 
ATOM     26  H2  BMP d          37.647  37.993  35.815  0.00  0.00     0.079 H 
BRANCH  24  27
ATOM     27  O5' BMP d          38.836  39.557  35.150  0.00  0.00    -0.280 OA
BRANCH  27  28
ATOM     28  P   BMP d          38.333  40.527  36.316  0.00  0.00     0.422 P 
ATOM     29  O3P BMP d          37.041  41.308  35.734  0.00  0.00    -0.617 OA
ATOM     30  O2P BMP d          37.843  39.635  37.389  0.00  0.00    -0.617 OA
ATOM     31  O1P BMP d          39.416  41.417  36.861  0.00  0.00    -0.617 OA
ENDBRANCH  27  28
ENDBRANCH  24  27
ENDBRANCH   1  24
BRANCH   3  32
ATOM     32  O3' BMP d          40.252  34.981  35.478  0.00  0.00    -0.390 OA
ATOM     33  H5  BMP d          40.047  34.201  35.982  0.00  0.00     0.210 HD
ENDBRANCH   3  32
TORSDOF 7
ENDMDL
