MODEL 1
REMARK VINA RESULT:      -5.7      0.000      0.000
REMARK  5 active torsions:
REMARK  status: ('A' for Active; 'I' for Inactive)
REMARK    1  A    between atoms: S1_9  and  N1_1 
REMARK    2  A    between atoms: C5_5  and  O3_15 
REMARK    3  A    between atoms: O3_15  and  C8_6 
REMARK    4  A    between atoms: C8_6  and  C9_16 
REMARK    5  A    between atoms: C1_10  and  S1_9 
ROOT
ATOM      1  C2  EZL d          -3.460   3.731  15.307  0.00  0.00     0.076 A 
ATOM      2  C3  EZL d          -4.668   4.386  15.069  0.00  0.00     0.039 A 
ATOM      3  C4  EZL d          -4.655   5.690  14.507  0.00  0.00    -0.032 A 
ATOM      4  C5  EZL d          -3.313   6.144  14.280  0.00  0.00     0.070 A 
ATOM      5  C1  EZL d          -4.956   2.225  15.972  0.00  0.00     0.214 A 
ATOM      6  N2  EZL d          -3.652   2.483  15.888  0.00  0.00    -0.227 NA
ATOM      7  S2  EZL d          -5.977   3.439  15.457  0.00  0.00    -0.054 SA
ATOM      8  C6  EZL d          -2.075   5.536  14.523  0.00  0.00    -0.049 A 
ATOM      9  C7  EZL d          -2.134   4.221  15.097  0.00  0.00    -0.051 A 
ATOM     10  H3  EZL d          -5.543   6.267  14.278  0.00  0.00     0.090 H 
ATOM     11  H6  EZL d          -1.135   6.025  14.294  0.00  0.00     0.087 H 
ATOM     12  H7  EZL d          -1.248   3.649  15.349  0.00  0.00     0.087 H 
ENDROOT
BRANCH   4  13
ATOM     13  O3  EZL d          -3.248   7.408  13.679  0.00  0.00    -0.351 OA
BRANCH  13  14
ATOM     14  C8  EZL d          -2.048   8.281  13.780  0.00  0.00     0.023 C 
ATOM     15  H4  EZL d          -2.044   8.990  12.939  0.00  0.00     0.074 H 
ATOM     16  H5  EZL d          -1.143   7.658  13.739  0.00  0.00     0.074 H 
BRANCH  14  17
ATOM     17  C9  EZL d          -2.061   9.065  15.101  0.00  0.00    -0.056 C 
ATOM     18  H8  EZL d          -1.485   9.994  14.982  0.00  0.00     0.030 H 
ATOM     19  H9  EZL d          -1.610   8.452  15.896  0.00  0.00     0.030 H 
ATOM     20  H10 EZL d          -3.099   9.311  15.372  0.00  0.00     0.030 H 
ENDBRANCH  14  17
ENDBRANCH  13  14
ENDBRANCH   4  13
BRANCH   5  21
ATOM     21  S1  EZL d          -5.603   0.693  16.635  0.00  0.00     0.281 S 
ATOM     22  O1  EZL d          -5.259   0.740  18.024  0.00  0.00    -0.199 OA
ATOM     23  O2  EZL d          -7.006   0.770  16.340  0.00  0.00    -0.199 OA
BRANCH  21  24
ATOM     24  N1  EZL d          -4.865  -0.472  15.876  0.00  0.00    -0.323 N 
ATOM     25  H1  EZL d          -5.369  -1.296  15.613  0.00  0.00     0.169 HD
ATOM     26  H2  EZL d          -3.893  -0.389  15.656  0.00  0.00     0.169 HD
ENDBRANCH  21  24
ENDBRANCH   5  21
TORSDOF 5
ENDMDL
MODEL 2
REMARK VINA RESULT:      -5.1      3.098      6.638
REMARK  5 active torsions:
REMARK  status: ('A' for Active; 'I' for Inactive)
REMARK    1  A    between atoms: S1_9  and  N1_1 
REMARK    2  A    between atoms: C5_5  and  O3_15 
REMARK    3  A    between atoms: O3_15  and  C8_6 
REMARK    4  A    between atoms: C8_6  and  C9_16 
REMARK    5  A    between atoms: C1_10  and  S1_9 
ROOT
ATOM      1  C2  EZL d          -4.628   5.268  14.740  0.00  0.00     0.076 A 
ATOM      2  C3  EZL d          -3.637   4.295  14.874  0.00  0.00     0.039 A 
ATOM      3  C4  EZL d          -4.002   2.976  15.248  0.00  0.00    -0.032 A 
ATOM      4  C5  EZL d          -5.418   2.867  15.451  0.00  0.00     0.070 A 
ATOM      5  C1  EZL d          -2.783   6.394  14.212  0.00  0.00     0.214 A 
ATOM      6  N2  EZL d          -4.097   6.507  14.402  0.00  0.00    -0.227 NA
ATOM      7  S2  EZL d          -2.130   4.884  14.492  0.00  0.00    -0.054 SA
ATOM      8  C6  EZL d          -6.445   3.814  15.353  0.00  0.00    -0.049 A 
ATOM      9  C7  EZL d          -6.031   5.137  14.977  0.00  0.00    -0.051 A 
ATOM     10  H3  EZL d          -3.302   2.156  15.365  0.00  0.00     0.090 H 
ATOM     11  H6  EZL d          -7.482   3.567  15.547  0.00  0.00     0.087 H 
ATOM     12  H7  EZL d          -6.724   5.965  14.882  0.00  0.00     0.087 H 
ENDROOT
BRANCH   4  13
ATOM     13  O3  EZL d          -5.835   1.568  15.775  0.00  0.00    -0.351 OA
BRANCH  13  14
ATOM     14  C8  EZL d          -6.770   1.284  16.896  0.00  0.00     0.023 C 
ATOM     15  H4  EZL d          -7.715   0.896  16.490  0.00  0.00     0.074 H 
ATOM     16  H5  EZL d          -6.964   2.215  17.449  0.00  0.00     0.074 H 
BRANCH  14  17
ATOM     17  C9  EZL d          -6.165   0.245  17.852  0.00  0.00    -0.056 C 
ATOM     18  H8  EZL d          -6.247   0.607  18.887  0.00  0.00     0.030 H 
ATOM     19  H9  EZL d          -5.106   0.088  17.601  0.00  0.00     0.030 H 
ATOM     20  H10 EZL d          -6.710  -0.706  17.752  0.00  0.00     0.030 H 
ENDBRANCH  14  17
ENDBRANCH  13  14
ENDBRANCH   4  13
BRANCH   5  21
ATOM     21  S1  EZL d          -1.748   7.772  13.728  0.00  0.00     0.281 S 
ATOM     22  O1  EZL d          -0.605   7.155  13.124  0.00  0.00    -0.199 OA
ATOM     23  O2  EZL d          -2.589   8.523  12.840  0.00  0.00    -0.199 OA
BRANCH  21  24
ATOM     24  N1  EZL d          -1.380   8.545  15.049  0.00  0.00    -0.323 N 
ATOM     25  H1  EZL d          -1.269   9.538  15.033  0.00  0.00     0.169 HD
ATOM     26  H2  EZL d          -1.259   8.042  15.905  0.00  0.00     0.169 HD
ENDBRANCH  21  24
ENDBRANCH   5  21
TORSDOF 5
ENDMDL
MODEL 3
REMARK VINA RESULT:      -5.0      1.830      2.255
REMARK  5 active torsions:
REMARK  status: ('A' for Active; 'I' for Inactive)
REMARK    1  A    between atoms: S1_9  and  N1_1 
REMARK    2  A    between atoms: C5_5  and  O3_15 
REMARK    3  A    between atoms: O3_15  and  C8_6 
REMARK    4  A    between atoms: C8_6  and  C9_16 
REMARK    5  A    between atoms: C1_10  and  S1_9 
ROOT
ATOM      1  C2  EZL d          -2.534   4.748  13.918  0.00  0.00     0.076 A 
ATOM      2  C3  EZL d          -3.408   5.542  14.661  0.00  0.00     0.039 A 
ATOM      3  C4  EZL d          -3.276   6.955  14.613  0.00  0.00    -0.032 A 
ATOM      4  C5  EZL d          -2.187   7.347  13.766  0.00  0.00     0.070 A 
ATOM      5  C1  EZL d          -3.851   3.235  14.879  0.00  0.00     0.214 A 
ATOM      6  N2  EZL d          -2.780   3.393  14.103  0.00  0.00    -0.227 NA
ATOM      7  S2  EZL d          -4.544   4.634  15.465  0.00  0.00    -0.054 SA
ATOM      8  C6  EZL d          -1.272   6.591  13.022  0.00  0.00    -0.049 A 
ATOM      9  C7  EZL d          -1.438   5.167  13.103  0.00  0.00    -0.051 A 
ATOM     10  H3  EZL d          -3.916   7.648  15.147  0.00  0.00     0.090 H 
ATOM     11  H6  EZL d          -0.491   7.049  12.426  0.00  0.00     0.087 H 
ATOM     12  H7  EZL d          -0.786   4.469  12.589  0.00  0.00     0.087 H 
ENDROOT
BRANCH   4  13
ATOM     13  O3  EZL d          -2.047   8.736  13.647  0.00  0.00    -0.351 OA
BRANCH  13  14
ATOM     14  C8  EZL d          -0.825   9.458  14.091  0.00  0.00     0.023 C 
ATOM     15  H4  EZL d          -0.828  10.471  13.664  0.00  0.00     0.074 H 
ATOM     16  H5  EZL d           0.064   8.914  13.739  0.00  0.00     0.074 H 
BRANCH  14  17
ATOM     17  C9  EZL d          -0.783   9.557  15.624  0.00  0.00    -0.056 C 
ATOM     18  H8  EZL d          -0.042   8.845  16.017  0.00  0.00     0.030 H 
ATOM     19  H9  EZL d          -1.776   9.317  16.033  0.00  0.00     0.030 H 
ATOM     20  H10 EZL d          -0.502  10.578  15.918  0.00  0.00     0.030 H 
ENDBRANCH  14  17
ENDBRANCH  13  14
ENDBRANCH   4  13
BRANCH   5  21
ATOM     21  S1  EZL d          -4.506   1.627  15.317  0.00  0.00     0.281 S 
ATOM     22  O1  EZL d          -4.541   0.914  14.076  0.00  0.00    -0.199 OA
ATOM     23  O2  EZL d          -3.566   1.140  16.287  0.00  0.00    -0.199 OA
BRANCH  21  24
ATOM     24  N1  EZL d          -5.945   1.873  15.906  0.00  0.00    -0.323 N 
ATOM     25  H1  EZL d          -6.116   1.739  16.883  0.00  0.00     0.169 HD
ATOM     26  H2  EZL d          -6.689   2.163  15.304  0.00  0.00     0.169 HD
ENDBRANCH  21  24
ENDBRANCH   5  21
TORSDOF 5
ENDMDL
MODEL 4
REMARK VINA RESULT:      -4.8      1.897      2.247
REMARK  5 active torsions:
REMARK  status: ('A' for Active; 'I' for Inactive)
REMARK    1  A    between atoms: S1_9  and  N1_1 
REMARK    2  A    between atoms: C5_5  and  O3_15 
REMARK    3  A    between atoms: O3_15  and  C8_6 
REMARK    4  A    between atoms: C8_6  and  C9_16 
REMARK    5  A    between atoms: C1_10  and  S1_9 
ROOT
ATOM      1  C2  EZL d          -3.270   5.280  14.560  0.00  0.00     0.076 A 
ATOM      2  C3  EZL d          -3.713   5.063  13.255  0.00  0.00     0.039 A 
ATOM      3  C4  EZL d          -3.558   6.091  12.288  0.00  0.00    -0.032 A 
ATOM      4  C5  EZL d          -2.947   7.255  12.860  0.00  0.00     0.070 A 
ATOM      5  C1  EZL d          -4.051   3.199  14.661  0.00  0.00     0.214 A 
ATOM      6  N2  EZL d          -3.527   4.189  15.382  0.00  0.00    -0.227 NA
ATOM      7  S2  EZL d          -4.324   3.531  13.050  0.00  0.00    -0.054 SA
ATOM      8  C6  EZL d          -2.509   7.527  14.163  0.00  0.00    -0.049 A 
ATOM      9  C7  EZL d          -2.689   6.464  15.110  0.00  0.00    -0.051 A 
ATOM     10  H3  EZL d          -3.862   6.007  11.250  0.00  0.00     0.090 H 
ATOM     11  H6  EZL d          -2.064   8.477  14.437  0.00  0.00     0.087 H 
ATOM     12  H7  EZL d          -2.408   6.551  16.153  0.00  0.00     0.087 H 
ENDROOT
BRANCH   4  13
ATOM     13  O3  EZL d          -2.727   8.282  11.932  0.00  0.00    -0.351 OA
BRANCH  13  14
ATOM     14  C8  EZL d          -2.038   9.550  12.289  0.00  0.00     0.023 C 
ATOM     15  H4  EZL d          -1.980   9.634  13.384  0.00  0.00     0.074 H 
ATOM     16  H5  EZL d          -2.610  10.398  11.886  0.00  0.00     0.074 H 
BRANCH  14  17
ATOM     17  C9  EZL d          -0.617   9.575  11.705  0.00  0.00    -0.056 C 
ATOM     18  H8  EZL d          -0.271   8.544  11.538  0.00  0.00     0.030 H 
ATOM     19  H9  EZL d           0.060  10.081  12.409  0.00  0.00     0.030 H 
ATOM     20  H10 EZL d          -0.623  10.118  10.748  0.00  0.00     0.030 H 
ENDBRANCH  14  17
ENDBRANCH  13  14
ENDBRANCH   4  13
BRANCH   5  21
ATOM     21  S1  EZL d          -4.485   1.610  15.363  0.00  0.00     0.281 S 
ATOM     22  O1  EZL d          -3.497   1.394  16.376  0.00  0.00    -0.199 OA
ATOM     23  O2  EZL d          -5.825   1.811  15.836  0.00  0.00    -0.199 OA
BRANCH  21  24
ATOM     24  N1  EZL d          -4.382   0.559  14.195  0.00  0.00    -0.323 N 
ATOM     25  H1  EZL d          -4.083  -0.376  14.388  0.00  0.00     0.169 HD
ATOM     26  H2  EZL d          -4.616   0.827  13.260  0.00  0.00     0.169 HD
ENDBRANCH  21  24
ENDBRANCH   5  21
TORSDOF 5
ENDMDL
MODEL 5
REMARK VINA RESULT:      -4.6      3.028      6.539
REMARK  5 active torsions:
REMARK  status: ('A' for Active; 'I' for Inactive)
REMARK    1  A    between atoms: S1_9  and  N1_1 
REMARK    2  A    between atoms: C5_5  and  O3_15 
REMARK    3  A    between atoms: O3_15  and  C8_6 
REMARK    4  A    between atoms: C8_6  and  C9_16 
REMARK    5  A    between atoms: C1_10  and  S1_9 
ROOT
ATOM      1  C2  EZL d          -4.635   4.941  14.643  0.00  0.00     0.076 A 
ATOM      2  C3  EZL d          -3.510   4.208  15.023  0.00  0.00     0.039 A 
ATOM      3  C4  EZL d          -3.678   2.911  15.576  0.00  0.00    -0.032 A 
ATOM      4  C5  EZL d          -5.066   2.561  15.667  0.00  0.00     0.070 A 
ATOM      5  C1  EZL d          -2.969   6.313  14.104  0.00  0.00     0.214 A 
ATOM      6  N2  EZL d          -4.295   6.196  14.154  0.00  0.00    -0.227 NA
ATOM      7  S2  EZL d          -2.097   5.015  14.685  0.00  0.00    -0.054 SA
ATOM      8  C6  EZL d          -6.225   3.268  15.323  0.00  0.00    -0.049 A 
ATOM      9  C7  EZL d          -6.010   4.576  14.773  0.00  0.00    -0.051 A 
ATOM     10  H3  EZL d          -2.863   2.268  15.888  0.00  0.00     0.090 H 
ATOM     11  H6  EZL d          -7.218   2.855  15.462  0.00  0.00     0.087 H 
ATOM     12  H7  EZL d          -6.823   5.232  14.481  0.00  0.00     0.087 H 
ENDROOT
BRANCH   4  13
ATOM     13  O3  EZL d          -5.282   1.268  16.162  0.00  0.00    -0.351 OA
BRANCH  13  14
ATOM     14  C8  EZL d          -4.458   0.103  15.744  0.00  0.00     0.023 C 
ATOM     15  H4  EZL d          -4.865  -0.811  16.200  0.00  0.00     0.074 H 
ATOM     16  H5  EZL d          -3.423   0.253  16.083  0.00  0.00     0.074 H 
BRANCH  14  17
ATOM     17  C9  EZL d          -4.473  -0.047  14.215  0.00  0.00    -0.056 C 
ATOM     18  H8  EZL d          -5.271  -0.746  13.923  0.00  0.00     0.030 H 
ATOM     19  H9  EZL d          -3.502  -0.435  13.875  0.00  0.00     0.030 H 
ATOM     20  H10 EZL d          -4.658   0.933  13.752  0.00  0.00     0.030 H 
ENDBRANCH  14  17
ENDBRANCH  13  14
ENDBRANCH   4  13
BRANCH   5  21
ATOM     21  S1  EZL d          -2.144   7.780  13.493  0.00  0.00     0.281 S 
ATOM     22  O1  EZL d          -2.983   8.233  12.424  0.00  0.00    -0.199 OA
ATOM     23  O2  EZL d          -2.090   8.634  14.645  0.00  0.00    -0.199 OA
BRANCH  21  24
ATOM     24  N1  EZL d          -0.726   7.320  12.985  0.00  0.00    -0.323 N 
ATOM     25  H1  EZL d          -0.070   7.998  12.653  0.00  0.00     0.169 HD
ATOM     26  H2  EZL d          -0.482   6.350  12.995  0.00  0.00     0.169 HD
ENDBRANCH  21  24
ENDBRANCH   5  21
TORSDOF 5
ENDMDL
MODEL 6
REMARK VINA RESULT:      -4.3      3.721      6.632
REMARK  5 active torsions:
REMARK  status: ('A' for Active; 'I' for Inactive)
REMARK    1  A    between atoms: S1_9  and  N1_1 
REMARK    2  A    between atoms: C5_5  and  O3_15 
REMARK    3  A    between atoms: O3_15  and  C8_6 
REMARK    4  A    between atoms: C8_6  and  C9_16 
REMARK    5  A    between atoms: C1_10  and  S1_9 
ROOT
ATOM      1  C2  EZL d          -4.044   5.417  14.434  0.00  0.00     0.076 A 
ATOM      2  C3  EZL d          -3.149   4.750  13.597  0.00  0.00     0.039 A 
ATOM      3  C4  EZL d          -3.451   3.432  13.163  0.00  0.00    -0.032 A 
ATOM      4  C5  EZL d          -4.698   2.979  13.707  0.00  0.00     0.070 A 
ATOM      5  C1  EZL d          -2.440   6.932  14.150  0.00  0.00     0.214 A 
ATOM      6  N2  EZL d          -3.581   6.678  14.789  0.00  0.00    -0.227 NA
ATOM      7  S2  EZL d          -1.846   5.700  13.195  0.00  0.00    -0.054 SA
ATOM      8  C6  EZL d          -5.616   3.599  14.565  0.00  0.00    -0.049 A 
ATOM      9  C7  EZL d          -5.269   4.928  14.984  0.00  0.00    -0.051 A 
ATOM     10  H3  EZL d          -2.821   2.844  12.505  0.00  0.00     0.090 H 
ATOM     11  H6  EZL d          -6.526   3.110  14.892  0.00  0.00     0.087 H 
ATOM     12  H7  EZL d          -5.884   5.511  15.660  0.00  0.00     0.087 H 
ENDROOT
BRANCH   4  13
ATOM     13  O3  EZL d          -5.065   1.700  13.268  0.00  0.00    -0.351 OA
BRANCH  13  14
ATOM     14  C8  EZL d          -4.395   0.465  13.753  0.00  0.00     0.023 C 
ATOM     15  H4  EZL d          -3.324   0.515  13.510  0.00  0.00     0.074 H 
ATOM     16  H5  EZL d          -4.843  -0.408  13.255  0.00  0.00     0.074 H 
BRANCH  14  17
ATOM     17  C9  EZL d          -4.562   0.321  15.273  0.00  0.00    -0.056 C 
ATOM     18  H8  EZL d          -5.628   0.190  15.514  0.00  0.00     0.030 H 
ATOM     19  H9  EZL d          -4.182   1.226  15.771  0.00  0.00     0.030 H 
ATOM     20  H10 EZL d          -3.997  -0.554  15.623  0.00  0.00     0.030 H 
ENDBRANCH  14  17
ENDBRANCH  13  14
ENDBRANCH   4  13
BRANCH   5  21
ATOM     21  S1  EZL d          -1.552   8.477  14.321  0.00  0.00     0.281 S 
ATOM     22  O1  EZL d          -1.526   8.711  15.734  0.00  0.00    -0.199 OA
ATOM     23  O2  EZL d          -0.281   8.199  13.715  0.00  0.00    -0.199 OA
BRANCH  21  24
ATOM     24  N1  EZL d          -2.391   9.565  13.551  0.00  0.00    -0.323 N 
ATOM     25  H1  EZL d          -3.388   9.568  13.619  0.00  0.00     0.169 HD
ATOM     26  H2  EZL d          -1.925  10.254  12.995  0.00  0.00     0.169 HD
ENDBRANCH  21  24
ENDBRANCH   5  21
TORSDOF 5
ENDMDL
MODEL 7
REMARK VINA RESULT:      -4.3      2.718      3.164
REMARK  5 active torsions:
REMARK  status: ('A' for Active; 'I' for Inactive)
REMARK    1  A    between atoms: S1_9  and  N1_1 
REMARK    2  A    between atoms: C5_5  and  O3_15 
REMARK    3  A    between atoms: O3_15  and  C8_6 
REMARK    4  A    between atoms: C8_6  and  C9_16 
REMARK    5  A    between atoms: C1_10  and  S1_9 
ROOT
ATOM      1  C2  EZL d          -2.123   5.051  12.892  0.00  0.00     0.076 A 
ATOM      2  C3  EZL d          -3.179   5.898  13.231  0.00  0.00     0.039 A 
ATOM      3  C4  EZL d          -2.941   7.291  13.360  0.00  0.00    -0.032 A 
ATOM      4  C5  EZL d          -1.563   7.607  13.119  0.00  0.00     0.070 A 
ATOM      5  C1  EZL d          -3.835   3.638  13.044  0.00  0.00     0.214 A 
ATOM      6  N2  EZL d          -2.521   3.721  12.840  0.00  0.00    -0.227 NA
ATOM      7  S2  EZL d          -4.616   5.075  13.372  0.00  0.00    -0.054 SA
ATOM      8  C6  EZL d          -0.467   6.795  12.801  0.00  0.00    -0.049 A 
ATOM      9  C7  EZL d          -0.751   5.392  12.685  0.00  0.00    -0.051 A 
ATOM     10  H3  EZL d          -3.702   8.022  13.608  0.00  0.00     0.090 H 
ATOM     11  H6  EZL d           0.528   7.197  12.652  0.00  0.00     0.087 H 
ATOM     12  H7  EZL d           0.011   4.655  12.460  0.00  0.00     0.087 H 
ENDROOT
BRANCH   4  13
ATOM     13  O3  EZL d          -1.287   8.979  13.186  0.00  0.00    -0.351 OA
BRANCH  13  14
ATOM     14  C8  EZL d          -0.424   9.571  14.242  0.00  0.00     0.023 C 
ATOM     15  H4  EZL d          -0.336  10.654  14.073  0.00  0.00     0.074 H 
ATOM     16  H5  EZL d           0.574   9.111  14.194  0.00  0.00     0.074 H 
BRANCH  14  17
ATOM     17  C9  EZL d          -1.027   9.324  15.633  0.00  0.00    -0.056 C 
ATOM     18  H8  EZL d          -0.932  10.236  16.241  0.00  0.00     0.030 H 
ATOM     19  H9  EZL d          -0.491   8.498  16.124  0.00  0.00     0.030 H 
ATOM     20  H10 EZL d          -2.090   9.062  15.531  0.00  0.00     0.030 H 
ENDBRANCH  14  17
ENDBRANCH  13  14
ENDBRANCH   4  13
BRANCH   5  21
ATOM     21  S1  EZL d          -4.728   2.087  13.016  0.00  0.00     0.281 S 
ATOM     22  O1  EZL d          -5.366   2.028  14.297  0.00  0.00    -0.199 OA
ATOM     23  O2  EZL d          -5.607   2.230  11.891  0.00  0.00    -0.199 OA
BRANCH  21  24
ATOM     24  N1  EZL d          -3.652   0.952  12.832  0.00  0.00    -0.323 N 
ATOM     25  H1  EZL d          -3.247   0.788  11.932  0.00  0.00     0.169 HD
ATOM     26  H2  EZL d          -3.373   0.396  13.615  0.00  0.00     0.169 HD
ENDBRANCH  21  24
ENDBRANCH   5  21
TORSDOF 5
ENDMDL
MODEL 8
REMARK VINA RESULT:      -4.2      2.687      3.330
REMARK  5 active torsions:
REMARK  status: ('A' for Active; 'I' for Inactive)
REMARK    1  A    between atoms: S1_9  and  N1_1 
REMARK    2  A    between atoms: C5_5  and  O3_15 
REMARK    3  A    between atoms: O3_15  and  C8_6 
REMARK    4  A    between atoms: C8_6  and  C9_16 
REMARK    5  A    between atoms: C1_10  and  S1_9 
ROOT
ATOM      1  C2  EZL d          -3.370   5.401  14.325  0.00  0.00     0.076 A 
ATOM      2  C3  EZL d          -2.377   5.273  13.353  0.00  0.00     0.039 A 
ATOM      3  C4  EZL d          -1.460   6.338  13.150  0.00  0.00    -0.032 A 
ATOM      4  C5  EZL d          -1.741   7.439  14.025  0.00  0.00     0.070 A 
ATOM      5  C1  EZL d          -3.750   3.361  13.523  0.00  0.00     0.214 A 
ATOM      6  N2  EZL d          -4.198   4.286  14.370  0.00  0.00    -0.227 NA
ATOM      7  S2  EZL d          -2.421   3.787  12.611  0.00  0.00    -0.054 SA
ATOM      8  C6  EZL d          -2.734   7.623  14.996  0.00  0.00    -0.049 A 
ATOM      9  C7  EZL d          -3.643   6.524  15.165  0.00  0.00    -0.051 A 
ATOM     10  H3  EZL d          -0.653   6.321  12.427  0.00  0.00     0.090 H 
ATOM     11  H6  EZL d          -2.812   8.533  15.579  0.00  0.00     0.087 H 
ATOM     12  H7  EZL d          -4.466   6.546  15.870  0.00  0.00     0.087 H 
ENDROOT
BRANCH   4  13
ATOM     13  O3  EZL d          -0.831   8.497  13.897  0.00  0.00    -0.351 OA
BRANCH  13  14
ATOM     14  C8  EZL d          -0.280   8.924  12.583  0.00  0.00     0.023 C 
ATOM     15  H4  EZL d           0.118   8.045  12.055  0.00  0.00     0.074 H 
ATOM     16  H5  EZL d           0.529   9.650  12.749  0.00  0.00     0.074 H 
BRANCH  14  17
ATOM     17  C9  EZL d          -1.375   9.575  11.725  0.00  0.00    -0.056 C 
ATOM     18  H8  EZL d          -1.063  10.591  11.442  0.00  0.00     0.030 H 
ATOM     19  H9  EZL d          -2.311   9.625  12.301  0.00  0.00     0.030 H 
ATOM     20  H10 EZL d          -1.535   8.975  10.817  0.00  0.00     0.030 H 
ENDBRANCH  14  17
ENDBRANCH  13  14
ENDBRANCH   4  13
BRANCH   5  21
ATOM     21  S1  EZL d          -4.534   1.764  13.322  0.00  0.00     0.281 S 
ATOM     22  O1  EZL d          -5.627   2.020  12.432  0.00  0.00    -0.199 OA
ATOM     23  O2  EZL d          -3.483   0.942  12.794  0.00  0.00    -0.199 OA
BRANCH  21  24
ATOM     24  N1  EZL d          -5.021   1.319  14.752  0.00  0.00    -0.323 N 
ATOM     25  H1  EZL d          -4.354   1.166  15.482  0.00  0.00     0.169 HD
ATOM     26  H2  EZL d          -5.997   1.191  14.931  0.00  0.00     0.169 HD
ENDBRANCH  21  24
ENDBRANCH   5  21
TORSDOF 5
ENDMDL
MODEL 9
REMARK VINA RESULT:      -2.9      1.780      2.189
REMARK  5 active torsions:
REMARK  status: ('A' for Active; 'I' for Inactive)
REMARK    1  A    between atoms: S1_9  and  N1_1 
REMARK    2  A    between atoms: C5_5  and  O3_15 
REMARK    3  A    between atoms: O3_15  and  C8_6 
REMARK    4  A    between atoms: C8_6  and  C9_16 
REMARK    5  A    between atoms: C1_10  and  S1_9 
ROOT
ATOM      1  C2  EZL d          -4.466   3.767  13.557  0.00  0.00     0.076 A 
ATOM      2  C3  EZL d          -4.478   4.706  14.589  0.00  0.00     0.039 A 
ATOM      3  C4  EZL d          -4.243   6.074  14.290  0.00  0.00    -0.032 A 
ATOM      4  C5  EZL d          -4.005   6.265  12.888  0.00  0.00     0.070 A 
ATOM      5  C1  EZL d          -4.926   2.513  15.335  0.00  0.00     0.214 A 
ATOM      6  N2  EZL d          -4.680   2.477  14.027  0.00  0.00    -0.227 NA
ATOM      7  S2  EZL d          -4.842   4.015  16.056  0.00  0.00    -0.054 SA
ATOM      8  C6  EZL d          -3.960   5.357  11.822  0.00  0.00    -0.049 A 
ATOM      9  C7  EZL d          -4.197   3.984  12.170  0.00  0.00    -0.051 A 
ATOM     10  H3  EZL d          -4.244   6.871  15.024  0.00  0.00     0.090 H 
ATOM     11  H6  EZL d          -3.760   5.669  10.804  0.00  0.00     0.087 H 
ATOM     12  H7  EZL d          -4.174   3.181  11.443  0.00  0.00     0.087 H 
ENDROOT
BRANCH   4  13
ATOM     13  O3  EZL d          -3.816   7.608  12.534  0.00  0.00    -0.351 OA
BRANCH  13  14
ATOM     14  C8  EZL d          -2.482   8.163  12.183  0.00  0.00     0.023 C 
ATOM     15  H4  EZL d          -2.283   9.047  12.807  0.00  0.00     0.074 H 
ATOM     16  H5  EZL d          -2.480   8.455  11.123  0.00  0.00     0.074 H 
BRANCH  14  17
ATOM     17  C9  EZL d          -1.383   7.117  12.422  0.00  0.00    -0.056 C 
ATOM     18  H8  EZL d          -1.829   6.207  12.849  0.00  0.00     0.030 H 
ATOM     19  H9  EZL d          -0.636   7.523  13.121  0.00  0.00     0.030 H 
ATOM     20  H10 EZL d          -0.895   6.873  11.467  0.00  0.00     0.030 H 
ENDBRANCH  14  17
ENDBRANCH  13  14
ENDBRANCH   4  13
BRANCH   5  21
ATOM     21  S1  EZL d          -5.287   1.046  16.297  0.00  0.00     0.281 S 
ATOM     22  O1  EZL d          -4.978  -0.036  15.412  0.00  0.00    -0.199 OA
ATOM     23  O2  EZL d          -4.427   1.179  17.439  0.00  0.00    -0.199 OA
BRANCH  21  24
ATOM     24  N1  EZL d          -6.819   1.108  16.654  0.00  0.00    -0.323 N 
ATOM     25  H1  EZL d          -7.119   1.559  17.495  0.00  0.00     0.169 HD
ATOM     26  H2  EZL d          -7.492   0.696  16.039  0.00  0.00     0.169 HD
ENDBRANCH  21  24
ENDBRANCH   5  21
TORSDOF 5
ENDMDL
