MODEL 1
REMARK VINA RESULT:      -7.3      0.000      0.000
REMARK  13 active torsions:
REMARK  status: ('A' for Active; 'I' for Inactive)
REMARK    1  A    between atoms: C7_15  and  C1_1 
REMARK    2  A    between atoms: N1_2  and  C5_11 
REMARK    3  A    between atoms: C11_21  and  N1_2 
REMARK    4  A    between atoms: C17_27  and  O1_3 
REMARK    5  A    between atoms: C3_7  and  C19_29 
REMARK    6  A    between atoms: N8_18  and  C4_9 
REMARK    7  A    between atoms: C4_9  and  C16_26 
REMARK    8  A    between atoms: N8_18  and  C13_23 
REMARK    9  A    between atoms: C15_25  and  N8_18 
REMARK   10  A    between atoms: C13_23  and  C14_24 
REMARK   11  A    between atoms: C15_25  and  C17_27 
REMARK   12  A    between atoms: C15_25  and  C18_28 
REMARK   13  A    between atoms: C15_25  and  C20_30 
ROOT
ATOM      1  S1  EML d          -2.268  32.859  81.966  0.00  0.00     0.029 SA
ATOM      2  N6  EML d          -1.457  34.015  82.633  0.00  0.00    -0.212 NA
ATOM      3  C11 EML d          -2.054  33.330  80.313  0.00  0.00     0.096 A 
ATOM      4  C12 EML d          -1.258  34.480  80.367  0.00  0.00    -0.023 A 
ATOM      5  C14 EML d          -0.948  34.831  81.681  0.00  0.00     0.071 A 
ATOM      6  H11 EML d          -0.923  35.033  79.491  0.00  0.00     0.091 H 
ENDROOT
BRANCH   5   7
ATOM      7  C13 EML d          -0.096  36.007  82.101  0.00  0.00     0.124 C 
ATOM      8  H12 EML d           0.936  35.796  81.786  0.00  0.00     0.086 H 
ATOM      9  H13 EML d          -0.470  36.893  81.565  0.00  0.00     0.086 H 
BRANCH   7  10
ATOM     10  N8  EML d          -0.061  36.349  83.576  0.00  0.00    -0.056 N 
ATOM     11  H8  EML d          -0.569  35.552  83.926  0.00  0.00     0.281 HD
BRANCH  10  12
ATOM     12  C4  EML d           1.221  36.131  84.251  0.00  0.00     0.082 C 
ATOM     13  H4  EML d           1.069  35.287  84.940  0.00  0.00     0.075 H 
ATOM     14  H5  EML d           1.426  37.044  84.830  0.00  0.00     0.075 H 
BRANCH  12  15
ATOM     15  C16 EML d           2.474  35.829  83.481  0.00  0.00    -0.053 C 
ATOM     16  H14 EML d           3.187  36.658  83.601  0.00  0.00     0.029 H 
ATOM     17  H15 EML d           2.229  35.707  82.416  0.00  0.00     0.029 H 
ATOM     18  H16 EML d           2.924  34.901  83.862  0.00  0.00     0.029 H 
ENDBRANCH  12  15
ENDBRANCH  10  12
BRANCH  10  19
ATOM     19  C15 EML d          -0.921  37.417  84.134  0.00  0.00     0.142 C 
BRANCH  19  20
ATOM     20  C17 EML d          -2.071  36.850  84.998  0.00  0.00     0.047 C 
ATOM     21  H17 EML d          -1.644  36.193  85.770  0.00  0.00     0.077 H 
ATOM     22  H18 EML d          -2.598  37.686  85.481  0.00  0.00     0.077 H 
BRANCH  20  23
ATOM     23  O1  EML d          -3.014  36.097  84.214  0.00  0.00    -0.398 OA
ATOM     24  H2  EML d          -2.992  36.402  83.314  0.00  0.00     0.209 HD
ENDBRANCH  20  23
ENDBRANCH  19  20
BRANCH  19  25
ATOM     25  C18 EML d          -1.711  38.168  83.118  0.00  0.00    -0.043 C 
ATOM     26  H19 EML d          -1.579  37.700  82.131  0.00  0.00     0.030 H 
ATOM     27  H20 EML d          -1.361  39.210  83.079  0.00  0.00     0.030 H 
ATOM     28  H21 EML d          -2.775  38.149  83.393  0.00  0.00     0.030 H 
ENDBRANCH  19  25
BRANCH  19  29
ATOM     29  C20 EML d          -0.097  38.517  84.860  0.00  0.00    -0.043 C 
ATOM     30  H25 EML d          -0.166  38.370  85.948  0.00  0.00     0.030 H 
ATOM     31  H26 EML d          -0.496  39.508  84.598  0.00  0.00     0.030 H 
ATOM     32  H27 EML d           0.957  38.452  84.549  0.00  0.00     0.030 H 
ENDBRANCH  19  29
ENDBRANCH  10  19
ENDBRANCH   7  10
ENDBRANCH   5   7
BRANCH   3  33
ATOM     33  N1  EML d          -2.574  32.705  79.178  0.00  0.00    -0.331 N 
ATOM     34  H1  EML d          -2.213  33.011  78.264  0.00  0.00     0.168 HD
BRANCH  33  35
ATOM     35  C5  EML d          -3.536  31.706  79.180  0.00  0.00     0.176 A 
ATOM     36  C6  EML d          -4.018  31.156  77.990  0.00  0.00     0.181 A 
ATOM     37  N2  EML d          -3.727  31.502  76.665  0.00  0.00    -0.237 NA
ATOM     38  N3  EML d          -4.962  30.174  78.064  0.00  0.00    -0.299 N 
ATOM     39  C9  EML d          -4.532  30.668  75.974  0.00  0.00     0.032 A 
ATOM     40  C7  EML d          -5.322  29.810  76.784  0.00  0.00     0.071 A 
ATOM     41  H9  EML d          -4.572  30.653  74.886  0.00  0.00     0.118 H 
ATOM     42  C2  EML d          -5.494  29.675  79.234  0.00  0.00     0.011 A 
ATOM     43  C3  EML d          -5.042  30.224  80.411  0.00  0.00     0.049 A 
ATOM     44  H3  EML d          -6.238  28.880  79.226  0.00  0.00     0.115 H 
ATOM     45  N7  EML d          -4.100  31.240  80.352  0.00  0.00    -0.231 NA
BRANCH  40  46
ATOM     46  C1  EML d          -6.385  28.814  76.361  0.00  0.00     0.029 A 
ATOM     47  C8  EML d          -6.286  27.975  75.254  0.00  0.00     0.035 A 
ATOM     48  N5  EML d          -7.432  27.264  75.266  0.00  0.00    -0.187 NA
ATOM     49  H7  EML d          -5.467  27.908  74.540  0.00  0.00     0.118 H 
ATOM     50  N4  EML d          -8.225  27.589  76.304  0.00  0.00    -0.289 N 
ATOM     51  C10 EML d          -7.628  28.549  77.012  0.00  0.00     0.009 A 
ATOM     52  H6  EML d          -9.140  27.167  76.516  0.00  0.00     0.188 HD
ATOM     53  H10 EML d          -8.012  29.034  77.908  0.00  0.00     0.115 H 
ENDBRANCH  40  46
BRANCH  43  54
ATOM     54  C19 EML d          -5.525  29.746  81.736  0.00  0.00    -0.034 C 
ATOM     55  H22 EML d          -6.405  30.332  82.039  0.00  0.00     0.035 H 
ATOM     56  H23 EML d          -4.727  29.870  82.483  0.00  0.00     0.035 H 
ATOM     57  H24 EML d          -5.799  28.683  81.666  0.00  0.00     0.035 H 
ENDBRANCH  43  54
ENDBRANCH  33  35
ENDBRANCH   3  33
TORSDOF 13
ENDMDL
MODEL 2
REMARK VINA RESULT:      -6.7      1.524      2.282
REMARK  13 active torsions:
REMARK  status: ('A' for Active; 'I' for Inactive)
REMARK    1  A    between atoms: C7_15  and  C1_1 
REMARK    2  A    between atoms: N1_2  and  C5_11 
REMARK    3  A    between atoms: C11_21  and  N1_2 
REMARK    4  A    between atoms: C17_27  and  O1_3 
REMARK    5  A    between atoms: C3_7  and  C19_29 
REMARK    6  A    between atoms: N8_18  and  C4_9 
REMARK    7  A    between atoms: C4_9  and  C16_26 
REMARK    8  A    between atoms: N8_18  and  C13_23 
REMARK    9  A    between atoms: C15_25  and  N8_18 
REMARK   10  A    between atoms: C13_23  and  C14_24 
REMARK   11  A    between atoms: C15_25  and  C17_27 
REMARK   12  A    between atoms: C15_25  and  C18_28 
REMARK   13  A    between atoms: C15_25  and  C20_30 
ROOT
ATOM      1  S1  EML d          -4.511  32.795  82.887  0.00  0.00     0.029 SA
ATOM      2  N6  EML d          -3.727  33.644  83.937  0.00  0.00    -0.212 NA
ATOM      3  C11 EML d          -3.243  32.613  81.722  0.00  0.00     0.096 A 
ATOM      4  C12 EML d          -2.145  33.279  82.279  0.00  0.00    -0.023 A 
ATOM      5  C14 EML d          -2.457  33.843  83.516  0.00  0.00     0.071 A 
ATOM      6  H11 EML d          -1.167  33.348  81.804  0.00  0.00     0.091 H 
ENDROOT
BRANCH   5   7
ATOM      7  C13 EML d          -1.503  34.617  84.396  0.00  0.00     0.124 C 
ATOM      8  H12 EML d          -1.933  34.641  85.408  0.00  0.00     0.086 H 
ATOM      9  H13 EML d          -0.550  34.068  84.415  0.00  0.00     0.086 H 
BRANCH   7  10
ATOM     10  N8  EML d          -1.196  36.047  83.999  0.00  0.00    -0.056 N 
ATOM     11  H8  EML d          -1.523  36.010  83.046  0.00  0.00     0.281 HD
BRANCH  10  12
ATOM     12  C4  EML d          -2.106  37.066  84.527  0.00  0.00     0.082 C 
ATOM     13  H4  EML d          -1.601  38.033  84.390  0.00  0.00     0.075 H 
ATOM     14  H5  EML d          -2.213  36.858  85.603  0.00  0.00     0.075 H 
BRANCH  12  15
ATOM     15  C16 EML d          -3.496  37.234  83.988  0.00  0.00    -0.053 C 
ATOM     16  H14 EML d          -3.546  38.151  83.381  0.00  0.00     0.029 H 
ATOM     17  H15 EML d          -4.207  37.308  84.824  0.00  0.00     0.029 H 
ATOM     18  H16 EML d          -3.755  36.367  83.363  0.00  0.00     0.029 H 
ENDBRANCH  12  15
ENDBRANCH  10  12
BRANCH  10  19
ATOM     19  C15 EML d           0.194  36.483  83.735  0.00  0.00     0.142 C 
BRANCH  19  20
ATOM     20  C17 EML d           0.640  36.171  82.287  0.00  0.00     0.047 C 
ATOM     21  H17 EML d           1.388  36.915  81.978  0.00  0.00     0.077 H 
ATOM     22  H18 EML d           1.088  35.167  82.262  0.00  0.00     0.077 H 
BRANCH  20  23
ATOM     23  O1  EML d          -0.465  36.210  81.364  0.00  0.00    -0.398 OA
ATOM     24  H2  EML d          -0.577  37.098  81.043  0.00  0.00     0.209 HD
ENDBRANCH  20  23
ENDBRANCH  19  20
BRANCH  19  25
ATOM     25  C18 EML d           1.234  35.730  84.491  0.00  0.00    -0.043 C 
ATOM     26  H19 EML d           1.458  34.789  83.968  0.00  0.00     0.030 H 
ATOM     27  H20 EML d           0.863  35.509  85.502  0.00  0.00     0.030 H 
ATOM     28  H21 EML d           2.148  36.338  84.560  0.00  0.00     0.030 H 
ENDBRANCH  19  25
BRANCH  19  29
ATOM     29  C20 EML d           0.432  37.966  84.140  0.00  0.00    -0.043 C 
ATOM     30  H25 EML d          -0.142  38.194  85.050  0.00  0.00     0.030 H 
ATOM     31  H26 EML d           0.102  38.626  83.324  0.00  0.00     0.030 H 
ATOM     32  H27 EML d           1.503  38.126  84.332  0.00  0.00     0.030 H 
ENDBRANCH  19  29
ENDBRANCH  10  19
ENDBRANCH   7  10
ENDBRANCH   5   7
BRANCH   3  33
ATOM     33  N1  EML d          -3.307  31.955  80.492  0.00  0.00    -0.331 N 
ATOM     34  H1  EML d          -2.614  32.221  79.778  0.00  0.00     0.168 HD
BRANCH  33  35
ATOM     35  C5  EML d          -4.228  30.975  80.152  0.00  0.00     0.176 A 
ATOM     36  C6  EML d          -4.492  30.654  78.819  0.00  0.00     0.181 A 
ATOM     37  N2  EML d          -3.997  31.237  77.646  0.00  0.00    -0.237 NA
ATOM     38  N3  EML d          -5.407  29.677  78.555  0.00  0.00    -0.299 N 
ATOM     39  C9  EML d          -4.653  30.546  76.691  0.00  0.00     0.032 A 
ATOM     40  C7  EML d          -5.541  29.556  77.188  0.00  0.00     0.071 A 
ATOM     41  H9  EML d          -4.513  30.731  75.627  0.00  0.00     0.118 H 
ATOM     42  C2  EML d          -6.109  28.973  79.509  0.00  0.00     0.011 A 
ATOM     43  C3  EML d          -5.874  29.296  80.824  0.00  0.00     0.049 A 
ATOM     44  H3  EML d          -6.820  28.195  79.233  0.00  0.00     0.115 H 
ATOM     45  N7  EML d          -4.963  30.304  81.109  0.00  0.00    -0.231 NA
BRANCH  40  46
ATOM     46  C1  EML d          -6.491  28.657  76.420  0.00  0.00     0.029 A 
ATOM     47  C8  EML d          -6.120  27.842  75.353  0.00  0.00     0.035 A 
ATOM     48  N5  EML d          -7.261  27.223  74.989  0.00  0.00    -0.187 NA
ATOM     49  H7  EML d          -5.131  27.730  74.913  0.00  0.00     0.118 H 
ATOM     50  N4  EML d          -8.306  27.581  75.758  0.00  0.00    -0.289 N 
ATOM     51  C10 EML d          -7.887  28.473  76.658  0.00  0.00     0.009 A 
ATOM     52  H6  EML d          -9.268  27.225  75.667  0.00  0.00     0.188 HD
ATOM     53  H10 EML d          -8.490  28.963  77.421  0.00  0.00     0.115 H 
ENDBRANCH  40  46
BRANCH  43  54
ATOM     54  C19 EML d          -6.554  28.584  81.942  0.00  0.00    -0.034 C 
ATOM     55  H22 EML d          -7.376  27.972  81.541  0.00  0.00     0.035 H 
ATOM     56  H23 EML d          -6.958  29.320  82.653  0.00  0.00     0.035 H 
ATOM     57  H24 EML d          -5.831  27.934  82.457  0.00  0.00     0.035 H 
ENDBRANCH  43  54
ENDBRANCH  33  35
ENDBRANCH   3  33
TORSDOF 13
ENDMDL
MODEL 3
REMARK VINA RESULT:      -5.8      1.920      2.447
REMARK  13 active torsions:
REMARK  status: ('A' for Active; 'I' for Inactive)
REMARK    1  A    between atoms: C7_15  and  C1_1 
REMARK    2  A    between atoms: N1_2  and  C5_11 
REMARK    3  A    between atoms: C11_21  and  N1_2 
REMARK    4  A    between atoms: C17_27  and  O1_3 
REMARK    5  A    between atoms: C3_7  and  C19_29 
REMARK    6  A    between atoms: N8_18  and  C4_9 
REMARK    7  A    between atoms: C4_9  and  C16_26 
REMARK    8  A    between atoms: N8_18  and  C13_23 
REMARK    9  A    between atoms: C15_25  and  N8_18 
REMARK   10  A    between atoms: C13_23  and  C14_24 
REMARK   11  A    between atoms: C15_25  and  C17_27 
REMARK   12  A    between atoms: C15_25  and  C18_28 
REMARK   13  A    between atoms: C15_25  and  C20_30 
ROOT
ATOM      1  S1  EML d          -4.981  32.746  83.876  0.00  0.00     0.029 SA
ATOM      2  N6  EML d          -4.419  33.746  84.935  0.00  0.00    -0.212 NA
ATOM      3  C11 EML d          -3.638  32.765  82.783  0.00  0.00     0.096 A 
ATOM      4  C12 EML d          -2.708  33.630  83.372  0.00  0.00    -0.023 A 
ATOM      5  C14 EML d          -3.183  34.158  84.572  0.00  0.00     0.071 A 
ATOM      6  H11 EML d          -1.733  33.861  82.945  0.00  0.00     0.091 H 
ENDROOT
BRANCH   5   7
ATOM      7  C13 EML d          -2.432  35.112  85.473  0.00  0.00     0.124 C 
ATOM      8  H12 EML d          -3.169  35.797  85.916  0.00  0.00     0.086 H 
ATOM      9  H13 EML d          -1.962  34.514  86.268  0.00  0.00     0.086 H 
BRANCH   7  10
ATOM     10  N8  EML d          -1.347  35.958  84.838  0.00  0.00    -0.056 N 
ATOM     11  H8  EML d          -1.077  36.488  85.653  0.00  0.00     0.281 HD
BRANCH  10  12
ATOM     12  C4  EML d          -0.081  35.274  84.565  0.00  0.00     0.082 C 
ATOM     13  H4  EML d           0.411  35.843  83.763  0.00  0.00     0.075 H 
ATOM     14  H5  EML d          -0.344  34.272  84.195  0.00  0.00     0.075 H 
BRANCH  12  15
ATOM     15  C16 EML d           0.951  35.073  85.636  0.00  0.00    -0.053 C 
ATOM     16  H14 EML d           1.029  35.985  86.247  0.00  0.00     0.029 H 
ATOM     17  H15 EML d           1.924  34.858  85.172  0.00  0.00     0.029 H 
ATOM     18  H16 EML d           0.656  34.228  86.276  0.00  0.00     0.029 H 
ENDBRANCH  12  15
ENDBRANCH  10  12
BRANCH  10  19
ATOM     19  C15 EML d          -1.686  37.090  83.946  0.00  0.00     0.142 C 
BRANCH  19  20
ATOM     20  C17 EML d          -1.010  38.408  84.389  0.00  0.00     0.047 C 
ATOM     21  H17 EML d          -1.747  39.024  84.923  0.00  0.00     0.077 H 
ATOM     22  H18 EML d          -0.174  38.169  85.064  0.00  0.00     0.077 H 
BRANCH  20  23
ATOM     23  O1  EML d          -0.502  39.156  83.268  0.00  0.00    -0.398 OA
ATOM     24  H2  EML d           0.116  39.807  83.577  0.00  0.00     0.209 HD
ENDBRANCH  20  23
ENDBRANCH  19  20
BRANCH  19  25
ATOM     25  C18 EML d          -3.116  37.508  83.992  0.00  0.00    -0.043 C 
ATOM     26  H19 EML d          -3.506  37.368  85.011  0.00  0.00     0.030 H 
ATOM     27  H20 EML d          -3.699  36.896  83.289  0.00  0.00     0.030 H 
ATOM     28  H21 EML d          -3.197  38.568  83.711  0.00  0.00     0.030 H 
ENDBRANCH  19  25
BRANCH  19  29
ATOM     29  C20 EML d          -1.440  36.752  82.448  0.00  0.00    -0.043 C 
ATOM     30  H25 EML d          -2.088  37.380  81.819  0.00  0.00     0.030 H 
ATOM     31  H26 EML d          -1.671  35.691  82.269  0.00  0.00     0.030 H 
ATOM     32  H27 EML d          -0.387  36.945  82.197  0.00  0.00     0.030 H 
ENDBRANCH  19  29
ENDBRANCH  10  19
ENDBRANCH   7  10
ENDBRANCH   5   7
BRANCH   3  33
ATOM     33  N1  EML d          -3.517  32.077  81.574  0.00  0.00    -0.331 N 
ATOM     34  H1  EML d          -2.702  32.298  80.985  0.00  0.00     0.168 HD
BRANCH  33  35
ATOM     35  C5  EML d          -4.404  31.121  81.101  0.00  0.00     0.176 A 
ATOM     36  C6  EML d          -4.486  30.814  79.741  0.00  0.00     0.181 A 
ATOM     37  N2  EML d          -3.819  31.390  78.653  0.00  0.00    -0.237 NA
ATOM     38  N3  EML d          -5.379  29.861  79.343  0.00  0.00    -0.299 N 
ATOM     39  C9  EML d          -4.351  30.720  77.610  0.00  0.00     0.032 A 
ATOM     40  C7  EML d          -5.323  29.750  77.970  0.00  0.00     0.071 A 
ATOM     41  H9  EML d          -4.059  30.908  76.578  0.00  0.00     0.118 H 
ATOM     42  C2  EML d          -6.224  29.170  80.185  0.00  0.00     0.011 A 
ATOM     43  C3  EML d          -6.166  29.480  81.523  0.00  0.00     0.049 A 
ATOM     44  H3  EML d          -6.907  28.411  79.806  0.00  0.00     0.115 H 
ATOM     45  N7  EML d          -5.281  30.463  81.940  0.00  0.00    -0.231 NA
BRANCH  40  46
ATOM     46  C1  EML d          -6.178  28.878  77.070  0.00  0.00     0.029 A 
ATOM     47  C8  EML d          -7.415  28.348  77.427  0.00  0.00     0.035 A 
ATOM     48  N5  EML d          -7.815  27.660  76.337  0.00  0.00    -0.187 NA
ATOM     49  H7  EML d          -7.941  28.463  78.373  0.00  0.00     0.118 H 
ATOM     50  N4  EML d          -6.926  27.738  75.330  0.00  0.00    -0.289 N 
ATOM     51  C10 EML d          -5.889  28.476  75.731  0.00  0.00     0.009 A 
ATOM     52  H6  EML d          -7.029  27.301  74.402  0.00  0.00     0.188 HD
ATOM     53  H10 EML d          -5.000  28.721  75.152  0.00  0.00     0.115 H 
ENDBRANCH  40  46
BRANCH  43  54
ATOM     54  C19 EML d          -7.012  28.779  82.529  0.00  0.00    -0.034 C 
ATOM     55  H22 EML d          -6.419  28.000  83.029  0.00  0.00     0.035 H 
ATOM     56  H23 EML d          -7.874  28.317  82.025  0.00  0.00     0.035 H 
ATOM     57  H24 EML d          -7.370  29.504  83.276  0.00  0.00     0.035 H 
ENDBRANCH  43  54
ENDBRANCH  33  35
ENDBRANCH   3  33
TORSDOF 13
ENDMDL
MODEL 4
REMARK VINA RESULT:      -5.8      3.138      9.916
REMARK  13 active torsions:
REMARK  status: ('A' for Active; 'I' for Inactive)
REMARK    1  A    between atoms: C7_15  and  C1_1 
REMARK    2  A    between atoms: N1_2  and  C5_11 
REMARK    3  A    between atoms: C11_21  and  N1_2 
REMARK    4  A    between atoms: C17_27  and  O1_3 
REMARK    5  A    between atoms: C3_7  and  C19_29 
REMARK    6  A    between atoms: N8_18  and  C4_9 
REMARK    7  A    between atoms: C4_9  and  C16_26 
REMARK    8  A    between atoms: N8_18  and  C13_23 
REMARK    9  A    between atoms: C15_25  and  N8_18 
REMARK   10  A    between atoms: C13_23  and  C14_24 
REMARK   11  A    between atoms: C15_25  and  C17_27 
REMARK   12  A    between atoms: C15_25  and  C18_28 
REMARK   13  A    between atoms: C15_25  and  C20_30 
ROOT
ATOM      1  S1  EML d          -7.151  27.834  81.613  0.00  0.00     0.029 SA
ATOM      2  N6  EML d          -7.596  27.629  80.130  0.00  0.00    -0.212 NA
ATOM      3  C11 EML d          -6.471  29.418  81.448  0.00  0.00     0.096 A 
ATOM      4  C12 EML d          -6.663  29.754  80.103  0.00  0.00    -0.023 A 
ATOM      5  C14 EML d          -7.294  28.727  79.400  0.00  0.00     0.071 A 
ATOM      6  H11 EML d          -6.357  30.700  79.659  0.00  0.00     0.091 H 
ENDROOT
BRANCH   5   7
ATOM      7  C13 EML d          -7.666  28.761  77.936  0.00  0.00     0.124 C 
ATOM      8  H12 EML d          -8.556  28.128  77.806  0.00  0.00     0.086 H 
ATOM      9  H13 EML d          -7.915  29.802  77.683  0.00  0.00     0.086 H 
BRANCH   7  10
ATOM     10  N8  EML d          -6.624  28.289  76.942  0.00  0.00    -0.056 N 
ATOM     11  H8  EML d          -6.074  27.716  77.564  0.00  0.00     0.281 HD
BRANCH  10  12
ATOM     12  C4  EML d          -7.064  27.261  75.996  0.00  0.00     0.082 C 
ATOM     13  H4  EML d          -7.331  26.380  76.597  0.00  0.00     0.075 H 
ATOM     14  H5  EML d          -6.193  27.025  75.366  0.00  0.00     0.075 H 
BRANCH  12  15
ATOM     15  C16 EML d          -8.212  27.497  75.057  0.00  0.00    -0.053 C 
ATOM     16  H14 EML d          -8.064  26.905  74.141  0.00  0.00     0.029 H 
ATOM     17  H15 EML d          -8.262  28.565  74.800  0.00  0.00     0.029 H 
ATOM     18  H16 EML d          -9.151  27.192  75.542  0.00  0.00     0.029 H 
ENDBRANCH  12  15
ENDBRANCH  10  12
BRANCH  10  19
ATOM     19  C15 EML d          -5.550  29.194  76.474  0.00  0.00     0.142 C 
BRANCH  19  20
ATOM     20  C17 EML d          -6.091  30.586  76.075  0.00  0.00     0.047 C 
ATOM     21  H17 EML d          -6.978  30.454  75.438  0.00  0.00     0.077 H 
ATOM     22  H18 EML d          -6.374  31.133  76.987  0.00  0.00     0.077 H 
BRANCH  20  23
ATOM     23  O1  EML d          -5.112  31.359  75.355  0.00  0.00    -0.398 OA
ATOM     24  H2  EML d          -5.503  32.176  75.068  0.00  0.00     0.209 HD
ENDBRANCH  20  23
ENDBRANCH  19  20
BRANCH  19  25
ATOM     25  C18 EML d          -4.915  28.788  75.189  0.00  0.00    -0.043 C 
ATOM     26  H19 EML d          -5.109  29.556  74.425  0.00  0.00     0.030 H 
ATOM     27  H20 EML d          -5.337  27.828  74.859  0.00  0.00     0.030 H 
ATOM     28  H21 EML d          -3.830  28.681  75.334  0.00  0.00     0.030 H 
ENDBRANCH  19  25
BRANCH  19  29
ATOM     29  C20 EML d          -4.363  29.265  77.476  0.00  0.00    -0.043 C 
ATOM     30  H25 EML d          -3.834  28.301  77.487  0.00  0.00     0.030 H 
ATOM     31  H26 EML d          -4.746  29.485  78.483  0.00  0.00     0.030 H 
ATOM     32  H27 EML d          -3.668  30.060  77.166  0.00  0.00     0.030 H 
ENDBRANCH  19  29
ENDBRANCH  10  19
ENDBRANCH   7  10
ENDBRANCH   5   7
BRANCH   3  33
ATOM     33  N1  EML d          -5.855  30.186  82.439  0.00  0.00    -0.331 N 
ATOM     34  H1  EML d          -6.110  29.987  83.416  0.00  0.00     0.168 HD
BRANCH  33  35
ATOM     35  C5  EML d          -4.928  31.193  82.214  0.00  0.00     0.176 A 
ATOM     36  C6  EML d          -4.684  32.184  83.168  0.00  0.00     0.181 A 
ATOM     37  N2  EML d          -5.305  32.406  84.403  0.00  0.00    -0.237 NA
ATOM     38  N3  EML d          -3.757  33.144  82.885  0.00  0.00    -0.299 N 
ATOM     39  C9  EML d          -4.687  33.527  84.831  0.00  0.00     0.032 A 
ATOM     40  C7  EML d          -3.708  34.034  83.936  0.00  0.00     0.071 A 
ATOM     41  H9  EML d          -4.919  34.002  85.782  0.00  0.00     0.118 H 
ATOM     42  C2  EML d          -3.034  33.223  81.714  0.00  0.00     0.011 A 
ATOM     43  C3  EML d          -3.281  32.266  80.759  0.00  0.00     0.049 A 
ATOM     44  H3  EML d          -2.297  34.009  81.553  0.00  0.00     0.115 H 
ATOM     45  N7  EML d          -4.239  31.296  81.022  0.00  0.00    -0.231 NA
BRANCH  40  46
ATOM     46  C1  EML d          -2.884  35.304  84.046  0.00  0.00     0.029 A 
ATOM     47  C8  EML d          -3.407  36.593  83.980  0.00  0.00     0.035 A 
ATOM     48  N5  EML d          -2.337  37.399  84.133  0.00  0.00    -0.187 NA
ATOM     49  H7  EML d          -4.447  36.884  83.837  0.00  0.00     0.118 H 
ATOM     50  N4  EML d          -1.196  36.707  84.304  0.00  0.00    -0.289 N 
ATOM     51  C10 EML d          -1.475  35.404  84.252  0.00  0.00     0.009 A 
ATOM     52  H6  EML d          -0.262  37.116  84.450  0.00  0.00     0.188 HD
ATOM     53  H10 EML d          -0.769  34.580  84.348  0.00  0.00     0.115 H 
ENDBRANCH  40  46
BRANCH  43  54
ATOM     54  C19 EML d          -2.542  32.235  79.467  0.00  0.00    -0.034 C 
ATOM     55  H22 EML d          -2.570  31.216  79.052  0.00  0.00     0.035 H 
ATOM     56  H23 EML d          -1.497  32.533  79.635  0.00  0.00     0.035 H 
ATOM     57  H24 EML d          -3.013  32.932  78.758  0.00  0.00     0.035 H 
ENDBRANCH  43  54
ENDBRANCH  33  35
ENDBRANCH   3  33
TORSDOF 13
ENDMDL
MODEL 5
REMARK VINA RESULT:      -5.5      3.669     10.115
REMARK  13 active torsions:
REMARK  status: ('A' for Active; 'I' for Inactive)
REMARK    1  A    between atoms: C7_15  and  C1_1 
REMARK    2  A    between atoms: N1_2  and  C5_11 
REMARK    3  A    between atoms: C11_21  and  N1_2 
REMARK    4  A    between atoms: C17_27  and  O1_3 
REMARK    5  A    between atoms: C3_7  and  C19_29 
REMARK    6  A    between atoms: N8_18  and  C4_9 
REMARK    7  A    between atoms: C4_9  and  C16_26 
REMARK    8  A    between atoms: N8_18  and  C13_23 
REMARK    9  A    between atoms: C15_25  and  N8_18 
REMARK   10  A    between atoms: C13_23  and  C14_24 
REMARK   11  A    between atoms: C15_25  and  C17_27 
REMARK   12  A    between atoms: C15_25  and  C18_28 
REMARK   13  A    between atoms: C15_25  and  C20_30 
ROOT
ATOM      1  S1  EML d          -6.900  29.693  83.712  0.00  0.00     0.029 SA
ATOM      2  N6  EML d          -6.568  28.884  82.418  0.00  0.00    -0.212 NA
ATOM      3  C11 EML d          -5.818  31.020  83.455  0.00  0.00     0.096 A 
ATOM      4  C12 EML d          -5.197  30.747  82.231  0.00  0.00    -0.023 A 
ATOM      5  C14 EML d          -5.642  29.544  81.685  0.00  0.00     0.071 A 
ATOM      6  H11 EML d          -4.457  31.395  81.763  0.00  0.00     0.091 H 
ENDROOT
BRANCH   5   7
ATOM      7  C13 EML d          -5.192  28.955  80.368  0.00  0.00     0.124 C 
ATOM      8  H12 EML d          -4.123  29.186  80.251  0.00  0.00     0.086 H 
ATOM      9  H13 EML d          -5.328  27.864  80.430  0.00  0.00     0.086 H 
BRANCH   7  10
ATOM     10  N8  EML d          -5.899  29.431  79.115  0.00  0.00    -0.056 N 
ATOM     11  H8  EML d          -6.336  30.256  79.495  0.00  0.00     0.281 HD
BRANCH  10  12
ATOM     12  C4  EML d          -5.048  30.055  78.099  0.00  0.00     0.082 C 
ATOM     13  H4  EML d          -5.712  30.668  77.473  0.00  0.00     0.075 H 
ATOM     14  H5  EML d          -4.631  29.233  77.497  0.00  0.00     0.075 H 
BRANCH  12  15
ATOM     15  C16 EML d          -3.890  30.933  78.476  0.00  0.00    -0.053 C 
ATOM     16  H14 EML d          -3.088  30.823  77.730  0.00  0.00     0.029 H 
ATOM     17  H15 EML d          -3.513  30.638  79.466  0.00  0.00     0.029 H 
ATOM     18  H16 EML d          -4.220  31.982  78.506  0.00  0.00     0.029 H 
ENDBRANCH  12  15
ENDBRANCH  10  12
BRANCH  10  19
ATOM     19  C15 EML d          -7.117  28.749  78.620  0.00  0.00     0.142 C 
BRANCH  19  20
ATOM     20  C17 EML d          -7.054  28.468  77.101  0.00  0.00     0.047 C 
ATOM     21  H17 EML d          -6.633  29.349  76.594  0.00  0.00     0.077 H 
ATOM     22  H18 EML d          -6.402  27.599  76.927  0.00  0.00     0.077 H 
BRANCH  20  23
ATOM     23  O1  EML d          -8.355  28.192  76.550  0.00  0.00    -0.398 OA
ATOM     24  H2  EML d          -8.904  27.799  77.219  0.00  0.00     0.209 HD
ENDBRANCH  20  23
ENDBRANCH  19  20
BRANCH  19  25
ATOM     25  C18 EML d          -8.355  29.576  78.677  0.00  0.00    -0.043 C 
ATOM     26  H19 EML d          -8.712  29.772  77.655  0.00  0.00     0.030 H 
ATOM     27  H20 EML d          -8.136  30.530  79.179  0.00  0.00     0.030 H 
ATOM     28  H21 EML d          -9.130  29.036  79.239  0.00  0.00     0.030 H 
ENDBRANCH  19  25
BRANCH  19  29
ATOM     29  C20 EML d          -7.466  27.487  79.459  0.00  0.00    -0.043 C 
ATOM     30  H25 EML d          -7.183  27.655  80.509  0.00  0.00     0.030 H 
ATOM     31  H26 EML d          -6.916  26.621  79.065  0.00  0.00     0.030 H 
ATOM     32  H27 EML d          -8.547  27.294  79.398  0.00  0.00     0.030 H 
ENDBRANCH  19  29
ENDBRANCH  10  19
ENDBRANCH   7  10
ENDBRANCH   5   7
BRANCH   3  33
ATOM     33  N1  EML d          -5.604  32.116  84.294  0.00  0.00    -0.331 N 
ATOM     34  H1  EML d          -6.433  32.637  84.611  0.00  0.00     0.168 HD
BRANCH  33  35
ATOM     35  C5  EML d          -4.366  32.561  84.736  0.00  0.00     0.176 A 
ATOM     36  C6  EML d          -3.938  33.870  84.507  0.00  0.00     0.181 A 
ATOM     37  N2  EML d          -4.560  34.900  83.791  0.00  0.00    -0.237 NA
ATOM     38  N3  EML d          -2.710  34.242  84.971  0.00  0.00    -0.299 N 
ATOM     39  C9  EML d          -3.647  35.890  83.873  0.00  0.00     0.032 A 
ATOM     40  C7  EML d          -2.475  35.549  84.599  0.00  0.00     0.071 A 
ATOM     41  H9  EML d          -3.796  36.869  83.421  0.00  0.00     0.118 H 
ATOM     42  C2  EML d          -1.840  33.419  85.653  0.00  0.00     0.011 A 
ATOM     43  C3  EML d          -2.242  32.122  85.865  0.00  0.00     0.049 A 
ATOM     44  H3  EML d          -0.876  33.781  86.008  0.00  0.00     0.115 H 
ATOM     45  N7  EML d          -3.478  31.720  85.379  0.00  0.00    -0.231 NA
BRANCH  40  46
ATOM     46  C1  EML d          -1.220  36.372  84.823  0.00  0.00     0.029 A 
ATOM     47  C8  EML d          -0.972  37.140  85.957  0.00  0.00     0.035 A 
ATOM     48  N5  EML d           0.245  37.681  85.739  0.00  0.00    -0.187 NA
ATOM     49  H7  EML d          -1.614  37.274  86.826  0.00  0.00     0.118 H 
ATOM     50  N4  EML d           0.773  37.292  84.564  0.00  0.00    -0.289 N 
ATOM     51  C10 EML d          -0.096  36.485  83.951  0.00  0.00     0.009 A 
ATOM     52  H6  EML d           1.694  37.572  84.197  0.00  0.00     0.188 HD
ATOM     53  H10 EML d           0.028  36.009  82.980  0.00  0.00     0.115 H 
ENDBRANCH  40  46
BRANCH  43  54
ATOM     54  C19 EML d          -1.397  31.150  86.613  0.00  0.00    -0.034 C 
ATOM     55  H22 EML d          -0.470  31.645  86.941  0.00  0.00     0.035 H 
ATOM     56  H23 EML d          -1.148  30.301  85.960  0.00  0.00     0.035 H 
ATOM     57  H24 EML d          -1.948  30.786  87.494  0.00  0.00     0.035 H 
ENDBRANCH  43  54
ENDBRANCH  33  35
ENDBRANCH   3  33
TORSDOF 13
ENDMDL
MODEL 6
REMARK VINA RESULT:      -5.5      1.956      2.844
REMARK  13 active torsions:
REMARK  status: ('A' for Active; 'I' for Inactive)
REMARK    1  A    between atoms: C7_15  and  C1_1 
REMARK    2  A    between atoms: N1_2  and  C5_11 
REMARK    3  A    between atoms: C11_21  and  N1_2 
REMARK    4  A    between atoms: C17_27  and  O1_3 
REMARK    5  A    between atoms: C3_7  and  C19_29 
REMARK    6  A    between atoms: N8_18  and  C4_9 
REMARK    7  A    between atoms: C4_9  and  C16_26 
REMARK    8  A    between atoms: N8_18  and  C13_23 
REMARK    9  A    between atoms: C15_25  and  N8_18 
REMARK   10  A    between atoms: C13_23  and  C14_24 
REMARK   11  A    between atoms: C15_25  and  C17_27 
REMARK   12  A    between atoms: C15_25  and  C18_28 
REMARK   13  A    between atoms: C15_25  and  C20_30 
ROOT
ATOM      1  S1  EML d          -2.499  33.777  84.785  0.00  0.00     0.029 SA
ATOM      2  N6  EML d          -2.441  35.205  85.414  0.00  0.00    -0.212 NA
ATOM      3  C11 EML d          -2.250  34.227  83.131  0.00  0.00     0.096 A 
ATOM      4  C12 EML d          -2.098  35.618  83.155  0.00  0.00    -0.023 A 
ATOM      5  C14 EML d          -2.213  36.126  84.449  0.00  0.00     0.071 A 
ATOM      6  H11 EML d          -1.914  36.228  82.273  0.00  0.00     0.091 H 
ENDROOT
BRANCH   5   7
ATOM      7  C13 EML d          -2.087  37.582  84.838  0.00  0.00     0.124 C 
ATOM      8  H12 EML d          -2.823  38.146  84.246  0.00  0.00     0.086 H 
ATOM      9  H13 EML d          -2.336  37.661  85.907  0.00  0.00     0.086 H 
BRANCH   7  10
ATOM     10  N8  EML d          -0.738  38.241  84.635  0.00  0.00    -0.056 N 
ATOM     11  H8  EML d          -0.835  38.987  85.306  0.00  0.00     0.281 HD
BRANCH  10  12
ATOM     12  C4  EML d           0.409  37.541  85.217  0.00  0.00     0.082 C 
ATOM     13  H4  EML d           1.263  37.742  84.554  0.00  0.00     0.075 H 
ATOM     14  H5  EML d           0.165  36.468  85.186  0.00  0.00     0.075 H 
BRANCH  12  15
ATOM     15  C16 EML d           0.880  37.828  86.613  0.00  0.00    -0.053 C 
ATOM     16  H14 EML d           0.019  37.824  87.299  0.00  0.00     0.029 H 
ATOM     17  H15 EML d           1.365  38.814  86.641  0.00  0.00     0.029 H 
ATOM     18  H16 EML d           1.599  37.056  86.924  0.00  0.00     0.029 H 
ENDBRANCH  12  15
ENDBRANCH  10  12
BRANCH  10  19
ATOM     19  C15 EML d          -0.464  39.064  83.435  0.00  0.00     0.142 C 
BRANCH  19  20
ATOM     20  C17 EML d           0.321  38.282  82.357  0.00  0.00     0.047 C 
ATOM     21  H17 EML d           0.862  38.998  81.721  0.00  0.00     0.077 H 
ATOM     22  H18 EML d           1.042  37.616  82.855  0.00  0.00     0.077 H 
BRANCH  20  23
ATOM     23  O1  EML d          -0.548  37.488  81.528  0.00  0.00    -0.398 OA
ATOM     24  H2  EML d          -0.218  36.598  81.486  0.00  0.00     0.209 HD
ENDBRANCH  20  23
ENDBRANCH  19  20
BRANCH  19  25
ATOM     25  C18 EML d           0.475  40.198  83.663  0.00  0.00    -0.043 C 
ATOM     26  H19 EML d           0.706  40.683  82.703  0.00  0.00     0.030 H 
ATOM     27  H20 EML d           1.403  39.820  84.116  0.00  0.00     0.030 H 
ATOM     28  H21 EML d           0.008  40.929  84.340  0.00  0.00     0.030 H 
ENDBRANCH  19  25
BRANCH  19  29
ATOM     29  C20 EML d          -1.749  39.742  82.881  0.00  0.00    -0.043 C 
ATOM     30  H25 EML d          -1.479  40.424  82.060  0.00  0.00     0.030 H 
ATOM     31  H26 EML d          -2.238  40.312  83.685  0.00  0.00     0.030 H 
ATOM     32  H27 EML d          -2.438  38.972  82.505  0.00  0.00     0.030 H 
ENDBRANCH  19  29
ENDBRANCH  10  19
ENDBRANCH   7  10
ENDBRANCH   5   7
BRANCH   3  33
ATOM     33  N1  EML d          -2.220  33.385  82.018  0.00  0.00    -0.331 N 
ATOM     34  H1  EML d          -1.407  33.460  81.391  0.00  0.00     0.168 HD
BRANCH  33  35
ATOM     35  C5  EML d          -3.196  32.456  81.686  0.00  0.00     0.176 A 
ATOM     36  C6  EML d          -3.339  31.985  80.379  0.00  0.00     0.181 A 
ATOM     37  N2  EML d          -2.654  32.357  79.216  0.00  0.00    -0.237 NA
ATOM     38  N3  EML d          -4.318  31.070  80.122  0.00  0.00    -0.299 N 
ATOM     39  C9  EML d          -3.267  31.607  78.277  0.00  0.00     0.032 A 
ATOM     40  C7  EML d          -4.307  30.779  78.774  0.00  0.00     0.071 A 
ATOM     41  H9  EML d          -2.987  31.635  77.225  0.00  0.00     0.118 H 
ATOM     42  C2  EML d          -5.196  30.568  81.058  0.00  0.00     0.011 A 
ATOM     43  C3  EML d          -5.079  31.041  82.343  0.00  0.00     0.049 A 
ATOM     44  H3  EML d          -5.950  29.828  80.791  0.00  0.00     0.115 H 
ATOM     45  N7  EML d          -4.104  31.990  82.617  0.00  0.00    -0.231 NA
BRANCH  40  46
ATOM     46  C1  EML d          -5.255  29.876  78.007  0.00  0.00     0.029 A 
ATOM     47  C8  EML d          -6.213  29.054  78.596  0.00  0.00     0.035 A 
ATOM     48  N5  EML d          -6.825  28.451  77.556  0.00  0.00    -0.187 NA
ATOM     49  H7  EML d          -6.421  28.928  79.657  0.00  0.00     0.118 H 
ATOM     50  N4  EML d          -6.328  28.848  76.371  0.00  0.00    -0.289 N 
ATOM     51  C10 EML d          -5.348  29.726  76.591  0.00  0.00     0.009 A 
ATOM     52  H6  EML d          -6.651  28.528  75.446  0.00  0.00     0.188 HD
ATOM     53  H10 EML d          -4.740  30.229  75.840  0.00  0.00     0.115 H 
ENDBRANCH  40  46
BRANCH  43  54
ATOM     54  C19 EML d          -5.954  30.551  83.444  0.00  0.00    -0.034 C 
ATOM     55  H22 EML d          -5.368  30.474  84.372  0.00  0.00     0.035 H 
ATOM     56  H23 EML d          -6.356  29.562  83.181  0.00  0.00     0.035 H 
ATOM     57  H24 EML d          -6.785  31.257  83.594  0.00  0.00     0.035 H 
ENDBRANCH  43  54
ENDBRANCH  33  35
ENDBRANCH   3  33
TORSDOF 13
ENDMDL
MODEL 7
REMARK VINA RESULT:      -5.5      3.173     10.040
REMARK  13 active torsions:
REMARK  status: ('A' for Active; 'I' for Inactive)
REMARK    1  A    between atoms: C7_15  and  C1_1 
REMARK    2  A    between atoms: N1_2  and  C5_11 
REMARK    3  A    between atoms: C11_21  and  N1_2 
REMARK    4  A    between atoms: C17_27  and  O1_3 
REMARK    5  A    between atoms: C3_7  and  C19_29 
REMARK    6  A    between atoms: N8_18  and  C4_9 
REMARK    7  A    between atoms: C4_9  and  C16_26 
REMARK    8  A    between atoms: N8_18  and  C13_23 
REMARK    9  A    between atoms: C15_25  and  N8_18 
REMARK   10  A    between atoms: C13_23  and  C14_24 
REMARK   11  A    between atoms: C15_25  and  C17_27 
REMARK   12  A    between atoms: C15_25  and  C18_28 
REMARK   13  A    between atoms: C15_25  and  C20_30 
ROOT
ATOM      1  S1  EML d          -6.766  29.062  83.153  0.00  0.00     0.029 SA
ATOM      2  N6  EML d          -7.479  28.797  81.789  0.00  0.00    -0.212 NA
ATOM      3  C11 EML d          -5.803  30.417  82.667  0.00  0.00     0.096 A 
ATOM      4  C12 EML d          -6.136  30.631  81.325  0.00  0.00    -0.023 A 
ATOM      5  C14 EML d          -7.074  29.704  80.872  0.00  0.00     0.071 A 
ATOM      6  H11 EML d          -5.713  31.425  80.710  0.00  0.00     0.091 H 
ENDROOT
BRANCH   5   7
ATOM      7  C13 EML d          -7.663  29.656  79.480  0.00  0.00     0.124 C 
ATOM      8  H12 EML d          -8.571  29.037  79.528  0.00  0.00     0.086 H 
ATOM      9  H13 EML d          -7.933  30.685  79.200  0.00  0.00     0.086 H 
BRANCH   7  10
ATOM     10  N8  EML d          -6.790  29.098  78.375  0.00  0.00    -0.056 N 
ATOM     11  H8  EML d          -6.846  29.874  77.734  0.00  0.00     0.281 HD
BRANCH  10  12
ATOM     12  C4  EML d          -5.348  29.105  78.635  0.00  0.00     0.082 C 
ATOM     13  H4  EML d          -4.954  28.167  78.217  0.00  0.00     0.075 H 
ATOM     14  H5  EML d          -5.231  29.097  79.729  0.00  0.00     0.075 H 
BRANCH  12  15
ATOM     15  C16 EML d          -4.462  30.203  78.122  0.00  0.00    -0.053 C 
ATOM     16  H14 EML d          -3.496  30.170  78.648  0.00  0.00     0.029 H 
ATOM     17  H15 EML d          -4.944  31.175  78.299  0.00  0.00     0.029 H 
ATOM     18  H16 EML d          -4.297  30.066  77.043  0.00  0.00     0.029 H 
ENDBRANCH  12  15
ENDBRANCH  10  12
BRANCH  10  19
ATOM     19  C15 EML d          -7.288  28.034  77.472  0.00  0.00     0.142 C 
BRANCH  19  20
ATOM     20  C17 EML d          -6.192  27.527  76.507  0.00  0.00     0.047 C 
ATOM     21  H17 EML d          -5.219  27.571  77.018  0.00  0.00     0.077 H 
ATOM     22  H18 EML d          -6.415  26.485  76.232  0.00  0.00     0.077 H 
BRANCH  20  23
ATOM     23  O1  EML d          -6.123  28.319  75.306  0.00  0.00    -0.398 OA
ATOM     24  H2  EML d          -6.881  28.137  74.764  0.00  0.00     0.209 HD
ENDBRANCH  20  23
ENDBRANCH  19  20
BRANCH  19  25
ATOM     25  C18 EML d          -8.309  28.487  76.486  0.00  0.00    -0.043 C 
ATOM     26  H19 EML d          -9.215  27.873  76.588  0.00  0.00     0.030 H 
ATOM     27  H20 EML d          -7.907  28.382  75.468  0.00  0.00     0.030 H 
ATOM     28  H21 EML d          -8.557  29.542  76.675  0.00  0.00     0.030 H 
ENDBRANCH  19  25
BRANCH  19  29
ATOM     29  C20 EML d          -7.995  26.888  78.249  0.00  0.00    -0.043 C 
ATOM     30  H25 EML d          -9.007  26.741  77.844  0.00  0.00     0.030 H 
ATOM     31  H26 EML d          -8.061  27.153  79.314  0.00  0.00     0.030 H 
ATOM     32  H27 EML d          -7.417  25.958  78.137  0.00  0.00     0.030 H 
ENDBRANCH  19  29
ENDBRANCH  10  19
ENDBRANCH   7  10
ENDBRANCH   5   7
BRANCH   3  33
ATOM     33  N1  EML d          -4.887  31.130  83.443  0.00  0.00    -0.331 N 
ATOM     34  H1  EML d          -4.914  30.980  84.462  0.00  0.00     0.168 HD
BRANCH  33  35
ATOM     35  C5  EML d          -3.944  32.023  82.956  0.00  0.00     0.176 A 
ATOM     36  C6  EML d          -3.426  33.044  83.755  0.00  0.00     0.181 A 
ATOM     37  N2  EML d          -3.761  33.409  85.065  0.00  0.00    -0.237 NA
ATOM     38  N3  EML d          -2.499  33.886  83.213  0.00  0.00    -0.299 N 
ATOM     39  C9  EML d          -2.976  34.488  85.265  0.00  0.00     0.032 A 
ATOM     40  C7  EML d          -2.161  34.835  84.155  0.00  0.00     0.071 A 
ATOM     41  H9  EML d          -2.968  35.047  86.200  0.00  0.00     0.118 H 
ATOM     42  C2  EML d          -2.027  33.815  81.921  0.00  0.00     0.011 A 
ATOM     43  C3  EML d          -2.545  32.826  81.118  0.00  0.00     0.049 A 
ATOM     44  H3  EML d          -1.275  34.511  81.551  0.00  0.00     0.115 H 
ATOM     45  N7  EML d          -3.507  31.977  81.647  0.00  0.00    -0.231 NA
BRANCH  40  46
ATOM     46  C1  EML d          -1.228  36.020  83.991  0.00  0.00     0.029 A 
ATOM     47  C8  EML d           0.142  35.986  84.236  0.00  0.00     0.035 A 
ATOM     48  N5  EML d           0.566  37.236  83.955  0.00  0.00    -0.187 NA
ATOM     49  H7  EML d           0.737  35.141  84.578  0.00  0.00     0.118 H 
ATOM     50  N4  EML d          -0.435  38.034  83.541  0.00  0.00    -0.289 N 
ATOM     51  C10 EML d          -1.571  37.334  83.550  0.00  0.00     0.009 A 
ATOM     52  H6  EML d          -0.340  39.021  83.263  0.00  0.00     0.188 HD
ATOM     53  H10 EML d          -2.562  37.693  83.277  0.00  0.00     0.115 H 
ENDBRANCH  40  46
BRANCH  43  54
ATOM     54  C19 EML d          -2.091  32.636  79.713  0.00  0.00    -0.034 C 
ATOM     55  H22 EML d          -2.887  32.953  79.023  0.00  0.00     0.035 H 
ATOM     56  H23 EML d          -1.861  31.574  79.542  0.00  0.00     0.035 H 
ATOM     57  H24 EML d          -1.189  33.240  79.533  0.00  0.00     0.035 H 
ENDBRANCH  43  54
ENDBRANCH  33  35
ENDBRANCH   3  33
TORSDOF 13
ENDMDL
MODEL 8
REMARK VINA RESULT:      -5.4      2.983     10.100
REMARK  13 active torsions:
REMARK  status: ('A' for Active; 'I' for Inactive)
REMARK    1  A    between atoms: C7_15  and  C1_1 
REMARK    2  A    between atoms: N1_2  and  C5_11 
REMARK    3  A    between atoms: C11_21  and  N1_2 
REMARK    4  A    between atoms: C17_27  and  O1_3 
REMARK    5  A    between atoms: C3_7  and  C19_29 
REMARK    6  A    between atoms: N8_18  and  C4_9 
REMARK    7  A    between atoms: C4_9  and  C16_26 
REMARK    8  A    between atoms: N8_18  and  C13_23 
REMARK    9  A    between atoms: C15_25  and  N8_18 
REMARK   10  A    between atoms: C13_23  and  C14_24 
REMARK   11  A    between atoms: C15_25  and  C17_27 
REMARK   12  A    between atoms: C15_25  and  C18_28 
REMARK   13  A    between atoms: C15_25  and  C20_30 
ROOT
ATOM      1  S1  EML d          -4.693  32.909  82.448  0.00  0.00     0.029 SA
ATOM      2  N6  EML d          -4.993  31.864  81.327  0.00  0.00    -0.212 NA
ATOM      3  C11 EML d          -2.964  32.829  82.403  0.00  0.00     0.096 A 
ATOM      4  C12 EML d          -2.673  31.905  81.393  0.00  0.00    -0.023 A 
ATOM      5  C14 EML d          -3.833  31.387  80.818  0.00  0.00     0.071 A 
ATOM      6  H11 EML d          -1.664  31.625  81.093  0.00  0.00     0.091 H 
ENDROOT
BRANCH   5   7
ATOM      7  C13 EML d          -3.885  30.380  79.692  0.00  0.00     0.124 C 
ATOM      8  H12 EML d          -3.104  30.655  78.967  0.00  0.00     0.086 H 
ATOM      9  H13 EML d          -3.656  29.393  80.121  0.00  0.00     0.086 H 
BRANCH   7  10
ATOM     10  N8  EML d          -5.188  30.254  78.930  0.00  0.00    -0.056 N 
ATOM     11  H8  EML d          -5.644  31.084  79.277  0.00  0.00     0.281 HD
BRANCH  10  12
ATOM     12  C4  EML d          -5.130  30.588  77.505  0.00  0.00     0.082 C 
ATOM     13  H4  EML d          -5.829  31.424  77.355  0.00  0.00     0.075 H 
ATOM     14  H5  EML d          -5.495  29.702  76.964  0.00  0.00     0.075 H 
BRANCH  12  15
ATOM     15  C16 EML d          -3.843  30.987  76.843  0.00  0.00    -0.053 C 
ATOM     16  H14 EML d          -3.716  32.078  76.917  0.00  0.00     0.029 H 
ATOM     17  H15 EML d          -3.869  30.692  75.784  0.00  0.00     0.029 H 
ATOM     18  H16 EML d          -3.002  30.486  77.344  0.00  0.00     0.029 H 
ENDBRANCH  12  15
ENDBRANCH  10  12
BRANCH  10  19
ATOM     19  C15 EML d          -6.212  29.261  79.329  0.00  0.00     0.142 C 
BRANCH  19  20
ATOM     20  C17 EML d          -6.763  28.472  78.120  0.00  0.00     0.047 C 
ATOM     21  H17 EML d          -6.463  28.983  77.194  0.00  0.00     0.077 H 
ATOM     22  H18 EML d          -6.337  27.458  78.133  0.00  0.00     0.077 H 
BRANCH  20  23
ATOM     23  O1  EML d          -8.200  28.372  78.152  0.00  0.00    -0.398 OA
ATOM     24  H2  EML d          -8.534  28.862  78.894  0.00  0.00     0.209 HD
ENDBRANCH  20  23
ENDBRANCH  19  20
BRANCH  19  25
ATOM     25  C18 EML d          -7.478  29.852  79.848  0.00  0.00    -0.043 C 
ATOM     26  H19 EML d          -7.242  30.651  80.567  0.00  0.00     0.030 H 
ATOM     27  H20 EML d          -8.068  29.071  80.349  0.00  0.00     0.030 H 
ATOM     28  H21 EML d          -8.056  30.270  79.012  0.00  0.00     0.030 H 
ENDBRANCH  19  25
BRANCH  19  29
ATOM     29  C20 EML d          -5.722  28.344  80.485  0.00  0.00    -0.043 C 
ATOM     30  H25 EML d          -6.238  27.374  80.427  0.00  0.00     0.030 H 
ATOM     31  H26 EML d          -5.944  28.820  81.451  0.00  0.00     0.030 H 
ATOM     32  H27 EML d          -4.637  28.187  80.394  0.00  0.00     0.030 H 
ENDBRANCH  19  29
ENDBRANCH  10  19
ENDBRANCH   7  10
ENDBRANCH   5   7
BRANCH   3  33
ATOM     33  N1  EML d          -2.060  33.526  83.207  0.00  0.00    -0.331 N 
ATOM     34  H1  EML d          -1.509  32.978  83.883  0.00  0.00     0.168 HD
BRANCH  33  35
ATOM     35  C5  EML d          -1.843  34.896  83.172  0.00  0.00     0.176 A 
ATOM     36  C6  EML d          -0.664  35.433  82.650  0.00  0.00     0.181 A 
ATOM     37  N2  EML d           0.477  34.781  82.166  0.00  0.00    -0.237 NA
ATOM     38  N3  EML d          -0.516  36.790  82.643  0.00  0.00    -0.299 N 
ATOM     39  C9  EML d           1.285  35.818  81.863  0.00  0.00     0.032 A 
ATOM     40  C7  EML d           0.727  37.095  82.130  0.00  0.00     0.071 A 
ATOM     41  H9  EML d           2.284  35.685  81.449  0.00  0.00     0.118 H 
ATOM     42  C2  EML d          -1.445  37.688  83.120  0.00  0.00     0.011 A 
ATOM     43  C3  EML d          -2.600  37.170  83.656  0.00  0.00     0.049 A 
ATOM     44  H3  EML d          -1.272  38.763  83.075  0.00  0.00     0.115 H 
ATOM     45  N7  EML d          -2.756  35.791  83.693  0.00  0.00    -0.231 NA
BRANCH  40  46
ATOM     46  C1  EML d           1.369  38.463  81.993  0.00  0.00     0.029 A 
ATOM     47  C8  EML d           1.852  39.219  83.058  0.00  0.00     0.035 A 
ATOM     48  N5  EML d           2.339  40.338  82.484  0.00  0.00    -0.187 NA
ATOM     49  H7  EML d           1.840  38.963  84.116  0.00  0.00     0.118 H 
ATOM     50  N4  EML d           2.207  40.325  81.145  0.00  0.00    -0.289 N 
ATOM     51  C10 EML d           1.606  39.189  80.787  0.00  0.00     0.009 A 
ATOM     52  H6  EML d           2.517  41.068  80.503  0.00  0.00     0.188 HD
ATOM     53  H10 EML d           1.347  38.878  79.776  0.00  0.00     0.115 H 
ENDBRANCH  40  46
BRANCH  43  54
ATOM     54  C19 EML d          -3.687  38.045  84.177  0.00  0.00    -0.034 C 
ATOM     55  H22 EML d          -3.289  39.055  84.359  0.00  0.00     0.035 H 
ATOM     56  H23 EML d          -4.073  37.628  85.119  0.00  0.00     0.035 H 
ATOM     57  H24 EML d          -4.501  38.099  83.439  0.00  0.00     0.035 H 
ENDBRANCH  43  54
ENDBRANCH  33  35
ENDBRANCH   3  33
TORSDOF 13
ENDMDL
MODEL 9
REMARK VINA RESULT:      -5.4      3.773      9.890
REMARK  13 active torsions:
REMARK  status: ('A' for Active; 'I' for Inactive)
REMARK    1  A    between atoms: C7_15  and  C1_1 
REMARK    2  A    between atoms: N1_2  and  C5_11 
REMARK    3  A    between atoms: C11_21  and  N1_2 
REMARK    4  A    between atoms: C17_27  and  O1_3 
REMARK    5  A    between atoms: C3_7  and  C19_29 
REMARK    6  A    between atoms: N8_18  and  C4_9 
REMARK    7  A    between atoms: C4_9  and  C16_26 
REMARK    8  A    between atoms: N8_18  and  C13_23 
REMARK    9  A    between atoms: C15_25  and  N8_18 
REMARK   10  A    between atoms: C13_23  and  C14_24 
REMARK   11  A    between atoms: C15_25  and  C17_27 
REMARK   12  A    between atoms: C15_25  and  C18_28 
REMARK   13  A    between atoms: C15_25  and  C20_30 
ROOT
ATOM      1  S1  EML d          -5.008  30.385  85.917  0.00  0.00     0.029 SA
ATOM      2  N6  EML d          -6.089  29.497  85.223  0.00  0.00    -0.212 NA
ATOM      3  C11 EML d          -5.080  31.743  84.845  0.00  0.00     0.096 A 
ATOM      4  C12 EML d          -6.064  31.409  83.908  0.00  0.00    -0.023 A 
ATOM      5  C14 EML d          -6.603  30.146  84.153  0.00  0.00     0.071 A 
ATOM      6  H11 EML d          -6.372  32.057  83.088  0.00  0.00     0.091 H 
ENDROOT
BRANCH   5   7
ATOM      7  C13 EML d          -7.694  29.482  83.346  0.00  0.00     0.124 C 
ATOM      8  H12 EML d          -8.482  29.171  84.048  0.00  0.00     0.086 H 
ATOM      9  H13 EML d          -8.097  30.236  82.652  0.00  0.00     0.086 H 
BRANCH   7  10
ATOM     10  N8  EML d          -7.311  28.267  82.525  0.00  0.00    -0.056 N 
ATOM     11  H8  EML d          -6.338  28.213  82.784  0.00  0.00     0.281 HD
BRANCH  10  12
ATOM     12  C4  EML d          -7.771  26.977  83.043  0.00  0.00     0.082 C 
ATOM     13  H4  EML d          -6.907  26.298  82.992  0.00  0.00     0.075 H 
ATOM     14  H5  EML d          -8.554  26.627  82.354  0.00  0.00     0.075 H 
BRANCH  12  15
ATOM     15  C16 EML d          -8.334  26.841  84.428  0.00  0.00    -0.053 C 
ATOM     16  H14 EML d          -9.155  26.107  84.419  0.00  0.00     0.029 H 
ATOM     17  H15 EML d          -8.717  27.815  84.765  0.00  0.00     0.029 H 
ATOM     18  H16 EML d          -7.545  26.499  85.113  0.00  0.00     0.029 H 
ENDBRANCH  12  15
ENDBRANCH  10  12
BRANCH  10  19
ATOM     19  C15 EML d          -7.140  28.361  81.057  0.00  0.00     0.142 C 
BRANCH  19  20
ATOM     20  C17 EML d          -5.652  28.319  80.638  0.00  0.00     0.047 C 
ATOM     21  H17 EML d          -5.266  27.302  80.800  0.00  0.00     0.077 H 
ATOM     22  H18 EML d          -5.576  28.574  79.571  0.00  0.00     0.077 H 
BRANCH  20  23
ATOM     23  O1  EML d          -4.853  29.246  81.396  0.00  0.00    -0.398 OA
ATOM     24  H2  EML d          -4.939  30.116  81.024  0.00  0.00     0.209 HD
ENDBRANCH  20  23
ENDBRANCH  19  20
BRANCH  19  25
ATOM     25  C18 EML d          -7.535  29.672  80.470  0.00  0.00    -0.043 C 
ATOM     26  H19 EML d          -6.677  30.109  79.939  0.00  0.00     0.030 H 
ATOM     27  H20 EML d          -7.853  30.352  81.274  0.00  0.00     0.030 H 
ATOM     28  H21 EML d          -8.366  29.523  79.766  0.00  0.00     0.030 H 
ENDBRANCH  19  25
BRANCH  19  29
ATOM     29  C20 EML d          -8.018  27.327  80.296  0.00  0.00    -0.043 C 
ATOM     30  H25 EML d          -7.418  26.432  80.071  0.00  0.00     0.030 H 
ATOM     31  H26 EML d          -8.378  27.773  79.357  0.00  0.00     0.030 H 
ATOM     32  H27 EML d          -8.877  27.044  80.922  0.00  0.00     0.030 H 
ENDBRANCH  19  29
ENDBRANCH  10  19
ENDBRANCH   7  10
ENDBRANCH   5   7
BRANCH   3  33
ATOM     33  N1  EML d          -4.314  32.909  84.898  0.00  0.00    -0.331 N 
ATOM     34  H1  EML d          -4.420  33.506  85.731  0.00  0.00     0.168 HD
BRANCH  33  35
ATOM     35  C5  EML d          -3.422  33.330  83.922  0.00  0.00     0.176 A 
ATOM     36  C6  EML d          -2.475  34.324  84.181  0.00  0.00     0.181 A 
ATOM     37  N2  EML d          -2.280  35.093  85.335  0.00  0.00    -0.237 NA
ATOM     38  N3  EML d          -1.626  34.689  83.177  0.00  0.00    -0.299 N 
ATOM     39  C9  EML d          -1.271  35.907  84.962  0.00  0.00     0.032 A 
ATOM     40  C7  EML d          -0.813  35.704  83.634  0.00  0.00     0.071 A 
ATOM     41  H9  EML d          -0.843  36.658  85.625  0.00  0.00     0.118 H 
ATOM     42  C2  EML d          -1.628  34.154  81.907  0.00  0.00     0.011 A 
ATOM     43  C3  EML d          -2.570  33.190  81.635  0.00  0.00     0.049 A 
ATOM     44  H3  EML d          -0.915  34.480  81.151  0.00  0.00     0.115 H 
ATOM     45  N7  EML d          -3.457  32.825  82.638  0.00  0.00    -0.231 NA
BRANCH  40  46
ATOM     46  C1  EML d           0.235  36.480  82.858  0.00  0.00     0.029 A 
ATOM     47  C8  EML d           1.526  36.025  82.602  0.00  0.00     0.035 A 
ATOM     48  N5  EML d           2.096  37.015  81.885  0.00  0.00    -0.187 NA
ATOM     49  H7  EML d           1.974  35.082  82.910  0.00  0.00     0.118 H 
ATOM     50  N4  EML d           1.252  38.040  81.666  0.00  0.00    -0.289 N 
ATOM     51  C10 EML d           0.086  37.765  82.253  0.00  0.00     0.009 A 
ATOM     52  H6  EML d           1.470  38.895  81.135  0.00  0.00     0.188 HD
ATOM     53  H10 EML d          -0.803  38.394  82.268  0.00  0.00     0.115 H 
ENDBRANCH  40  46
BRANCH  43  54
ATOM     54  C19 EML d          -2.651  32.523  80.306  0.00  0.00    -0.034 C 
ATOM     55  H22 EML d          -2.571  33.278  79.510  0.00  0.00     0.035 H 
ATOM     56  H23 EML d          -3.613  31.997  80.217  0.00  0.00     0.035 H 
ATOM     57  H24 EML d          -1.827  31.799  80.208  0.00  0.00     0.035 H 
ENDBRANCH  43  54
ENDBRANCH  33  35
ENDBRANCH   3  33
TORSDOF 13
ENDMDL
MODEL 10
REMARK VINA RESULT:      -5.2      2.818     10.198
REMARK  13 active torsions:
REMARK  status: ('A' for Active; 'I' for Inactive)
REMARK    1  A    between atoms: C7_15  and  C1_1 
REMARK    2  A    between atoms: N1_2  and  C5_11 
REMARK    3  A    between atoms: C11_21  and  N1_2 
REMARK    4  A    between atoms: C17_27  and  O1_3 
REMARK    5  A    between atoms: C3_7  and  C19_29 
REMARK    6  A    between atoms: N8_18  and  C4_9 
REMARK    7  A    between atoms: C4_9  and  C16_26 
REMARK    8  A    between atoms: N8_18  and  C13_23 
REMARK    9  A    between atoms: C15_25  and  N8_18 
REMARK   10  A    between atoms: C13_23  and  C14_24 
REMARK   11  A    between atoms: C15_25  and  C17_27 
REMARK   12  A    between atoms: C15_25  and  C18_28 
REMARK   13  A    between atoms: C15_25  and  C20_30 
ROOT
ATOM      1  S1  EML d          -6.483  30.955  81.005  0.00  0.00     0.029 SA
ATOM      2  N6  EML d          -6.532  30.063  79.724  0.00  0.00    -0.212 NA
ATOM      3  C11 EML d          -4.780  30.860  81.304  0.00  0.00     0.096 A 
ATOM      4  C12 EML d          -4.275  30.068  80.267  0.00  0.00    -0.023 A 
ATOM      5  C14 EML d          -5.287  29.642  79.406  0.00  0.00     0.071 A 
ATOM      6  H11 EML d          -3.223  29.816  80.146  0.00  0.00     0.091 H 
ENDROOT
BRANCH   5   7
ATOM      7  C13 EML d          -5.093  28.786  78.175  0.00  0.00     0.124 C 
ATOM      8  H12 EML d          -4.060  28.935  77.829  0.00  0.00     0.086 H 
ATOM      9  H13 EML d          -5.231  27.737  78.477  0.00  0.00     0.086 H 
BRANCH   7  10
ATOM     10  N8  EML d          -6.009  29.044  76.997  0.00  0.00    -0.056 N 
ATOM     11  H8  EML d          -6.703  29.604  77.468  0.00  0.00     0.281 HD
BRANCH  10  12
ATOM     12  C4  EML d          -5.531  30.025  76.019  0.00  0.00     0.082 C 
ATOM     13  H4  EML d          -6.407  30.624  75.729  0.00  0.00     0.075 H 
ATOM     14  H5  EML d          -5.176  29.449  75.151  0.00  0.00     0.075 H 
BRANCH  12  15
ATOM     15  C16 EML d          -4.442  31.002  76.354  0.00  0.00    -0.053 C 
ATOM     16  H14 EML d          -4.695  31.989  75.940  0.00  0.00     0.029 H 
ATOM     17  H15 EML d          -3.493  30.654  75.921  0.00  0.00     0.029 H 
ATOM     18  H16 EML d          -4.340  31.078  77.446  0.00  0.00     0.029 H 
ENDBRANCH  12  15
ENDBRANCH  10  12
BRANCH  10  19
ATOM     19  C15 EML d          -6.902  27.983  76.477  0.00  0.00     0.142 C 
BRANCH  19  20
ATOM     20  C17 EML d          -7.613  27.210  77.612  0.00  0.00     0.047 C 
ATOM     21  H17 EML d          -8.308  26.483  77.166  0.00  0.00     0.077 H 
ATOM     22  H18 EML d          -6.857  26.677  78.207  0.00  0.00     0.077 H 
BRANCH  20  23
ATOM     23  O1  EML d          -8.354  28.088  78.480  0.00  0.00    -0.398 OA
ATOM     24  H2  EML d          -8.109  28.989  78.301  0.00  0.00     0.209 HD
ENDBRANCH  20  23
ENDBRANCH  19  20
BRANCH  19  25
ATOM     25  C18 EML d          -6.198  26.857  75.802  0.00  0.00    -0.043 C 
ATOM     26  H19 EML d          -5.870  27.176  74.802  0.00  0.00     0.030 H 
ATOM     27  H20 EML d          -6.881  26.001  75.708  0.00  0.00     0.030 H 
ATOM     28  H21 EML d          -5.322  26.563  76.398  0.00  0.00     0.030 H 
ENDBRANCH  19  25
BRANCH  19  29
ATOM     29  C20 EML d          -7.883  28.518  75.396  0.00  0.00    -0.043 C 
ATOM     30  H25 EML d          -7.315  28.825  74.505  0.00  0.00     0.030 H 
ATOM     31  H26 EML d          -8.434  29.382  75.796  0.00  0.00     0.030 H 
ATOM     32  H27 EML d          -8.594  27.725  75.121  0.00  0.00     0.030 H 
ENDBRANCH  19  29
ENDBRANCH  10  19
ENDBRANCH   7  10
ENDBRANCH   5   7
BRANCH   3  33
ATOM     33  N1  EML d          -4.069  31.439  82.358  0.00  0.00    -0.331 N 
ATOM     34  H1  EML d          -4.168  31.007  83.288  0.00  0.00     0.168 HD
BRANCH  33  35
ATOM     35  C5  EML d          -3.240  32.547  82.256  0.00  0.00     0.176 A 
ATOM     36  C6  EML d          -3.244  33.551  83.227  0.00  0.00     0.181 A 
ATOM     37  N2  EML d          -4.051  33.692  84.362  0.00  0.00    -0.237 NA
ATOM     38  N3  EML d          -2.402  34.612  83.066  0.00  0.00    -0.299 N 
ATOM     39  C9  EML d          -3.629  34.872  84.862  0.00  0.00     0.032 A 
ATOM     40  C7  EML d          -2.600  35.494  84.107  0.00  0.00     0.071 A 
ATOM     41  H9  EML d          -4.044  35.311  85.769  0.00  0.00     0.118 H 
ATOM     42  C2  EML d          -1.538  34.782  82.006  0.00  0.00     0.011 A 
ATOM     43  C3  EML d          -1.541  33.811  81.034  0.00  0.00     0.049 A 
ATOM     44  H3  EML d          -0.880  35.648  81.942  0.00  0.00     0.115 H 
ATOM     45  N7  EML d          -2.409  32.737  81.170  0.00  0.00    -0.231 NA
BRANCH  40  46
ATOM     46  C1  EML d          -1.949  36.848  84.320  0.00  0.00     0.029 A 
ATOM     47  C8  EML d          -2.542  38.068  84.003  0.00  0.00     0.035 A 
ATOM     48  N5  EML d          -1.627  38.991  84.363  0.00  0.00    -0.187 NA
ATOM     49  H7  EML d          -3.523  38.238  83.563  0.00  0.00     0.118 H 
ATOM     50  N4  EML d          -0.522  38.436  84.893  0.00  0.00    -0.289 N 
ATOM     51  C10 EML d          -0.664  37.109  84.884  0.00  0.00     0.009 A 
ATOM     52  H6  EML d           0.299  38.949  85.246  0.00  0.00     0.188 HD
ATOM     53  H10 EML d           0.056  36.373  85.237  0.00  0.00     0.115 H 
ENDBRANCH  40  46
BRANCH  43  54
ATOM     54  C19 EML d          -0.631  33.874  79.857  0.00  0.00    -0.034 C 
ATOM     55  H22 EML d           0.196  33.162  79.994  0.00  0.00     0.035 H 
ATOM     56  H23 EML d          -0.226  34.892  79.760  0.00  0.00     0.035 H 
ATOM     57  H24 EML d          -1.191  33.614  78.946  0.00  0.00     0.035 H 
ENDBRANCH  43  54
ENDBRANCH  33  35
ENDBRANCH   3  33
TORSDOF 13
ENDMDL
