MODEL 1
REMARK VINA RESULT:      -9.2      0.000      0.000
REMARK  5 active torsions:
REMARK  status: ('A' for Active; 'I' for Inactive)
REMARK    1  A    between atoms: O1_1  and  C1_2 
REMARK    2  A    between atoms: C1_2  and  C2_3 
REMARK    3  A    between atoms: C6_8  and  S1_13 
REMARK    4  A    between atoms: S1_13  and  N2_16 
REMARK    5  A    between atoms: N2_16  and  C11_17 
ROOT
ATOM      1  C2  F83 d          29.406  45.013  20.653  0.00  0.00     0.126 C 
ATOM      2  N1  F83 d          29.087  46.251  19.927  0.00  0.00    -0.065 N 
ATOM      3  C3  F83 d          29.399  46.102  18.499  0.00  0.00     0.106 C 
ATOM      4  C4  F83 d          28.744  44.843  17.915  0.00  0.00    -0.025 A 
ATOM      5  C5  F83 d          28.652  44.706  16.535  0.00  0.00    -0.052 A 
ATOM      6  C6  F83 d          28.108  43.551  15.982  0.00  0.00     0.080 A 
ATOM      7  C7  F83 d          27.653  42.531  16.812  0.00  0.00    -0.060 A 
ATOM      8  C8  F83 d          27.741  42.668  18.194  0.00  0.00    -0.075 A 
ATOM      9  C9  F83 d          28.285  43.824  18.749  0.00  0.00    -0.048 A 
ATOM     10  C10 F83 d          28.369  43.954  20.269  0.00  0.00    -0.012 C 
ATOM     11  H4  F83 d          30.411  44.667  20.370  0.00  0.00     0.088 H 
ATOM     12  H5  F83 d          29.631  47.010  20.309  0.00  0.00     0.278 HD
ATOM     13  H6  F83 d          28.106  46.455  20.034  0.00  0.00     0.278 HD
ATOM     14  H7  F83 d          30.489  46.028  18.376  0.00  0.00     0.083 H 
ATOM     15  H8  F83 d          29.027  46.984  17.956  0.00  0.00     0.083 H 
ATOM     16  H9  F83 d          29.004  45.501  15.888  0.00  0.00     0.086 H 
ATOM     17  H10 F83 d          27.229  41.630  16.382  0.00  0.00     0.085 H 
ATOM     18  H11 F83 d          27.384  41.873  18.840  0.00  0.00     0.084 H 
ATOM     19  H12 F83 d          27.385  44.250  20.664  0.00  0.00     0.043 H 
ATOM     20  H13 F83 d          28.661  42.986  20.702  0.00  0.00     0.043 H 
ENDROOT
BRANCH   6  21
ATOM     21  S1  F83 d          28.008  43.375  14.244  0.00  0.00     0.263 S 
ATOM     22  O2  F83 d          28.487  42.080  13.858  0.00  0.00    -0.200 OA
ATOM     23  O3  F83 d          28.854  44.425  13.586  0.00  0.00    -0.200 OA
BRANCH  21  24
ATOM     24  N2  F83 d          26.463  43.575  13.771  0.00  0.00    -0.281 N 
ATOM     25  H14 F83 d          25.757  43.020  14.211  0.00  0.00     0.179 HD
BRANCH  24  26
ATOM     26  C11 F83 d          26.052  44.527  12.729  0.00  0.00     0.042 A 
ATOM     27  C12 F83 d          25.225  45.607  13.027  0.00  0.00    -0.055 A 
ATOM     28  C13 F83 d          24.913  46.539  12.039  0.00  0.00    -0.060 A 
ATOM     29  H15 F83 d          24.824  45.723  14.027  0.00  0.00     0.087 H 
ATOM     30  C14 F83 d          25.426  46.395  10.751  0.00  0.00     0.034 A 
ATOM     31  H16 F83 d          24.269  47.378  12.273  0.00  0.00     0.086 H 
ATOM     32  C15 F83 d          26.246  45.312  10.453  0.00  0.00    -0.060 A 
ATOM     33 CL1  F83 d          25.073  47.564   9.526  0.00  0.00    -0.084 Cl
ATOM     34  C16 F83 d          26.557  44.377  11.440  0.00  0.00    -0.055 A 
ATOM     35  H17 F83 d          26.643  45.193   9.451  0.00  0.00     0.086 H 
ATOM     36  H18 F83 d          27.193  43.532  11.204  0.00  0.00     0.087 H 
ENDBRANCH  24  26
ENDBRANCH  21  24
ENDBRANCH   6  21
BRANCH   1  37
ATOM     37  C1  F83 d          29.363  45.260  22.162  0.00  0.00     0.044 C 
ATOM     38  H2  F83 d          30.009  44.532  22.674  0.00  0.00     0.077 H 
ATOM     39  H3  F83 d          29.713  46.279  22.380  0.00  0.00     0.077 H 
BRANCH  37  40
ATOM     40  O1  F83 d          28.014  45.107  22.614  0.00  0.00    -0.399 OA
ATOM     41  H1  F83 d          27.419  45.440  21.952  0.00  0.00     0.209 HD
ENDBRANCH  37  40
ENDBRANCH   1  37
TORSDOF 5
ENDMDL
MODEL 2
REMARK VINA RESULT:      -7.9      3.631      8.307
REMARK  5 active torsions:
REMARK  status: ('A' for Active; 'I' for Inactive)
REMARK    1  A    between atoms: O1_1  and  C1_2 
REMARK    2  A    between atoms: C1_2  and  C2_3 
REMARK    3  A    between atoms: C6_8  and  S1_13 
REMARK    4  A    between atoms: S1_13  and  N2_16 
REMARK    5  A    between atoms: N2_16  and  C11_17 
ROOT
ATOM      1  C2  F83 d          26.035  45.997  10.072  0.00  0.00     0.126 C 
ATOM      2  N1  F83 d          27.090  45.029   9.736  0.00  0.00    -0.065 N 
ATOM      3  C3  F83 d          27.971  44.811  10.892  0.00  0.00     0.106 C 
ATOM      4  C4  F83 d          27.165  44.453  12.147  0.00  0.00    -0.025 A 
ATOM      5  C5  F83 d          27.823  43.901  13.240  0.00  0.00    -0.052 A 
ATOM      6  C6  F83 d          27.122  43.616  14.408  0.00  0.00     0.080 A 
ATOM      7  C7  F83 d          25.758  43.881  14.481  0.00  0.00    -0.060 A 
ATOM      8  C8  F83 d          25.096  44.430  13.387  0.00  0.00    -0.075 A 
ATOM      9  C9  F83 d          25.797  44.717  12.217  0.00  0.00    -0.048 A 
ATOM     10  C10 F83 d          25.051  45.316  11.027  0.00  0.00    -0.012 C 
ATOM     11  H4  F83 d          26.482  46.874  10.563  0.00  0.00     0.088 H 
ATOM     12  H5  F83 d          27.634  45.384   8.965  0.00  0.00     0.278 HD
ATOM     13  H6  F83 d          26.666  44.154   9.473  0.00  0.00     0.278 HD
ATOM     14  H7  F83 d          28.544  45.730  11.084  0.00  0.00     0.083 H 
ATOM     15  H8  F83 d          28.665  43.987  10.665  0.00  0.00     0.083 H 
ATOM     16  H9  F83 d          28.885  43.693  13.183  0.00  0.00     0.086 H 
ATOM     17  H10 F83 d          25.211  43.660  15.390  0.00  0.00     0.085 H 
ATOM     18  H11 F83 d          24.033  44.635  13.445  0.00  0.00     0.084 H 
ATOM     19  H12 F83 d          24.519  44.516  10.490  0.00  0.00     0.043 H 
ATOM     20  H13 F83 d          24.325  46.059  11.390  0.00  0.00     0.043 H 
ENDROOT
BRANCH   6  21
ATOM     21  S1  F83 d          27.957  42.936  15.786  0.00  0.00     0.263 S 
ATOM     22  O2  F83 d          28.753  41.818  15.371  0.00  0.00    -0.200 OA
ATOM     23  O3  F83 d          26.953  42.473  16.800  0.00  0.00    -0.200 OA
BRANCH  21  24
ATOM     24  N2  F83 d          28.896  44.080  16.465  0.00  0.00    -0.281 N 
ATOM     25  H14 F83 d          29.544  44.568  15.882  0.00  0.00     0.179 HD
BRANCH  24  26
ATOM     26  C11 F83 d          28.839  44.432  17.892  0.00  0.00     0.042 A 
ATOM     27  C12 F83 d          28.274  43.566  18.825  0.00  0.00    -0.055 A 
ATOM     28  C13 F83 d          28.302  43.887  20.180  0.00  0.00    -0.060 A 
ATOM     29  H15 F83 d          27.811  42.642  18.496  0.00  0.00     0.087 H 
ATOM     30  C14 F83 d          28.896  45.074  20.608  0.00  0.00     0.034 A 
ATOM     31  H16 F83 d          27.861  43.212  20.904  0.00  0.00     0.086 H 
ATOM     32  C15 F83 d          29.453  45.942  19.675  0.00  0.00    -0.060 A 
ATOM     33 CL1  F83 d          28.966  45.467  22.291  0.00  0.00    -0.084 Cl
ATOM     34  C16 F83 d          29.423  45.622  18.318  0.00  0.00    -0.055 A 
ATOM     35  H17 F83 d          29.911  46.868  20.003  0.00  0.00     0.086 H 
ATOM     36  H18 F83 d          29.855  46.301  17.592  0.00  0.00     0.087 H 
ENDBRANCH  24  26
ENDBRANCH  21  24
ENDBRANCH   6  21
BRANCH   1  37
ATOM     37  C1  F83 d          25.306  46.443   8.805  0.00  0.00     0.044 C 
ATOM     38  H2  F83 d          25.977  46.346   7.938  0.00  0.00     0.077 H 
ATOM     39  H3  F83 d          24.416  45.816   8.650  0.00  0.00     0.077 H 
BRANCH  37  40
ATOM     40  O1  F83 d          24.912  47.810   8.957  0.00  0.00    -0.399 OA
ATOM     41  H1  F83 d          24.071  47.848   9.398  0.00  0.00     0.209 HD
ENDBRANCH  37  40
ENDBRANCH   1  37
TORSDOF 5
ENDMDL
