MODEL 1
REMARK VINA RESULT:      -5.8      0.000      0.000
REMARK  6 active torsions:
REMARK  status: ('A' for Active; 'I' for Inactive)
REMARK    1  A    between atoms: C1_1  and  O1_7 
REMARK    2  A    between atoms: C2_2  and  O2_8 
REMARK    3  A    between atoms: C3_3  and  O3_9 
REMARK    4  A    between atoms: C4_4  and  O4_10 
REMARK    5  A    between atoms: C5_5  and  C6_6 
REMARK    6  A    between atoms: O1_7  and  CM_12 
ROOT
ATOM      1  C1  MFU d          12.413   4.865  -3.674  0.00  0.00     0.158 C 
ATOM      2  C2  MFU d          11.081   4.720  -2.909  0.00  0.00     0.110 C 
ATOM      3  C3  MFU d          10.280   3.549  -3.470  0.00  0.00     0.092 C 
ATOM      4  C4  MFU d          11.139   2.287  -3.549  0.00  0.00     0.087 C 
ATOM      5  C5  MFU d          12.488   2.523  -4.241  0.00  0.00     0.065 C 
ATOM      6  O5  MFU d          13.163   3.629  -3.624  0.00  0.00    -0.351 OA
ATOM      7  H1  MFU d          13.011   5.664  -3.211  0.00  0.00     0.133 H 
ATOM      8  H2  MFU d          11.331   4.495  -1.862  0.00  0.00     0.094 H 
ATOM      9  H3  MFU d           9.906   3.809  -4.472  0.00  0.00     0.091 H 
ATOM     10  H4  MFU d          10.587   1.521  -4.113  0.00  0.00     0.091 H 
ATOM     11  H5  MFU d          12.289   2.785  -5.290  0.00  0.00     0.086 H 
ENDROOT
BRANCH   1  12
ATOM     12  O1  MFU d          12.132   5.211  -5.042  0.00  0.00    -0.363 OA
BRANCH  12  13
ATOM     13  CM  MFU d          12.986   6.221  -5.601  0.00  0.00     0.007 C 
ATOM     14  H12 MFU d          14.006   6.097  -5.207  0.00  0.00     0.066 H 
ATOM     15  H13 MFU d          12.606   7.217  -5.327  0.00  0.00     0.066 H 
ATOM     16  H14 MFU d          13.002   6.123  -6.697  0.00  0.00     0.066 H 
ENDBRANCH  12  13
ENDBRANCH   1  12
BRANCH   2  17
ATOM     17  O2  MFU d          10.244   5.909  -2.909  0.00  0.00    -0.388 OA
ATOM     18  H9  MFU d          10.666   6.592  -2.402  0.00  0.00     0.210 HD
ENDBRANCH   2  17
BRANCH   3  19
ATOM     19  O3  MFU d           9.182   3.256  -2.595  0.00  0.00    -0.390 OA
ATOM     20  H10 MFU d           8.582   3.993  -2.584  0.00  0.00     0.210 HD
ENDBRANCH   3  19
BRANCH   5  21
ATOM     21  C6  MFU d          13.366   1.268  -4.233  0.00  0.00    -0.050 C 
ATOM     22  H6  MFU d          12.745   0.387  -4.019  0.00  0.00     0.031 H 
ATOM     23  H7  MFU d          14.140   1.367  -3.456  0.00  0.00     0.031 H 
ATOM     24  H8  MFU d          13.846   1.150  -5.216  0.00  0.00     0.031 H 
ENDBRANCH   5  21
BRANCH   4  25
ATOM     25  O4  MFU d          11.372   1.817  -2.207  0.00  0.00    -0.390 OA
ATOM     26  H11 MFU d          11.007   0.946  -2.111  0.00  0.00     0.210 HD
ENDBRANCH   4  25
TORSDOF 6
ENDMDL
MODEL 2
REMARK VINA RESULT:      -4.9      1.140      3.389
REMARK  6 active torsions:
REMARK  status: ('A' for Active; 'I' for Inactive)
REMARK    1  A    between atoms: C1_1  and  O1_7 
REMARK    2  A    between atoms: C2_2  and  O2_8 
REMARK    3  A    between atoms: C3_3  and  O3_9 
REMARK    4  A    between atoms: C4_4  and  O4_10 
REMARK    5  A    between atoms: C5_5  and  C6_6 
REMARK    6  A    between atoms: O1_7  and  CM_12 
ROOT
ATOM      1  C1  MFU d          12.131   2.568  -4.890  0.00  0.00     0.158 C 
ATOM      2  C2  MFU d          10.719   2.417  -4.286  0.00  0.00     0.110 C 
ATOM      3  C3  MFU d          10.615   3.213  -2.989  0.00  0.00     0.092 C 
ATOM      4  C4  MFU d          11.100   4.649  -3.189  0.00  0.00     0.087 C 
ATOM      5  C5  MFU d          12.470   4.729  -3.876  0.00  0.00     0.065 C 
ATOM      6  O5  MFU d          12.449   3.964  -5.090  0.00  0.00    -0.351 OA
ATOM      7  H1  MFU d          12.167   2.050  -5.859  0.00  0.00     0.133 H 
ATOM      8  H2  MFU d          10.010   2.845  -5.010  0.00  0.00     0.094 H 
ATOM      9  H3  MFU d          11.218   2.721  -2.210  0.00  0.00     0.091 H 
ATOM     10  H4  MFU d          11.175   5.135  -2.205  0.00  0.00     0.091 H 
ATOM     11  H5  MFU d          13.213   4.280  -3.201  0.00  0.00     0.086 H 
ENDROOT
BRANCH   1  12
ATOM     12  O1  MFU d          13.088   1.972  -3.995  0.00  0.00    -0.363 OA
BRANCH  12  13
ATOM     13  CM  MFU d          13.789   0.836  -4.525  0.00  0.00     0.007 C 
ATOM     14  H12 MFU d          14.871   1.028  -4.500  0.00  0.00     0.066 H 
ATOM     15  H13 MFU d          13.471   0.660  -5.563  0.00  0.00     0.066 H 
ATOM     16  H14 MFU d          13.561  -0.052  -3.916  0.00  0.00     0.066 H 
ENDBRANCH  12  13
ENDBRANCH   1  12
BRANCH   2  17
ATOM     17  O2  MFU d          10.305   1.046  -4.034  0.00  0.00    -0.388 OA
ATOM     18  H9  MFU d           9.357   0.994  -4.048  0.00  0.00     0.210 HD
ENDBRANCH   2  17
BRANCH   3  19
ATOM     19  O3  MFU d           9.243   3.286  -2.579  0.00  0.00    -0.390 OA
ATOM     20  H10 MFU d           9.113   4.061  -2.045  0.00  0.00     0.210 HD
ENDBRANCH   3  19
BRANCH   5  21
ATOM     21  C6  MFU d          12.896   6.175  -4.144  0.00  0.00    -0.050 C 
ATOM     22  H6  MFU d          12.268   6.858  -3.554  0.00  0.00     0.031 H 
ATOM     23  H7  MFU d          12.777   6.401  -5.214  0.00  0.00     0.031 H 
ATOM     24  H8  MFU d          13.950   6.306  -3.856  0.00  0.00     0.031 H 
ENDBRANCH   5  21
BRANCH   4  25
ATOM     25  O4  MFU d          10.127   5.344  -3.993  0.00  0.00    -0.390 OA
ATOM     26  H11 MFU d          10.220   5.076  -4.900  0.00  0.00     0.210 HD
ENDBRANCH   4  25
TORSDOF 6
ENDMDL
MODEL 3
REMARK VINA RESULT:      -4.8      1.627      2.050
REMARK  6 active torsions:
REMARK  status: ('A' for Active; 'I' for Inactive)
REMARK    1  A    between atoms: C1_1  and  O1_7 
REMARK    2  A    between atoms: C2_2  and  O2_8 
REMARK    3  A    between atoms: C3_3  and  O3_9 
REMARK    4  A    between atoms: C4_4  and  O4_10 
REMARK    5  A    between atoms: C5_5  and  C6_6 
REMARK    6  A    between atoms: O1_7  and  CM_12 
ROOT
ATOM      1  C1  MFU d          11.256   4.306  -3.604  0.00  0.00     0.158 C 
ATOM      2  C2  MFU d          10.465   3.084  -3.093  0.00  0.00     0.110 C 
ATOM      3  C3  MFU d          10.245   2.089  -4.229  0.00  0.00     0.092 C 
ATOM      4  C4  MFU d          11.561   1.776  -4.942  0.00  0.00     0.087 C 
ATOM      5  C5  MFU d          12.340   3.036  -5.342  0.00  0.00     0.065 C 
ATOM      6  O5  MFU d          12.505   3.888  -4.199  0.00  0.00    -0.351 OA
ATOM      7  H1  MFU d          11.470   4.978  -2.759  0.00  0.00     0.133 H 
ATOM      8  H2  MFU d          11.082   2.597  -2.323  0.00  0.00     0.094 H 
ATOM      9  H3  MFU d           9.523   2.508  -4.945  0.00  0.00     0.091 H 
ATOM     10  H4  MFU d          11.337   1.200  -5.853  0.00  0.00     0.091 H 
ATOM     11  H5  MFU d          11.744   3.578  -6.091  0.00  0.00     0.086 H 
ENDROOT
BRANCH   1  12
ATOM     12  O1  MFU d          10.459   5.005  -4.578  0.00  0.00    -0.363 OA
BRANCH  12  13
ATOM     13  CM  MFU d          10.142   6.364  -4.241  0.00  0.00     0.007 C 
ATOM     14  H12 MFU d          10.140   6.977  -5.154  0.00  0.00     0.066 H 
ATOM     15  H13 MFU d          10.896   6.754  -3.540  0.00  0.00     0.066 H 
ATOM     16  H14 MFU d           9.148   6.403  -3.771  0.00  0.00     0.066 H 
ENDBRANCH  12  13
ENDBRANCH   1  12
BRANCH   2  17
ATOM     17  O2  MFU d           9.182   3.397  -2.484  0.00  0.00    -0.388 OA
ATOM     18  H9  MFU d           8.823   2.614  -2.084  0.00  0.00     0.210 HD
ENDBRANCH   2  17
BRANCH   3  19
ATOM     19  O3  MFU d           9.751   0.853  -3.695  0.00  0.00    -0.390 OA
ATOM     20  H10 MFU d           8.984   0.582  -4.185  0.00  0.00     0.210 HD
ENDBRANCH   3  19
BRANCH   5  21
ATOM     21  C6  MFU d          13.692   2.699  -5.978  0.00  0.00    -0.050 C 
ATOM     22  H6  MFU d          13.606   2.754  -7.073  0.00  0.00     0.031 H 
ATOM     23  H7  MFU d          13.992   1.681  -5.685  0.00  0.00     0.031 H 
ATOM     24  H8  MFU d          14.449   3.418  -5.632  0.00  0.00     0.031 H 
ENDBRANCH   5  21
BRANCH   4  25
ATOM     25  O4  MFU d          12.372   0.979  -4.059  0.00  0.00    -0.390 OA
ATOM     26  H11 MFU d          12.123   0.066  -4.140  0.00  0.00     0.210 HD
ENDBRANCH   4  25
TORSDOF 6
ENDMDL
MODEL 4
REMARK VINA RESULT:      -4.8      1.528      2.249
REMARK  6 active torsions:
REMARK  status: ('A' for Active; 'I' for Inactive)
REMARK    1  A    between atoms: C1_1  and  O1_7 
REMARK    2  A    between atoms: C2_2  and  O2_8 
REMARK    3  A    between atoms: C3_3  and  O3_9 
REMARK    4  A    between atoms: C4_4  and  O4_10 
REMARK    5  A    between atoms: C5_5  and  C6_6 
REMARK    6  A    between atoms: O1_7  and  CM_12 
ROOT
ATOM      1  C1  MFU d          12.881   3.365  -3.649  0.00  0.00     0.158 C 
ATOM      2  C2  MFU d          12.194   4.458  -2.804  0.00  0.00     0.110 C 
ATOM      3  C3  MFU d          10.866   4.854  -3.441  0.00  0.00     0.092 C 
ATOM      4  C4  MFU d          10.016   3.621  -3.745  0.00  0.00     0.087 C 
ATOM      5  C5  MFU d          10.787   2.536  -4.508  0.00  0.00     0.065 C 
ATOM      6  O5  MFU d          12.005   2.227  -3.815  0.00  0.00    -0.351 OA
ATOM      7  H1  MFU d          13.800   3.038  -3.139  0.00  0.00     0.133 H 
ATOM      8  H2  MFU d          11.986   4.020  -1.816  0.00  0.00     0.094 H 
ATOM      9  H3  MFU d          11.059   5.413  -4.369  0.00  0.00     0.091 H 
ATOM     10  H4  MFU d           9.154   3.930  -4.355  0.00  0.00     0.091 H 
ATOM     11  H5  MFU d          11.050   2.939  -5.497  0.00  0.00     0.086 H 
ENDROOT
BRANCH   1  12
ATOM     12  O1  MFU d          13.220   3.913  -4.936  0.00  0.00    -0.363 OA
BRANCH  12  13
ATOM     13  CM  MFU d          13.776   2.973  -5.869  0.00  0.00     0.007 C 
ATOM     14  H12 MFU d          13.474   1.954  -5.587  0.00  0.00     0.066 H 
ATOM     15  H13 MFU d          14.874   3.047  -5.854  0.00  0.00     0.066 H 
ATOM     16  H14 MFU d          13.407   3.198  -6.881  0.00  0.00     0.066 H 
ENDBRANCH  12  13
ENDBRANCH   1  12
BRANCH   2  17
ATOM     17  O2  MFU d          12.991   5.655  -2.588  0.00  0.00    -0.388 OA
ATOM     18  H9  MFU d          13.580   5.514  -1.855  0.00  0.00     0.210 HD
ENDBRANCH   2  17
BRANCH   3  19
ATOM     19  O3  MFU d          10.118   5.664  -2.524  0.00  0.00    -0.390 OA
ATOM     20  H10 MFU d          10.592   6.470  -2.355  0.00  0.00     0.210 HD
ENDBRANCH   3  19
BRANCH   5  21
ATOM     21  C6  MFU d           9.944   1.276  -4.728  0.00  0.00    -0.050 C 
ATOM     22  H6  MFU d          10.561   0.501  -5.205  0.00  0.00     0.031 H 
ATOM     23  H7  MFU d           9.089   1.516  -5.378  0.00  0.00     0.031 H 
ATOM     24  H8  MFU d           9.577   0.908  -3.759  0.00  0.00     0.031 H 
ENDBRANCH   5  21
BRANCH   4  25
ATOM     25  O4  MFU d           9.548   3.078  -2.496  0.00  0.00    -0.390 OA
ATOM     26  H11 MFU d           9.406   2.143  -2.593  0.00  0.00     0.210 HD
ENDBRANCH   4  25
TORSDOF 6
ENDMDL
MODEL 5
REMARK VINA RESULT:      -4.6      1.631      3.358
REMARK  6 active torsions:
REMARK  status: ('A' for Active; 'I' for Inactive)
REMARK    1  A    between atoms: C1_1  and  O1_7 
REMARK    2  A    between atoms: C2_2  and  O2_8 
REMARK    3  A    between atoms: C3_3  and  O3_9 
REMARK    4  A    between atoms: C4_4  and  O4_10 
REMARK    5  A    between atoms: C5_5  and  C6_6 
REMARK    6  A    between atoms: O1_7  and  CM_12 
ROOT
ATOM      1  C1  MFU d          11.636   3.179  -5.464  0.00  0.00     0.158 C 
ATOM      2  C2  MFU d          11.436   2.100  -4.379  0.00  0.00     0.110 C 
ATOM      3  C3  MFU d          11.564   2.722  -2.991  0.00  0.00     0.092 C 
ATOM      4  C4  MFU d          10.678   3.962  -2.865  0.00  0.00     0.087 C 
ATOM      5  C5  MFU d          10.862   4.950  -4.024  0.00  0.00     0.065 C 
ATOM      6  O5  MFU d          10.703   4.266  -5.275  0.00  0.00    -0.351 OA
ATOM      7  H1  MFU d          11.469   2.731  -6.455  0.00  0.00     0.133 H 
ATOM      8  H2  MFU d          10.411   1.715  -4.491  0.00  0.00     0.094 H 
ATOM      9  H3  MFU d          12.614   2.994  -2.809  0.00  0.00     0.091 H 
ATOM     10  H4  MFU d          10.926   4.476  -1.925  0.00  0.00     0.091 H 
ATOM     11  H5  MFU d          11.889   5.341  -3.975  0.00  0.00     0.086 H 
ENDROOT
BRANCH   1  12
ATOM     12  O1  MFU d          12.986   3.674  -5.387  0.00  0.00    -0.363 OA
BRANCH  12  13
ATOM     13  CM  MFU d          13.922   3.022  -6.258  0.00  0.00     0.007 C 
ATOM     14  H12 MFU d          14.690   3.743  -6.577  0.00  0.00     0.066 H 
ATOM     15  H13 MFU d          13.393   2.635  -7.142  0.00  0.00     0.066 H 
ATOM     16  H14 MFU d          14.402   2.188  -5.723  0.00  0.00     0.066 H 
ENDBRANCH  12  13
ENDBRANCH   1  12
BRANCH   2  17
ATOM     17  O2  MFU d          12.338   0.964  -4.472  0.00  0.00    -0.388 OA
ATOM     18  H9  MFU d          11.847   0.190  -4.722  0.00  0.00     0.210 HD
ENDBRANCH   2  17
BRANCH   3  19
ATOM     19  O3  MFU d          11.118   1.784  -2.003  0.00  0.00    -0.390 OA
ATOM     20  H10 MFU d          11.167   0.904  -2.357  0.00  0.00     0.210 HD
ENDBRANCH   3  19
BRANCH   5  21
ATOM     21  C6  MFU d           9.905   6.142  -3.922  0.00  0.00    -0.050 C 
ATOM     22  H6  MFU d          10.083   6.828  -4.762  0.00  0.00     0.031 H 
ATOM     23  H7  MFU d          10.079   6.672  -2.973  0.00  0.00     0.031 H 
ATOM     24  H8  MFU d           8.866   5.781  -3.956  0.00  0.00     0.031 H 
ENDBRANCH   5  21
BRANCH   4  25
ATOM     25  O4  MFU d           9.304   3.530  -2.826  0.00  0.00    -0.390 OA
ATOM     26  H11 MFU d           9.036   3.416  -1.922  0.00  0.00     0.210 HD
ENDBRANCH   4  25
TORSDOF 6
ENDMDL
MODEL 6
REMARK VINA RESULT:      -4.5      1.750      3.363
REMARK  6 active torsions:
REMARK  status: ('A' for Active; 'I' for Inactive)
REMARK    1  A    between atoms: C1_1  and  O1_7 
REMARK    2  A    between atoms: C2_2  and  O2_8 
REMARK    3  A    between atoms: C3_3  and  O3_9 
REMARK    4  A    between atoms: C4_4  and  O4_10 
REMARK    5  A    between atoms: C5_5  and  C6_6 
REMARK    6  A    between atoms: O1_7  and  CM_12 
ROOT
ATOM      1  C1  MFU d          10.380   3.156  -4.874  0.00  0.00     0.158 C 
ATOM      2  C2  MFU d          10.310   3.930  -3.541  0.00  0.00     0.110 C 
ATOM      3  C3  MFU d          11.693   4.000  -2.901  0.00  0.00     0.092 C 
ATOM      4  C4  MFU d          12.734   4.500  -3.903  0.00  0.00     0.087 C 
ATOM      5  C5  MFU d          12.689   3.747  -5.240  0.00  0.00     0.065 C 
ATOM      6  O5  MFU d          11.351   3.760  -5.759  0.00  0.00    -0.351 OA
ATOM      7  H1  MFU d           9.392   3.178  -5.358  0.00  0.00     0.133 H 
ATOM      8  H2  MFU d           9.988   4.955  -3.778  0.00  0.00     0.094 H 
ATOM      9  H3  MFU d          11.977   3.001  -2.536  0.00  0.00     0.091 H 
ATOM     10  H4  MFU d          13.734   4.372  -3.465  0.00  0.00     0.091 H 
ATOM     11  H5  MFU d          12.972   2.702  -5.049  0.00  0.00     0.086 H 
ENDROOT
BRANCH   1  12
ATOM     12  O1  MFU d          10.748   1.791  -4.603  0.00  0.00    -0.363 OA
BRANCH  12  13
ATOM     13  CM  MFU d           9.867   0.803  -5.159  0.00  0.00     0.007 C 
ATOM     14  H12 MFU d          10.099   0.663  -6.225  0.00  0.00     0.066 H 
ATOM     15  H13 MFU d           8.824   1.139  -5.051  0.00  0.00     0.066 H 
ATOM     16  H14 MFU d          10.002  -0.150  -4.626  0.00  0.00     0.066 H 
ENDBRANCH  12  13
ENDBRANCH   1  12
BRANCH   2  17
ATOM     17  O2  MFU d           9.368   3.394  -2.572  0.00  0.00    -0.388 OA
ATOM     18  H9  MFU d           8.483   3.494  -2.903  0.00  0.00     0.210 HD
ENDBRANCH   2  17
BRANCH   3  19
ATOM     19  O3  MFU d          11.673   4.935  -1.814  0.00  0.00    -0.390 OA
ATOM     20  H10 MFU d          11.624   4.462  -0.992  0.00  0.00     0.210 HD
ENDBRANCH   3  19
BRANCH   5  21
ATOM     21  C6  MFU d          13.679   4.320  -6.257  0.00  0.00    -0.050 C 
ATOM     22  H6  MFU d          14.102   3.503  -6.859  0.00  0.00     0.031 H 
ATOM     23  H7  MFU d          14.491   4.841  -5.726  0.00  0.00     0.031 H 
ATOM     24  H8  MFU d          13.158   5.030  -6.917  0.00  0.00     0.031 H 
ENDBRANCH   5  21
BRANCH   4  25
ATOM     25  O4  MFU d          12.492   5.900  -4.141  0.00  0.00    -0.390 OA
ATOM     26  H11 MFU d          12.948   6.168  -4.930  0.00  0.00     0.210 HD
ENDBRANCH   4  25
TORSDOF 6
ENDMDL
MODEL 7
REMARK VINA RESULT:      -4.4      1.800      3.746
REMARK  6 active torsions:
REMARK  status: ('A' for Active; 'I' for Inactive)
REMARK    1  A    between atoms: C1_1  and  O1_7 
REMARK    2  A    between atoms: C2_2  and  O2_8 
REMARK    3  A    between atoms: C3_3  and  O3_9 
REMARK    4  A    between atoms: C4_4  and  O4_10 
REMARK    5  A    between atoms: C5_5  and  C6_6 
REMARK    6  A    between atoms: O1_7  and  CM_12 
ROOT
ATOM      1  C1  MFU d          10.555   2.859  -4.759  0.00  0.00     0.158 C 
ATOM      2  C2  MFU d          10.679   3.186  -3.256  0.00  0.00     0.110 C 
ATOM      3  C3  MFU d          11.501   4.458  -3.063  0.00  0.00     0.092 C 
ATOM      4  C4  MFU d          10.973   5.589  -3.946  0.00  0.00     0.087 C 
ATOM      5  C5  MFU d          10.788   5.168  -5.410  0.00  0.00     0.065 C 
ATOM      6  O5  MFU d           9.988   3.979  -5.476  0.00  0.00    -0.351 OA
ATOM      7  H1  MFU d           9.901   1.984  -4.886  0.00  0.00     0.133 H 
ATOM      8  H2  MFU d           9.662   3.373  -2.880  0.00  0.00     0.094 H 
ATOM      9  H3  MFU d          12.553   4.252  -3.308  0.00  0.00     0.091 H 
ATOM     10  H4  MFU d          11.688   6.424  -3.911  0.00  0.00     0.091 H 
ATOM     11  H5  MFU d          11.780   4.938  -5.824  0.00  0.00     0.086 H 
ENDROOT
BRANCH   1  12
ATOM     12  O1  MFU d          11.862   2.556  -5.281  0.00  0.00    -0.363 OA
BRANCH  12  13
ATOM     13  CM  MFU d          12.054   1.191  -5.683  0.00  0.00     0.007 C 
ATOM     14  H12 MFU d          12.855   0.740  -5.080  0.00  0.00     0.066 H 
ATOM     15  H13 MFU d          12.332   1.157  -6.747  0.00  0.00     0.066 H 
ATOM     16  H14 MFU d          11.120   0.629  -5.529  0.00  0.00     0.066 H 
ENDBRANCH  12  13
ENDBRANCH   1  12
BRANCH   2  17
ATOM     17  O2  MFU d          11.253   2.125  -2.444  0.00  0.00    -0.388 OA
ATOM     18  H9  MFU d          10.860   2.142  -1.579  0.00  0.00     0.210 HD
ENDBRANCH   2  17
BRANCH   3  19
ATOM     19  O3  MFU d          11.388   4.899  -1.703  0.00  0.00    -0.390 OA
ATOM     20  H10 MFU d          11.809   4.268  -1.131  0.00  0.00     0.210 HD
ENDBRANCH   3  19
BRANCH   5  21
ATOM     21  C6  MFU d          10.179   6.289  -6.258  0.00  0.00    -0.050 C 
ATOM     22  H6  MFU d           9.210   6.587  -5.831  0.00  0.00     0.031 H 
ATOM     23  H7  MFU d          10.030   5.931  -7.288  0.00  0.00     0.031 H 
ATOM     24  H8  MFU d          10.858   7.154  -6.264  0.00  0.00     0.031 H 
ENDBRANCH   5  21
BRANCH   4  25
ATOM     25  O4  MFU d           9.706   6.020  -3.414  0.00  0.00    -0.390 OA
ATOM     26  H11 MFU d           9.004   5.663  -3.945  0.00  0.00     0.210 HD
ENDBRANCH   4  25
TORSDOF 6
ENDMDL
MODEL 8
REMARK VINA RESULT:      -3.7      1.658      3.349
REMARK  6 active torsions:
REMARK  status: ('A' for Active; 'I' for Inactive)
REMARK    1  A    between atoms: C1_1  and  O1_7 
REMARK    2  A    between atoms: C2_2  and  O2_8 
REMARK    3  A    between atoms: C3_3  and  O3_9 
REMARK    4  A    between atoms: C4_4  and  O4_10 
REMARK    5  A    between atoms: C5_5  and  C6_6 
REMARK    6  A    between atoms: O1_7  and  CM_12 
ROOT
ATOM      1  C1  MFU d          13.185   4.383  -4.331  0.00  0.00     0.158 C 
ATOM      2  C2  MFU d          12.707   2.921  -4.455  0.00  0.00     0.110 C 
ATOM      3  C3  MFU d          11.401   2.729  -3.690  0.00  0.00     0.092 C 
ATOM      4  C4  MFU d          10.378   3.795  -4.081  0.00  0.00     0.087 C 
ATOM      5  C5  MFU d          10.945   5.220  -4.022  0.00  0.00     0.065 C 
ATOM      6  O5  MFU d          12.157   5.292  -4.787  0.00  0.00    -0.351 OA
ATOM      7  H1  MFU d          14.086   4.523  -4.946  0.00  0.00     0.133 H 
ATOM      8  H2  MFU d          12.513   2.733  -5.521  0.00  0.00     0.094 H 
ATOM      9  H3  MFU d          11.601   2.781  -2.609  0.00  0.00     0.091 H 
ATOM     10  H4  MFU d           9.524   3.732  -3.390  0.00  0.00     0.091 H 
ATOM     11  H5  MFU d          11.189   5.444  -2.973  0.00  0.00     0.086 H 
ENDROOT
BRANCH   1  12
ATOM     12  O1  MFU d          13.502   4.655  -2.953  0.00  0.00    -0.363 OA
BRANCH  12  13
ATOM     13  CM  MFU d          14.056   5.957  -2.704  0.00  0.00     0.007 C 
ATOM     14  H12 MFU d          13.269   6.623  -2.323  0.00  0.00     0.066 H 
ATOM     15  H13 MFU d          14.464   6.367  -3.640  0.00  0.00     0.066 H 
ATOM     16  H14 MFU d          14.860   5.876  -1.957  0.00  0.00     0.066 H 
ENDBRANCH  12  13
ENDBRANCH   1  12
BRANCH   2  17
ATOM     17  O2  MFU d          13.667   1.924  -4.009  0.00  0.00    -0.388 OA
ATOM     18  H9  MFU d          14.455   2.358  -3.704  0.00  0.00     0.210 HD
ENDBRANCH   2  17
BRANCH   3  19
ATOM     19  O3  MFU d          10.832   1.456  -4.026  0.00  0.00    -0.390 OA
ATOM     20  H10 MFU d           9.957   1.584  -4.373  0.00  0.00     0.210 HD
ENDBRANCH   3  19
BRANCH   5  21
ATOM     21  C6  MFU d           9.931   6.264  -4.498  0.00  0.00    -0.050 C 
ATOM     22  H6  MFU d           9.681   6.939  -3.667  0.00  0.00     0.031 H 
ATOM     23  H7  MFU d           9.018   5.756  -4.845  0.00  0.00     0.031 H 
ATOM     24  H8  MFU d          10.365   6.845  -5.325  0.00  0.00     0.031 H 
ENDBRANCH   5  21
BRANCH   4  25
ATOM     25  O4  MFU d           9.931   3.520  -5.422  0.00  0.00    -0.390 OA
ATOM     26  H11 MFU d          10.005   4.308  -5.946  0.00  0.00     0.210 HD
ENDBRANCH   4  25
TORSDOF 6
ENDMDL
MODEL 9
REMARK VINA RESULT:      -3.7      1.840      2.851
REMARK  6 active torsions:
REMARK  status: ('A' for Active; 'I' for Inactive)
REMARK    1  A    between atoms: C1_1  and  O1_7 
REMARK    2  A    between atoms: C2_2  and  O2_8 
REMARK    3  A    between atoms: C3_3  and  O3_9 
REMARK    4  A    between atoms: C4_4  and  O4_10 
REMARK    5  A    between atoms: C5_5  and  C6_6 
REMARK    6  A    between atoms: O1_7  and  CM_12 
ROOT
ATOM      1  C1  MFU d          11.260   4.793  -5.658  0.00  0.00     0.158 C 
ATOM      2  C2  MFU d          12.555   5.130  -4.891  0.00  0.00     0.110 C 
ATOM      3  C3  MFU d          12.402   4.766  -3.417  0.00  0.00     0.092 C 
ATOM      4  C4  MFU d          11.892   3.334  -3.258  0.00  0.00     0.087 C 
ATOM      5  C5  MFU d          10.655   3.040  -4.117  0.00  0.00     0.065 C 
ATOM      6  O5  MFU d          10.915   3.400  -5.482  0.00  0.00    -0.351 OA
ATOM      7  H1  MFU d          11.411   4.992  -6.729  0.00  0.00     0.133 H 
ATOM      8  H2  MFU d          13.356   4.507  -5.318  0.00  0.00     0.094 H 
ATOM      9  H3  MFU d          11.701   5.467  -2.940  0.00  0.00     0.091 H 
ATOM     10  H4  MFU d          11.630   3.170  -2.203  0.00  0.00     0.091 H 
ATOM     11  H5  MFU d           9.830   3.667  -3.749  0.00  0.00     0.086 H 
ENDROOT
BRANCH   1  12
ATOM     12  O1  MFU d          10.194   5.626  -5.165  0.00  0.00    -0.363 OA
BRANCH  12  13
ATOM     13  CM  MFU d           9.556   6.445  -6.157  0.00  0.00     0.007 C 
ATOM     14  H12 MFU d           8.568   6.026  -6.398  0.00  0.00     0.066 H 
ATOM     15  H13 MFU d          10.176   6.472  -7.065  0.00  0.00     0.066 H 
ATOM     16  H14 MFU d           9.434   7.467  -5.765  0.00  0.00     0.066 H 
ENDBRANCH  12  13
ENDBRANCH   1  12
BRANCH   2  17
ATOM     17  O2  MFU d          12.984   6.516  -4.994  0.00  0.00    -0.388 OA
ATOM     18  H9  MFU d          13.930   6.560  -4.924  0.00  0.00     0.210 HD
ENDBRANCH   2  17
BRANCH   3  19
ATOM     19  O3  MFU d          13.681   4.832  -2.772  0.00  0.00    -0.390 OA
ATOM     20  H10 MFU d          13.794   4.069  -2.217  0.00  0.00     0.210 HD
ENDBRANCH   3  19
BRANCH   5  21
ATOM     21  C6  MFU d          10.213   1.578  -4.008  0.00  0.00    -0.050 C 
ATOM     22  H6  MFU d           9.414   1.491  -3.258  0.00  0.00     0.031 H 
ATOM     23  H7  MFU d          11.069   0.957  -3.705  0.00  0.00     0.031 H 
ATOM     24  H8  MFU d           9.838   1.235  -4.984  0.00  0.00     0.031 H 
ENDBRANCH   5  21
BRANCH   4  25
ATOM     25  O4  MFU d          12.952   2.435  -3.634  0.00  0.00    -0.390 OA
ATOM     26  H11 MFU d          12.583   1.591  -3.865  0.00  0.00     0.210 HD
ENDBRANCH   4  25
TORSDOF 6
ENDMDL
MODEL 10
REMARK VINA RESULT:      -3.6      1.868      2.251
REMARK  6 active torsions:
REMARK  status: ('A' for Active; 'I' for Inactive)
REMARK    1  A    between atoms: C1_1  and  O1_7 
REMARK    2  A    between atoms: C2_2  and  O2_8 
REMARK    3  A    between atoms: C3_3  and  O3_9 
REMARK    4  A    between atoms: C4_4  and  O4_10 
REMARK    5  A    between atoms: C5_5  and  C6_6 
REMARK    6  A    between atoms: O1_7  and  CM_12 
ROOT
ATOM      1  C1  MFU d          12.164   3.138  -3.271  0.00  0.00     0.158 C 
ATOM      2  C2  MFU d          10.751   3.016  -3.879  0.00  0.00     0.110 C 
ATOM      3  C3  MFU d          10.846   2.711  -5.371  0.00  0.00     0.092 C 
ATOM      4  C4  MFU d          11.781   1.530  -5.628  0.00  0.00     0.087 C 
ATOM      5  C5  MFU d          13.136   1.674  -4.921  0.00  0.00     0.065 C 
ATOM      6  O5  MFU d          12.930   1.938  -3.526  0.00  0.00    -0.351 OA
ATOM      7  H1  MFU d          12.079   3.285  -2.184  0.00  0.00     0.133 H 
ATOM      8  H2  MFU d          10.258   2.166  -3.384  0.00  0.00     0.094 H 
ATOM      9  H3  MFU d          11.214   3.602  -5.902  0.00  0.00     0.091 H 
ATOM     10  H4  MFU d          11.960   1.453  -6.711  0.00  0.00     0.091 H 
ATOM     11  H5  MFU d          13.657   2.537  -5.360  0.00  0.00     0.086 H 
ENDROOT
BRANCH   1  12
ATOM     12  O1  MFU d          12.827   4.275  -3.855  0.00  0.00    -0.363 OA
BRANCH  12  13
ATOM     13  CM  MFU d          13.224   5.291  -2.922  0.00  0.00     0.007 C 
ATOM     14  H12 MFU d          14.172   5.741  -3.251  0.00  0.00     0.066 H 
ATOM     15  H13 MFU d          13.357   4.843  -1.925  0.00  0.00     0.066 H 
ATOM     16  H14 MFU d          12.447   6.069  -2.874  0.00  0.00     0.066 H 
ENDBRANCH  12  13
ENDBRANCH   1  12
BRANCH   2  17
ATOM     17  O2  MFU d           9.901   4.180  -3.687  0.00  0.00    -0.388 OA
ATOM     18  H9  MFU d           9.958   4.742  -4.451  0.00  0.00     0.210 HD
ENDBRANCH   2  17
BRANCH   3  19
ATOM     19  O3  MFU d           9.553   2.340  -5.867  0.00  0.00    -0.390 OA
ATOM     20  H10 MFU d           9.588   1.454  -6.208  0.00  0.00     0.210 HD
ENDBRANCH   3  19
BRANCH   5  21
ATOM     21  C6  MFU d          14.024   0.442  -5.123  0.00  0.00    -0.050 C 
ATOM     22  H6  MFU d          14.275   0.007  -4.144  0.00  0.00     0.031 H 
ATOM     23  H7  MFU d          14.949   0.737  -5.641  0.00  0.00     0.031 H 
ATOM     24  H8  MFU d          13.486  -0.303  -5.727  0.00  0.00     0.031 H 
ENDBRANCH   5  21
BRANCH   4  25
ATOM     25  O4  MFU d          11.131   0.332  -5.164  0.00  0.00    -0.390 OA
ATOM     26  H11 MFU d          10.790  -0.150  -5.908  0.00  0.00     0.210 HD
ENDBRANCH   4  25
TORSDOF 6
ENDMDL
