MODEL 1
REMARK VINA RESULT:      -8.8      0.000      0.000
REMARK  6 active torsions:
REMARK  status: ('A' for Active; 'I' for Inactive)
REMARK    1  A    between atoms: N1_2  and  C1_1 
REMARK    2  A    between atoms: C2_3  and  O2_5 
REMARK    3  A    between atoms: C9_17  and  N3_8 
REMARK    4  A    between atoms: C4_9  and  O4_10 
REMARK    5  A    between atoms: C5_11  and  C6_13 
REMARK    6  A    between atoms: C6_13  and  O6_14 
ROOT
ATOM      1  C1  DKZ d          33.220  23.020  28.125  0.00  0.00     0.141 C 
ATOM      2  C2  DKZ d          33.507  23.275  26.633  0.00  0.00     0.110 C 
ATOM      3  C3  DKZ d          32.514  22.465  25.768  0.00  0.00     0.134 C 
ATOM      4  F3  DKZ d          32.901  22.493  24.449  0.00  0.00    -0.244 F 
ATOM      5  C4  DKZ d          32.410  20.991  26.229  0.00  0.00     0.094 C 
ATOM      6  C5  DKZ d          32.325  20.821  27.765  0.00  0.00     0.088 C 
ATOM      7  O5  DKZ d          33.364  21.591  28.420  0.00  0.00    -0.353 OA
ATOM      8  H1  DKZ d          32.194  23.360  28.331  0.00  0.00     0.123 H 
ATOM      9  H2  DKZ d          34.524  22.921  26.410  0.00  0.00     0.094 H 
ATOM     10  H5  DKZ d          31.520  22.930  25.857  0.00  0.00     0.100 H 
ATOM     11  H7  DKZ d          33.303  20.455  25.874  0.00  0.00     0.091 H 
ATOM     12  H9  DKZ d          31.340  21.178  28.101  0.00  0.00     0.090 H 
ENDROOT
BRANCH   1  13
ATOM     13  N1  DKZ d          34.142  23.626  29.113  0.00  0.00    -0.280 N 
ATOM     14  C7  DKZ d          35.542  23.437  29.043  0.00  0.00    -0.009 A 
ATOM     15  C8  DKZ d          36.354  24.018  30.017  0.00  0.00    -0.024 A 
ATOM     16  H13 DKZ d          35.980  22.847  28.239  0.00  0.00     0.112 H 
ATOM     17  C9  DKZ d          35.733  24.752  31.039  0.00  0.00     0.125 A 
ATOM     18  H14 DKZ d          37.436  23.907  29.984  0.00  0.00     0.091 H 
ATOM     19  N2  DKZ d          34.390  24.907  31.091  0.00  0.00    -0.293 N 
ATOM     20  C10 DKZ d          33.581  24.354  30.164  0.00  0.00     0.330 A 
ATOM     21  H3  DKZ d          33.988  25.444  31.832  0.00  0.00     0.172 HD
ATOM     22  O10 DKZ d          32.352  24.500  30.218  0.00  0.00    -0.246 OA
BRANCH  17  23
ATOM     23  N3  DKZ d          36.471  25.308  31.996  0.00  0.00    -0.284 NA
ATOM     24  H6  DKZ d          36.055  25.533  32.887  0.00  0.00     0.188 HD
ENDBRANCH  17  23
ENDBRANCH   1  13
BRANCH   2  25
ATOM     25  O2  DKZ d          33.450  24.691  26.329  0.00  0.00    -0.388 OA
ATOM     26  H4  DKZ d          33.859  25.181  27.033  0.00  0.00     0.210 HD
ENDBRANCH   2  25
BRANCH   6  27
ATOM     27  C6  DKZ d          32.500  19.350  28.190  0.00  0.00     0.043 C 
ATOM     28  H10 DKZ d          31.546  18.815  28.067  0.00  0.00     0.078 H 
ATOM     29  H11 DKZ d          32.810  19.305  29.244  0.00  0.00     0.078 H 
BRANCH  27  30
ATOM     30  O6  DKZ d          33.504  18.740  27.367  0.00  0.00    -0.398 OA
ATOM     31  H12 DKZ d          34.363  19.039  27.642  0.00  0.00     0.209 HD
ENDBRANCH  27  30
ENDBRANCH   6  27
BRANCH   5  32
ATOM     32  O4  DKZ d          31.251  20.415  25.635  0.00  0.00    -0.390 OA
ATOM     33  H8  DKZ d          30.920  19.722  26.195  0.00  0.00     0.210 HD
ENDBRANCH   5  32
TORSDOF 6
ENDMDL
MODEL 2
REMARK VINA RESULT:      -6.2      3.103      5.829
REMARK  6 active torsions:
REMARK  status: ('A' for Active; 'I' for Inactive)
REMARK    1  A    between atoms: N1_2  and  C1_1 
REMARK    2  A    between atoms: C2_3  and  O2_5 
REMARK    3  A    between atoms: C9_17  and  N3_8 
REMARK    4  A    between atoms: C4_9  and  O4_10 
REMARK    5  A    between atoms: C5_11  and  C6_13 
REMARK    6  A    between atoms: C6_13  and  O6_14 
ROOT
ATOM      1  C1  DKZ d          33.732  23.706  28.756  0.00  0.00     0.141 C 
ATOM      2  C2  DKZ d          32.951  24.219  29.981  0.00  0.00     0.110 C 
ATOM      3  C3  DKZ d          33.834  25.201  30.784  0.00  0.00     0.134 C 
ATOM      4  F3  DKZ d          33.249  25.483  31.996  0.00  0.00    -0.244 F 
ATOM      5  C4  DKZ d          35.254  24.638  31.032  0.00  0.00     0.094 C 
ATOM      6  C5  DKZ d          35.884  23.962  29.790  0.00  0.00     0.088 C 
ATOM      7  O5  DKZ d          34.953  23.023  29.195  0.00  0.00    -0.353 OA
ATOM      8  H1  DKZ d          33.975  24.576  28.127  0.00  0.00     0.123 H 
ATOM      9  H2  DKZ d          32.718  23.360  30.627  0.00  0.00     0.094 H 
ATOM     10  H5  DKZ d          33.924  26.134  30.207  0.00  0.00     0.100 H 
ATOM     11  H7  DKZ d          35.193  23.889  31.835  0.00  0.00     0.091 H 
ATOM     12  H9  DKZ d          36.132  24.743  29.056  0.00  0.00     0.090 H 
ENDROOT
BRANCH   1  13
ATOM     13  N1  DKZ d          33.089  22.666  27.920  0.00  0.00    -0.280 N 
ATOM     14  C7  DKZ d          33.337  21.288  28.120  0.00  0.00    -0.009 A 
ATOM     15  C8  DKZ d          32.716  20.359  27.285  0.00  0.00    -0.024 A 
ATOM     16  H13 DKZ d          34.003  20.957  28.916  0.00  0.00     0.112 H 
ATOM     17  C9  DKZ d          31.883  20.845  26.265  0.00  0.00     0.125 A 
ATOM     18  H14 DKZ d          32.872  19.291  27.421  0.00  0.00     0.091 H 
ATOM     19  N2  DKZ d          31.672  22.169  26.087  0.00  0.00    -0.293 N 
ATOM     20  C10 DKZ d          32.262  23.089  26.878  0.00  0.00     0.330 A 
ATOM     21  H3  DKZ d          31.065  22.473  25.353  0.00  0.00     0.172 HD
ATOM     22  O10 DKZ d          32.065  24.300  26.709  0.00  0.00    -0.246 OA
BRANCH  17  23
ATOM     23  N3  DKZ d          31.286  19.992  25.437  0.00  0.00    -0.284 NA
ATOM     24  H6  DKZ d          31.839  19.406  24.831  0.00  0.00     0.188 HD
ENDBRANCH  17  23
ENDBRANCH   1  13
BRANCH   2  25
ATOM     25  O2  DKZ d          31.699  24.828  29.580  0.00  0.00    -0.388 OA
ATOM     26  H4  DKZ d          31.323  24.334  28.861  0.00  0.00     0.210 HD
ENDBRANCH   2  25
BRANCH   6  27
ATOM     27  C6  DKZ d          37.164  23.181  30.148  0.00  0.00     0.043 C 
ATOM     28  H10 DKZ d          38.042  23.716  29.757  0.00  0.00     0.078 H 
ATOM     29  H11 DKZ d          37.119  22.176  29.704  0.00  0.00     0.078 H 
BRANCH  27  30
ATOM     30  O6  DKZ d          37.262  23.072  31.575  0.00  0.00    -0.398 OA
ATOM     31  H12 DKZ d          36.392  22.979  31.946  0.00  0.00     0.209 HD
ENDBRANCH  27  30
ENDBRANCH   6  27
BRANCH   5  32
ATOM     32  O4  DKZ d          36.095  25.707  31.453  0.00  0.00    -0.390 OA
ATOM     33  H8  DKZ d          36.317  25.593  32.369  0.00  0.00     0.210 HD
ENDBRANCH   5  32
TORSDOF 6
ENDMDL
