MODEL 1
REMARK VINA RESULT:      -6.4      0.000      0.000
REMARK  8 active torsions:
REMARK  status: ('A' for Active; 'I' for Inactive)
REMARK    1  A    between atoms: N1_1  and  C4_2 
REMARK    2  A    between atoms: C4_2  and  C6_3 
REMARK    3  A    between atoms: C4_2  and  C34_18 
REMARK    4  A    between atoms: C6_3  and  C9_4 
REMARK    5  A    between atoms: C14_7  and  O19_10 
REMARK    6  A    between atoms: O19_10  and  C20_11 
REMARK    7  A    between atoms: C20_11  and  C23_12 
REMARK       I    between atoms: C34_18  and  N36_20 
REMARK    8  A    between atoms: N36_20  and  C38_21 
ROOT
ATOM      1  C9  MS7 d          -9.099  -2.645 -30.585  0.00  0.00    -0.056 A 
ATOM      2  C10 MS7 d          -8.233  -1.776 -31.274  0.00  0.00    -0.074 A 
ATOM      3  C12 MS7 d          -6.850  -2.028 -31.372  0.00  0.00    -0.050 A 
ATOM      4  C14 MS7 d          -6.315  -3.182 -30.757  0.00  0.00     0.069 A 
ATOM      5  C15 MS7 d          -7.166  -4.050 -30.061  0.00  0.00    -0.050 A 
ATOM      6  C17 MS7 d          -8.553  -3.786 -29.972  0.00  0.00    -0.074 A 
ATOM      7  H7  MS7 d          -8.641  -0.887 -31.742  0.00  0.00     0.084 H 
ATOM      8  H8  MS7 d          -6.204  -1.345 -31.913  0.00  0.00     0.087 H 
ATOM      9  H9  MS7 d          -6.757  -4.935 -29.586  0.00  0.00     0.087 H 
ATOM     10  H10 MS7 d          -9.197  -4.467 -29.428  0.00  0.00     0.084 H 
ENDROOT
BRANCH   1  11
ATOM     11  C6  MS7 d         -10.616  -2.349 -30.498  0.00  0.00    -0.006 C 
ATOM     12  H5  MS7 d         -10.914  -2.323 -29.440  0.00  0.00     0.043 H 
ATOM     13  H6  MS7 d         -10.815  -1.370 -30.959  0.00  0.00     0.043 H 
BRANCH  11  14
ATOM     14  C4  MS7 d         -11.465  -3.438 -31.236  0.00  0.00     0.179 C 
ATOM     15  H4  MS7 d         -11.306  -4.408 -30.743  0.00  0.00     0.099 H 
BRANCH  14  16
ATOM     16  N1  MS7 d         -11.014  -3.534 -32.632  0.00  0.00    -0.066 N 
ATOM     17  H1  MS7 d         -10.032  -3.759 -32.652  0.00  0.00     0.275 HD
ATOM     18  H2  MS7 d         -11.167  -2.653 -33.096  0.00  0.00     0.275 HD
ATOM     19  H3  MS7 d         -11.534  -4.257 -33.104  0.00  0.00     0.275 HD
ENDBRANCH  14  16
BRANCH  14  20
ATOM     20  C34 MS7 d         -12.938  -3.101 -31.174  0.00  0.00     0.248 C 
ATOM     21  O35 MS7 d         -13.235  -2.013 -31.650  0.00  0.00    -0.271 OA
ATOM     22  N36 MS7 d         -13.860  -3.962 -30.610  0.00  0.00    -0.364 N 
ATOM     23  H18 MS7 d         -13.541  -4.835 -30.240  0.00  0.00     0.161 HD
BRANCH  22  24
ATOM     24  C38 MS7 d         -15.298  -3.639 -30.534  0.00  0.00    -0.018 C 
ATOM     25  H19 MS7 d         -15.835  -4.467 -30.048  0.00  0.00     0.056 H 
ATOM     26  H20 MS7 d         -15.695  -3.492 -31.550  0.00  0.00     0.056 H 
ATOM     27  H21 MS7 d         -15.437  -2.718 -29.949  0.00  0.00     0.056 H 
ENDBRANCH  22  24
ENDBRANCH  14  20
ENDBRANCH  11  14
ENDBRANCH   1  11
BRANCH   4  28
ATOM     28  O19 MS7 d          -4.944  -3.473 -30.791  0.00  0.00    -0.347 OA
BRANCH  28  29
ATOM     29  C20 MS7 d          -4.383  -4.780 -30.542  0.00  0.00     0.050 C 
ATOM     30  H11 MS7 d          -4.603  -5.455 -31.382  0.00  0.00     0.082 H 
ATOM     31  H12 MS7 d          -4.797  -5.202 -29.613  0.00  0.00     0.082 H 
BRANCH  29  32
ATOM     32  C23 MS7 d          -2.894  -4.582 -30.407  0.00  0.00    -0.034 A 
ATOM     33  C24 MS7 d          -2.363  -3.332 -30.095  0.00  0.00    -0.075 A 
ATOM     34  C26 MS7 d          -0.982  -3.186 -29.955  0.00  0.00    -0.082 A 
ATOM     35  H13 MS7 d          -3.017  -2.479 -29.962  0.00  0.00     0.084 H 
ATOM     36  C28 MS7 d          -0.141  -4.296 -30.211  0.00  0.00    -0.083 A 
ATOM     37  H14 MS7 d          -0.558  -2.235 -29.653  0.00  0.00     0.083 H 
ATOM     38  C30 MS7 d          -0.702  -5.514 -30.584  0.00  0.00    -0.082 A 
ATOM     39  H15 MS7 d           0.935  -4.198 -30.117  0.00  0.00     0.083 H 
ATOM     40  C32 MS7 d          -2.072  -5.683 -30.670  0.00  0.00    -0.075 A 
ATOM     41  H16 MS7 d          -0.050  -6.348 -30.812  0.00  0.00     0.083 H 
ATOM     42  H17 MS7 d          -2.498  -6.645 -30.936  0.00  0.00     0.084 H 
ENDBRANCH  29  32
ENDBRANCH  28  29
ENDBRANCH   4  28
TORSDOF 8
ENDMDL
