MODEL 1
REMARK VINA RESULT:      -9.7      0.000      0.000
REMARK  3 active torsions:
REMARK  status: ('A' for Active; 'I' for Inactive)
REMARK    1  A    between atoms: C1_1  and  O1_2 
REMARK    2  A    between atoms: C10_11  and  C11_12 
REMARK    3  A    between atoms: C14_15  and  C15_16 
ROOT
ATOM      1  C1  MOL d          23.246   7.006  11.002  0.00  0.00     0.066 A 
ATOM      2  C2  MOL d          23.140   5.640  10.722  0.00  0.00    -0.049 A 
ATOM      3  C3  MOL d          22.942   4.711  11.745  0.00  0.00    -0.054 A 
ATOM      4  C4  MOL d          22.851   5.165  13.059  0.00  0.00     0.044 A 
ATOM      5  C5  MOL d          22.957   6.519  13.319  0.00  0.00     0.006 A 
ATOM      6  C6  MOL d          23.153   7.466  12.316  0.00  0.00    -0.038 A 
ATOM      7  N7  MOL d          22.665   4.556  14.273  0.00  0.00    -0.354 N 
ATOM      8  C8  MOL d          22.642   5.450  15.317  0.00  0.00     0.051 A 
ATOM      9  C9  MOL d          22.824   6.705  14.768  0.00  0.00     0.011 A 
ATOM     10  C10 MOL d          22.482   5.324  16.694  0.00  0.00    -0.023 A 
ATOM     11  C12 MOL d          22.511   6.473  17.496  0.00  0.00    -0.011 A 
ATOM     12  C13 MOL d          22.699   7.752  16.929  0.00  0.00     0.036 A 
ATOM     13  C14 MOL d          22.859   7.876  15.533  0.00  0.00    -0.033 A 
ATOM     14  C16 MOL d          22.356   6.356  18.881  0.00  0.00    -0.057 A 
ATOM     15  C17 MOL d          22.385   7.494  19.683  0.00  0.00    -0.020 A 
ATOM     16  N18 MOL d          22.561   8.706  19.127  0.00  0.00    -0.344 N 
ATOM     17  C19 MOL d          22.718   8.862  17.798  0.00  0.00     0.190 A 
ATOM     18  O19 MOL d          22.890  10.130  17.326  0.00  0.00    -0.171 OA
ATOM     19  H2  MOL d          23.213   5.298   9.696  0.00  0.00     0.087 H 
ATOM     20  H3  MOL d          22.862   3.654  11.520  0.00  0.00     0.087 H 
ATOM     21  H4  MOL d          23.231   8.522  12.548  0.00  0.00     0.089 H 
ATOM     22  H5  MOL d          22.554   3.538  14.391  0.00  0.00     0.166 HD
ATOM     23  H12 MOL d          22.213   5.375  19.331  0.00  0.00     0.086 H 
ATOM     24  H13 MOL d          22.264   7.402  20.762  0.00  0.00     0.111 H 
ATOM     25  H14 MOL d          22.577   9.513  19.717  0.00  0.00     0.167 HD
ENDROOT
BRANCH  10  26
ATOM     26  C11 MOL d          22.284   3.950  17.292  0.00  0.00    -0.048 C 
ATOM     27  H6  MOL d          23.163   3.685  17.899  0.00  0.00     0.033 H 
ATOM     28  H7  MOL d          22.160   3.212  16.486  0.00  0.00     0.033 H 
ATOM     29  H8  MOL d          21.386   3.952  17.928  0.00  0.00     0.033 H 
ENDBRANCH  10  26
BRANCH  13  30
ATOM     30  C15 MOL d          23.068   9.216  14.857  0.00  0.00    -0.049 C 
ATOM     31  H9  MOL d          22.143   9.515  14.340  0.00  0.00     0.033 H 
ATOM     32  H10 MOL d          23.886   9.136  14.127  0.00  0.00     0.033 H 
ATOM     33  H11 MOL d          23.324   9.972  15.614  0.00  0.00     0.033 H 
ENDBRANCH  13  30
BRANCH   1  34
ATOM     34  O1  MOL d          23.437   7.892   9.982  0.00  0.00    -0.361 OA
ATOM     35  H1  MOL d          23.557   7.416   9.169  0.00  0.00     0.217 HD
ENDBRANCH   1  34
TORSDOF 3
ENDMDL
MODEL 2
REMARK VINA RESULT:      -9.7      1.985      5.696
REMARK  3 active torsions:
REMARK  status: ('A' for Active; 'I' for Inactive)
REMARK    1  A    between atoms: C1_1  and  O1_2 
REMARK    2  A    between atoms: C10_11  and  C11_12 
REMARK    3  A    between atoms: C14_15  and  C15_16 
ROOT
ATOM      1  C1  MOL d          22.359   6.194  18.832  0.00  0.00     0.066 A 
ATOM      2  C2  MOL d          22.252   4.805  18.946  0.00  0.00    -0.049 A 
ATOM      3  C3  MOL d          22.280   3.988  17.814  0.00  0.00    -0.054 A 
ATOM      4  C4  MOL d          22.418   4.580  16.560  0.00  0.00     0.044 A 
ATOM      5  C5  MOL d          22.523   5.956  16.465  0.00  0.00     0.006 A 
ATOM      6  C6  MOL d          22.498   6.791  17.579  0.00  0.00    -0.038 A 
ATOM      7  N7  MOL d          22.482   4.102  15.276  0.00  0.00    -0.354 N 
ATOM      8  C8  MOL d          22.627   5.102  14.344  0.00  0.00     0.051 A 
ATOM      9  C9  MOL d          22.657   6.294  15.044  0.00  0.00     0.011 A 
ATOM     10  C10 MOL d          22.739   5.122  12.958  0.00  0.00    -0.023 A 
ATOM     11  C12 MOL d          22.878   6.351  12.297  0.00  0.00    -0.011 A 
ATOM     12  C13 MOL d          22.905   7.565  13.018  0.00  0.00     0.036 A 
ATOM     13  C14 MOL d          22.793   7.541  14.424  0.00  0.00    -0.033 A 
ATOM     14  C16 MOL d          22.986   6.381  10.904  0.00  0.00    -0.057 A 
ATOM     15  C17 MOL d          23.123   7.599  10.242  0.00  0.00    -0.020 A 
ATOM     16  N18 MOL d          23.151   8.746  10.943  0.00  0.00    -0.344 N 
ATOM     17  C19 MOL d          23.046   8.762  12.286  0.00  0.00     0.190 A 
ATOM     18  O19 MOL d          23.086   9.974  12.911  0.00  0.00    -0.171 OA
ATOM     19  H2  MOL d          22.145   4.355  19.927  0.00  0.00     0.087 H 
ATOM     20  H3  MOL d          22.197   2.912  17.910  0.00  0.00     0.087 H 
ATOM     21  H4  MOL d          22.585   7.867  17.476  0.00  0.00     0.089 H 
ATOM     22  H5  MOL d          22.428   3.102  15.036  0.00  0.00     0.166 HD
ATOM     23  H12 MOL d          22.963   5.452  10.336  0.00  0.00     0.086 H 
ATOM     24  H13 MOL d          23.207   7.622   9.156  0.00  0.00     0.111 H 
ATOM     25  H14 MOL d          23.252   9.613  10.454  0.00  0.00     0.167 HD
ENDROOT
BRANCH  10  26
ATOM     26  C11 MOL d          22.705   3.817  12.194  0.00  0.00    -0.048 C 
ATOM     27  H6  MOL d          21.688   3.400  12.228  0.00  0.00     0.033 H 
ATOM     28  H7  MOL d          23.408   3.106  12.652  0.00  0.00     0.033 H 
ATOM     29  H8  MOL d          22.994   3.996  11.148  0.00  0.00     0.033 H 
ENDBRANCH  10  26
BRANCH  13  30
ATOM     30  C15 MOL d          22.813   8.805  15.260  0.00  0.00    -0.049 C 
ATOM     31  H9  MOL d          22.736   8.541  16.326  0.00  0.00     0.033 H 
ATOM     32  H10 MOL d          21.963   9.443  14.978  0.00  0.00     0.033 H 
ATOM     33  H11 MOL d          23.753   9.346  15.083  0.00  0.00     0.033 H 
ENDBRANCH  13  30
BRANCH   1  34
ATOM     34  O1  MOL d          22.330   6.969  19.956  0.00  0.00    -0.361 OA
ATOM     35  H1  MOL d          23.216   7.089  20.278  0.00  0.00     0.217 HD
ENDBRANCH   1  34
TORSDOF 3
ENDMDL
MODEL 3
REMARK VINA RESULT:      -9.5      2.226      6.496
REMARK  3 active torsions:
REMARK  status: ('A' for Active; 'I' for Inactive)
REMARK    1  A    between atoms: C1_1  and  O1_2 
REMARK    2  A    between atoms: C10_11  and  C11_12 
REMARK    3  A    between atoms: C14_15  and  C15_16 
ROOT
ATOM      1  C1  MOL d          22.275   4.939  18.536  0.00  0.00     0.066 A 
ATOM      2  C2  MOL d          22.312   6.137  19.257  0.00  0.00    -0.049 A 
ATOM      3  C3  MOL d          22.482   7.360  18.607  0.00  0.00    -0.054 A 
ATOM      4  C4  MOL d          22.615   7.374  17.220  0.00  0.00     0.044 A 
ATOM      5  C5  MOL d          22.577   6.180  16.522  0.00  0.00     0.006 A 
ATOM      6  C6  MOL d          22.408   4.947  17.147  0.00  0.00    -0.038 A 
ATOM      7  N7  MOL d          22.792   8.360  16.283  0.00  0.00    -0.354 N 
ATOM      8  C8  MOL d          22.869   7.866  15.002  0.00  0.00     0.051 A 
ATOM      9  C9  MOL d          22.740   6.494  15.099  0.00  0.00     0.011 A 
ATOM     10  C10 MOL d          23.035   8.451  13.751  0.00  0.00    -0.023 A 
ATOM     11  C12 MOL d          23.071   7.634  12.611  0.00  0.00    -0.011 A 
ATOM     12  C13 MOL d          22.942   6.232  12.717  0.00  0.00     0.036 A 
ATOM     13  C14 MOL d          22.771   5.643  13.987  0.00  0.00    -0.033 A 
ATOM     14  C16 MOL d          23.243   8.211  11.350  0.00  0.00    -0.057 A 
ATOM     15  C17 MOL d          23.281   7.405  10.214  0.00  0.00    -0.020 A 
ATOM     16  N18 MOL d          23.152   6.072  10.331  0.00  0.00    -0.344 N 
ATOM     17  C19 MOL d          22.988   5.475  11.528  0.00  0.00     0.190 A 
ATOM     18  O19 MOL d          22.865   4.117  11.546  0.00  0.00    -0.171 OA
ATOM     19  H2  MOL d          22.207   6.115  20.336  0.00  0.00     0.087 H 
ATOM     20  H3  MOL d          22.509   8.285  19.172  0.00  0.00     0.087 H 
ATOM     21  H4  MOL d          22.379   4.027  16.575  0.00  0.00     0.089 H 
ATOM     22  H5  MOL d          22.860   9.361  16.514  0.00  0.00     0.166 HD
ATOM     23  H12 MOL d          23.348   9.291  11.255  0.00  0.00     0.086 H 
ATOM     24  H13 MOL d          23.415   7.856   9.232  0.00  0.00     0.111 H 
ATOM     25  H14 MOL d          23.179   5.507   9.506  0.00  0.00     0.167 HD
ENDROOT
BRANCH  10  26
ATOM     26  C11 MOL d          23.177   9.952  13.648  0.00  0.00    -0.048 C 
ATOM     27  H6  MOL d          23.593  10.346  14.588  0.00  0.00     0.033 H 
ATOM     28  H7  MOL d          22.190  10.403  13.468  0.00  0.00     0.033 H 
ATOM     29  H8  MOL d          23.852  10.201  12.816  0.00  0.00     0.033 H 
ENDBRANCH  10  26
BRANCH  13  30
ATOM     30  C15 MOL d          22.627   4.147  14.174  0.00  0.00    -0.049 C 
ATOM     31  H9  MOL d          22.129   3.942  15.133  0.00  0.00     0.033 H 
ATOM     32  H10 MOL d          23.623   3.680  14.172  0.00  0.00     0.033 H 
ATOM     33  H11 MOL d          22.025   3.731  13.353  0.00  0.00     0.033 H 
ENDBRANCH  13  30
BRANCH   1  34
ATOM     34  O1  MOL d          22.106   3.757  19.197  0.00  0.00    -0.361 OA
ATOM     35  H1  MOL d          22.820   3.170  18.979  0.00  0.00     0.217 HD
ENDBRANCH   1  34
TORSDOF 3
ENDMDL
MODEL 4
REMARK VINA RESULT:      -9.4      1.582      5.842
REMARK  3 active torsions:
REMARK  status: ('A' for Active; 'I' for Inactive)
REMARK    1  A    between atoms: C1_1  and  O1_2 
REMARK    2  A    between atoms: C10_11  and  C11_12 
REMARK    3  A    between atoms: C14_15  and  C15_16 
ROOT
ATOM      1  C1  MOL d          22.599   9.613  18.262  0.00  0.00     0.066 A 
ATOM      2  C2  MOL d          22.498   8.521  19.131  0.00  0.00    -0.049 A 
ATOM      3  C3  MOL d          22.522   7.214  18.644  0.00  0.00    -0.054 A 
ATOM      4  C4  MOL d          22.648   7.008  17.272  0.00  0.00     0.044 A 
ATOM      5  C5  MOL d          22.747   8.098  16.427  0.00  0.00     0.006 A 
ATOM      6  C6  MOL d          22.727   9.412  16.888  0.00  0.00    -0.038 A 
ATOM      7  N7  MOL d          22.704   5.896  16.470  0.00  0.00    -0.354 N 
ATOM      8  C8  MOL d          22.838   6.209  15.138  0.00  0.00     0.051 A 
ATOM      9  C9  MOL d          22.868   7.589  15.057  0.00  0.00     0.011 A 
ATOM     10  C10 MOL d          22.940   5.454  13.973  0.00  0.00    -0.023 A 
ATOM     11  C12 MOL d          23.068   6.109  12.740  0.00  0.00    -0.011 A 
ATOM     12  C13 MOL d          23.096   7.518  12.664  0.00  0.00     0.036 A 
ATOM     13  C14 MOL d          22.995   8.281  13.847  0.00  0.00    -0.033 A 
ATOM     14  C16 MOL d          23.166   5.359  11.564  0.00  0.00    -0.057 A 
ATOM     15  C17 MOL d          23.293   6.003  10.336  0.00  0.00    -0.020 A 
ATOM     16  N18 MOL d          23.322   7.347  10.280  0.00  0.00    -0.344 N 
ATOM     17  C19 MOL d          23.227   8.106  11.389  0.00  0.00     0.190 A 
ATOM     18  O19 MOL d          23.267   9.461  11.233  0.00  0.00    -0.171 OA
ATOM     19  H2  MOL d          22.401   8.694  20.197  0.00  0.00     0.087 H 
ATOM     20  H3  MOL d          22.443   6.372  19.323  0.00  0.00     0.087 H 
ATOM     21  H4  MOL d          22.808  10.249  16.203  0.00  0.00     0.089 H 
ATOM     22  H5  MOL d          22.653   4.931  16.827  0.00  0.00     0.166 HD
ATOM     23  H12 MOL d          23.143   4.271  11.609  0.00  0.00     0.086 H 
ATOM     24  H13 MOL d          23.369   5.419   9.420  0.00  0.00     0.111 H 
ATOM     25  H14 MOL d          23.416   7.794   9.391  0.00  0.00     0.167 HD
ENDROOT
BRANCH  10  26
ATOM     26  C11 MOL d          22.905   3.946  14.065  0.00  0.00    -0.048 C 
ATOM     27  H6  MOL d          23.115   3.637  15.100  0.00  0.00     0.033 H 
ATOM     28  H7  MOL d          23.666   3.520  13.394  0.00  0.00     0.033 H 
ATOM     29  H8  MOL d          21.910   3.583  13.768  0.00  0.00     0.033 H 
ENDBRANCH  10  26
BRANCH  13  30
ATOM     30  C15 MOL d          23.016   9.796  13.838  0.00  0.00    -0.049 C 
ATOM     31  H9  MOL d          24.024  10.147  13.570  0.00  0.00     0.033 H 
ATOM     32  H10 MOL d          22.750  10.171  14.837  0.00  0.00     0.033 H 
ATOM     33  H11 MOL d          22.290  10.168  13.101  0.00  0.00     0.033 H 
ENDBRANCH  13  30
BRANCH   1  34
ATOM     34  O1  MOL d          22.576  10.881  18.766  0.00  0.00    -0.361 OA
ATOM     35  H1  MOL d          22.274  11.481  18.094  0.00  0.00     0.217 HD
ENDBRANCH   1  34
TORSDOF 3
ENDMDL
MODEL 5
REMARK VINA RESULT:      -9.0      2.056      3.208
REMARK  3 active torsions:
REMARK  status: ('A' for Active; 'I' for Inactive)
REMARK    1  A    between atoms: C1_1  and  O1_2 
REMARK    2  A    between atoms: C10_11  and  C11_12 
REMARK    3  A    between atoms: C14_15  and  C15_16 
ROOT
ATOM      1  C1  MOL d          22.871   4.968  12.132  0.00  0.00     0.066 A 
ATOM      2  C2  MOL d          23.136   6.113  11.375  0.00  0.00    -0.049 A 
ATOM      3  C3  MOL d          23.252   7.364  11.983  0.00  0.00    -0.054 A 
ATOM      4  C4  MOL d          23.099   7.458  13.365  0.00  0.00     0.044 A 
ATOM      5  C5  MOL d          22.837   6.316  14.099  0.00  0.00     0.006 A 
ATOM      6  C6  MOL d          22.718   5.056  13.516  0.00  0.00    -0.038 A 
ATOM      7  N7  MOL d          23.146   8.490  14.267  0.00  0.00    -0.354 N 
ATOM      8  C8  MOL d          22.929   8.075  15.559  0.00  0.00     0.051 A 
ATOM      9  C9  MOL d          22.727   6.709  15.508  0.00  0.00     0.011 A 
ATOM     10  C10 MOL d          22.884   8.726  16.788  0.00  0.00    -0.023 A 
ATOM     11  C12 MOL d          22.632   7.983  17.950  0.00  0.00    -0.011 A 
ATOM     12  C13 MOL d          22.424   6.588  17.890  0.00  0.00     0.036 A 
ATOM     13  C14 MOL d          22.473   5.931  16.643  0.00  0.00    -0.033 A 
ATOM     14  C16 MOL d          22.580   8.629  19.189  0.00  0.00    -0.057 A 
ATOM     15  C17 MOL d          22.329   7.896  20.346  0.00  0.00    -0.020 A 
ATOM     16  N18 MOL d          22.137   6.567  20.273  0.00  0.00    -0.344 N 
ATOM     17  C19 MOL d          22.176   5.906  19.100  0.00  0.00     0.190 A 
ATOM     18  O19 MOL d          21.970   4.558  19.125  0.00  0.00    -0.171 OA
ATOM     19  H2  MOL d          23.253   6.028  10.300  0.00  0.00     0.087 H 
ATOM     20  H3  MOL d          23.457   8.248  11.390  0.00  0.00     0.087 H 
ATOM     21  H4  MOL d          22.515   4.176  14.116  0.00  0.00     0.089 H 
ATOM     22  H5  MOL d          23.324   9.470  14.005  0.00  0.00     0.166 HD
ATOM     23  H12 MOL d          22.735   9.705  19.248  0.00  0.00     0.086 H 
ATOM     24  H13 MOL d          22.288   8.400  21.311  0.00  0.00     0.111 H 
ATOM     25  H14 MOL d          21.961   6.055  21.113  0.00  0.00     0.167 HD
ENDROOT
BRANCH  10  26
ATOM     26  C11 MOL d          23.104  10.221  16.842  0.00  0.00    -0.048 C 
ATOM     27  H6  MOL d          22.586  10.636  17.719  0.00  0.00     0.033 H 
ATOM     28  H7  MOL d          22.704  10.684  15.927  0.00  0.00     0.033 H 
ATOM     29  H8  MOL d          24.181  10.432  16.918  0.00  0.00     0.033 H 
ENDBRANCH  10  26
BRANCH  13  30
ATOM     30  C15 MOL d          22.258   4.437  16.505  0.00  0.00    -0.049 C 
ATOM     31  H9  MOL d          21.686   4.232  15.587  0.00  0.00     0.033 H 
ATOM     32  H10 MOL d          21.698   4.066  17.376  0.00  0.00     0.033 H 
ATOM     33  H11 MOL d          23.232   3.930  16.451  0.00  0.00     0.033 H 
ENDBRANCH  13  30
BRANCH   1  34
ATOM     34  O1  MOL d          22.765   3.757  11.512  0.00  0.00    -0.361 OA
ATOM     35  H1  MOL d          23.630   3.379  11.409  0.00  0.00     0.217 HD
ENDBRANCH   1  34
TORSDOF 3
ENDMDL
MODEL 6
REMARK VINA RESULT:      -8.9      2.025      6.574
REMARK  3 active torsions:
REMARK  status: ('A' for Active; 'I' for Inactive)
REMARK    1  A    between atoms: C1_1  and  O1_2 
REMARK    2  A    between atoms: C10_11  and  C11_12 
REMARK    3  A    between atoms: C14_15  and  C15_16 
ROOT
ATOM      1  C1  MOL d          22.522   7.999  19.174  0.00  0.00     0.066 A 
ATOM      2  C2  MOL d          22.577   9.396  19.201  0.00  0.00    -0.049 A 
ATOM      3  C3  MOL d          22.721  10.130  18.024  0.00  0.00    -0.054 A 
ATOM      4  C4  MOL d          22.810   9.449  16.812  0.00  0.00     0.044 A 
ATOM      5  C5  MOL d          22.753   8.067  16.802  0.00  0.00     0.006 A 
ATOM      6  C6  MOL d          22.609   7.312  17.963  0.00  0.00    -0.038 A 
ATOM      7  N7  MOL d          22.952   9.835  15.503  0.00  0.00    -0.354 N 
ATOM      8  C8  MOL d          22.989   8.768  14.636  0.00  0.00     0.051 A 
ATOM      9  C9  MOL d          22.868   7.628  15.408  0.00  0.00     0.011 A 
ATOM     10  C10 MOL d          23.112   8.649  13.256  0.00  0.00    -0.023 A 
ATOM     11  C12 MOL d          23.114   7.373  12.674  0.00  0.00    -0.011 A 
ATOM     12  C13 MOL d          22.993   6.212  13.468  0.00  0.00     0.036 A 
ATOM     13  C14 MOL d          22.866   6.337  14.867  0.00  0.00    -0.033 A 
ATOM     14  C16 MOL d          23.243   7.243  11.288  0.00  0.00    -0.057 A 
ATOM     15  C17 MOL d          23.247   5.978  10.705  0.00  0.00    -0.020 A 
ATOM     16  N18 MOL d          23.127   4.882  11.474  0.00  0.00    -0.344 N 
ATOM     17  C19 MOL d          23.004   4.963  12.813  0.00  0.00     0.190 A 
ATOM     18  O19 MOL d          22.887   3.796  13.510  0.00  0.00    -0.171 OA
ATOM     19  H2  MOL d          22.507   9.915  20.151  0.00  0.00     0.087 H 
ATOM     20  H3  MOL d          22.763  11.213  18.052  0.00  0.00     0.087 H 
ATOM     21  H4  MOL d          22.565   6.229  17.927  0.00  0.00     0.089 H 
ATOM     22  H5  MOL d          23.023  10.817  15.202  0.00  0.00     0.166 HD
ATOM     23  H12 MOL d          23.340   8.131  10.665  0.00  0.00     0.086 H 
ATOM     24  H13 MOL d          23.347   5.877   9.625  0.00  0.00     0.111 H 
ATOM     25  H14 MOL d          23.129   3.981  11.040  0.00  0.00     0.167 HD
ENDROOT
BRANCH  10  26
ATOM     26  C11 MOL d          23.245   9.898  12.415  0.00  0.00    -0.048 C 
ATOM     27  H6  MOL d          23.017  10.781  13.030  0.00  0.00     0.033 H 
ATOM     28  H7  MOL d          22.542   9.849  11.570  0.00  0.00     0.033 H 
ATOM     29  H8  MOL d          24.273   9.975  12.031  0.00  0.00     0.033 H 
ENDBRANCH  10  26
BRANCH  13  30
ATOM     30  C15 MOL d          22.734   5.134  15.779  0.00  0.00    -0.049 C 
ATOM     31  H9  MOL d          22.297   4.294  15.219  0.00  0.00     0.033 H 
ATOM     32  H10 MOL d          22.083   5.387  16.628  0.00  0.00     0.033 H 
ATOM     33  H11 MOL d          23.728   4.846  16.152  0.00  0.00     0.033 H 
ENDBRANCH  13  30
BRANCH   1  34
ATOM     34  O1  MOL d          22.378   7.305  20.341  0.00  0.00    -0.361 OA
ATOM     35  H1  MOL d          23.136   7.457  20.894  0.00  0.00     0.217 HD
ENDBRANCH   1  34
TORSDOF 3
ENDMDL
MODEL 7
REMARK VINA RESULT:      -8.7      2.224      3.554
REMARK  3 active torsions:
REMARK  status: ('A' for Active; 'I' for Inactive)
REMARK    1  A    between atoms: C1_1  and  O1_2 
REMARK    2  A    between atoms: C10_11  and  C11_12 
REMARK    3  A    between atoms: C14_15  and  C15_16 
ROOT
ATOM      1  C1  MOL d          23.199   8.444  11.190  0.00  0.00     0.066 A 
ATOM      2  C2  MOL d          23.332   9.831  11.308  0.00  0.00    -0.049 A 
ATOM      3  C3  MOL d          23.296  10.451  12.558  0.00  0.00    -0.054 A 
ATOM      4  C4  MOL d          23.124   9.664  13.695  0.00  0.00     0.044 A 
ATOM      5  C5  MOL d          22.994   8.294  13.561  0.00  0.00     0.006 A 
ATOM      6  C6  MOL d          23.028   7.652  12.326  0.00  0.00    -0.038 A 
ATOM      7  N7  MOL d          23.044   9.926  15.039  0.00  0.00    -0.354 N 
ATOM      8  C8  MOL d          22.870   8.789  15.792  0.00  0.00     0.051 A 
ATOM      9  C9  MOL d          22.830   7.729  14.905  0.00  0.00     0.011 A 
ATOM     10  C10 MOL d          22.741   8.543  17.155  0.00  0.00    -0.023 A 
ATOM     11  C12 MOL d          22.570   7.224  17.602  0.00  0.00    -0.011 A 
ATOM     12  C13 MOL d          22.529   6.147  16.690  0.00  0.00     0.036 A 
ATOM     13  C14 MOL d          22.662   6.400  15.309  0.00  0.00    -0.033 A 
ATOM     14  C16 MOL d          22.435   6.968  18.969  0.00  0.00    -0.057 A 
ATOM     15  C17 MOL d          22.265   5.661  19.419  0.00  0.00    -0.020 A 
ATOM     16  N18 MOL d          22.231   4.645  18.539  0.00  0.00    -0.344 N 
ATOM     17  C19 MOL d          22.354   4.849  17.213  0.00  0.00     0.190 A 
ATOM     18  O19 MOL d          22.309   3.757  16.397  0.00  0.00    -0.171 OA
ATOM     19  H2  MOL d          23.465  10.433  10.416  0.00  0.00     0.087 H 
ATOM     20  H3  MOL d          23.400  11.526  12.642  0.00  0.00     0.087 H 
ATOM     21  H4  MOL d          22.926   6.575  12.249  0.00  0.00     0.089 H 
ATOM     22  H5  MOL d          23.108  10.872  15.442  0.00  0.00     0.166 HD
ATOM     23  H12 MOL d          22.462   7.790  19.683  0.00  0.00     0.086 H 
ATOM     24  H13 MOL d          22.159   5.461  20.485  0.00  0.00     0.111 H 
ATOM     25  H14 MOL d          22.111   3.712  18.877  0.00  0.00     0.167 HD
ENDROOT
BRANCH  10  26
ATOM     26  C11 MOL d          22.783   9.703  18.123  0.00  0.00    -0.048 C 
ATOM     27  H6  MOL d          23.040   9.334  19.127  0.00  0.00     0.033 H 
ATOM     28  H7  MOL d          21.797  10.191  18.154  0.00  0.00     0.033 H 
ATOM     29  H8  MOL d          23.541  10.429  17.794  0.00  0.00     0.033 H 
ENDBRANCH  10  26
BRANCH  13  30
ATOM     30  C15 MOL d          22.625   5.293  14.275  0.00  0.00    -0.049 C 
ATOM     31  H9  MOL d          23.565   4.722  14.314  0.00  0.00     0.033 H 
ATOM     32  H10 MOL d          22.503   5.730  13.274  0.00  0.00     0.033 H 
ATOM     33  H11 MOL d          21.780   4.622  14.487  0.00  0.00     0.033 H 
ENDBRANCH  13  30
BRANCH   1  34
ATOM     34  O1  MOL d          23.240   7.864   9.955  0.00  0.00    -0.361 OA
ATOM     35  H1  MOL d          22.446   8.079   9.480  0.00  0.00     0.217 HD
ENDBRANCH   1  34
TORSDOF 3
ENDMDL
MODEL 8
REMARK VINA RESULT:      -8.3      1.098      1.282
REMARK  3 active torsions:
REMARK  status: ('A' for Active; 'I' for Inactive)
REMARK    1  A    between atoms: C1_1  and  O1_2 
REMARK    2  A    between atoms: C10_11  and  C11_12 
REMARK    3  A    between atoms: C14_15  and  C15_16 
ROOT
ATOM      1  C1  MOL d          23.218   8.919  11.335  0.00  0.00     0.066 A 
ATOM      2  C2  MOL d          23.230   7.739  10.585  0.00  0.00    -0.049 A 
ATOM      3  C3  MOL d          23.109   6.494  11.205  0.00  0.00    -0.054 A 
ATOM      4  C4  MOL d          22.975   6.441  12.590  0.00  0.00     0.044 A 
ATOM      5  C5  MOL d          22.965   7.618  13.317  0.00  0.00     0.006 A 
ATOM      6  C6  MOL d          23.083   8.872  12.723  0.00  0.00    -0.038 A 
ATOM      7  N7  MOL d          22.838   5.426  13.503  0.00  0.00    -0.354 N 
ATOM      8  C8  MOL d          22.736   5.885  14.795  0.00  0.00     0.051 A 
ATOM      9  C9  MOL d          22.812   7.264  14.733  0.00  0.00     0.011 A 
ATOM     10  C10 MOL d          22.582   5.265  16.031  0.00  0.00    -0.023 A 
ATOM     11  C12 MOL d          22.511   6.051  17.190  0.00  0.00    -0.011 A 
ATOM     12  C13 MOL d          22.591   7.459  17.119  0.00  0.00     0.036 A 
ATOM     13  C14 MOL d          22.744   8.085  15.864  0.00  0.00    -0.033 A 
ATOM     14  C16 MOL d          22.362   5.436  18.436  0.00  0.00    -0.057 A 
ATOM     15  C17 MOL d          22.291   6.212  19.591  0.00  0.00    -0.020 A 
ATOM     16  N18 MOL d          22.366   7.552  19.507  0.00  0.00    -0.344 N 
ATOM     17  C19 MOL d          22.513   8.184  18.326  0.00  0.00     0.190 A 
ATOM     18  O19 MOL d          22.577   9.546  18.341  0.00  0.00    -0.171 OA
ATOM     19  H2  MOL d          23.335   7.792   9.507  0.00  0.00     0.087 H 
ATOM     20  H3  MOL d          23.120   5.583  10.617  0.00  0.00     0.087 H 
ATOM     21  H4  MOL d          23.069   9.779  13.317  0.00  0.00     0.089 H 
ATOM     22  H5  MOL d          22.814   4.429  13.248  0.00  0.00     0.166 HD
ATOM     23  H12 MOL d          22.302   4.351  18.505  0.00  0.00     0.086 H 
ATOM     24  H13 MOL d          22.175   5.733  20.562  0.00  0.00     0.111 H 
ATOM     25  H14 MOL d          22.311   8.095  20.345  0.00  0.00     0.167 HD
ENDROOT
BRANCH  10  26
ATOM     26  C11 MOL d          22.501   3.756  16.096  0.00  0.00    -0.048 C 
ATOM     27  H6  MOL d          23.065   3.397  16.969  0.00  0.00     0.033 H 
ATOM     28  H7  MOL d          22.930   3.326  15.179  0.00  0.00     0.033 H 
ATOM     29  H8  MOL d          21.449   3.449  16.188  0.00  0.00     0.033 H 
ENDBRANCH  10  26
BRANCH  13  30
ATOM     30  C15 MOL d          22.840   9.589  15.716  0.00  0.00    -0.049 C 
ATOM     31  H9  MOL d          23.341  10.015  16.598  0.00  0.00     0.033 H 
ATOM     32  H10 MOL d          21.829  10.014  15.629  0.00  0.00     0.033 H 
ATOM     33  H11 MOL d          23.419   9.833  14.813  0.00  0.00     0.033 H 
ENDBRANCH  13  30
BRANCH   1  34
ATOM     34  O1  MOL d          23.336  10.123  10.703  0.00  0.00    -0.361 OA
ATOM     35  H1  MOL d          24.234  10.242  10.418  0.00  0.00     0.217 HD
ENDBRANCH   1  34
TORSDOF 3
ENDMDL
