MODEL 1
REMARK VINA RESULT:      -9.0      0.000      0.000
REMARK  2 active torsions:
REMARK  status: ('A' for Active; 'I' for Inactive)
REMARK    1  A    between atoms: C3_3  and  O3_20 
REMARK    2  A    between atoms: C5_5  and  O4_21 
ROOT
ATOM      1  C1  M1S d          55.474  75.866  -5.735  0.00  0.00     0.296 C 
ATOM      2  C2  M1S d          55.543  76.634  -4.447  0.00  0.00     0.081 A 
ATOM      3  C3  M1S d          54.642  77.696  -4.256  0.00  0.00     0.085 A 
ATOM      4  C4  M1S d          54.667  78.479  -3.110  0.00  0.00    -0.016 A 
ATOM      5  C5  M1S d          55.637  78.174  -2.152  0.00  0.00     0.090 A 
ATOM      6  C6  M1S d          56.495  77.130  -2.361  0.00  0.00     0.075 A 
ATOM      7  C7  M1S d          56.506  76.327  -3.490  0.00  0.00    -0.008 A 
ATOM      8  C8  M1S d          57.514  75.176  -3.621  0.00  0.00     0.017 C 
ATOM      9  C9  M1S d          58.796  75.521  -4.319  0.00  0.00     0.131 C 
ATOM     10  C10 M1S d          59.262  76.941  -4.479  0.00  0.00    -0.009 C 
ATOM     11  C11 M1S d          60.606  76.991  -5.215  0.00  0.00    -0.059 C 
ATOM     12  C12 M1S d          61.030  78.420  -5.514  0.00  0.00    -0.064 C 
ATOM     13  C13 M1S d          60.056  79.143  -6.443  0.00  0.00    -0.062 C 
ATOM     14  C14 M1S d          60.044  78.504  -7.830  0.00  0.00    -0.050 C 
ATOM     15  C15 M1S d          58.701  77.858  -8.088  0.00  0.00    -0.106 C 
ATOM     16  C16 M1S d          58.621  76.549  -8.319  0.00  0.00    -0.105 C 
ATOM     17  C17 M1S d          57.283  75.900  -8.593  0.00  0.00    -0.030 C 
ATOM     18  C18 M1S d          56.818  74.910  -7.531  0.00  0.00     0.032 C 
ATOM     19  O2  M1S d          54.459  75.569  -6.327  0.00  0.00    -0.259 OA
ATOM     20 CL1  M1S d          57.636  76.760  -1.059  0.00  0.00    -0.081 Cl
ATOM     21  O5  M1S d          59.466  74.561  -4.710  0.00  0.00    -0.298 OA
ATOM     22  O1  M1S d          56.758  75.607  -6.259  0.00  0.00    -0.317 OA
ATOM     23  H1  M1S d          53.964  79.291  -2.965  0.00  0.00     0.092 H 
ATOM     24  H2  M1S d          57.030  74.363  -4.182  0.00  0.00     0.051 H 
ATOM     25  H3  M1S d          57.762  74.825  -2.609  0.00  0.00     0.051 H 
ATOM     26  H4  M1S d          59.378  77.396  -3.484  0.00  0.00     0.044 H 
ATOM     27  H5  M1S d          58.514  77.504  -5.055  0.00  0.00     0.044 H 
ATOM     28  H6  M1S d          60.515  76.439  -6.163  0.00  0.00     0.033 H 
ATOM     29  H7  M1S d          61.374  76.515  -4.587  0.00  0.00     0.033 H 
ATOM     30  H8  M1S d          62.021  78.400  -5.991  0.00  0.00     0.033 H 
ATOM     31  H9  M1S d          61.090  78.975  -4.566  0.00  0.00     0.033 H 
ATOM     32  H10 M1S d          60.361  80.196  -6.535  0.00  0.00     0.033 H 
ATOM     33  H11 M1S d          59.044  79.092  -6.014  0.00  0.00     0.033 H 
ATOM     34  H12 M1S d          60.833  77.739  -7.885  0.00  0.00     0.038 H 
ATOM     35  H13 M1S d          60.230  79.277  -8.589  0.00  0.00     0.038 H 
ATOM     36  H14 M1S d          57.798  78.465  -8.086  0.00  0.00     0.076 H 
ATOM     37  H15 M1S d          59.524  75.942  -8.309  0.00  0.00     0.076 H 
ATOM     38  H16 M1S d          57.354  75.364  -9.551  0.00  0.00     0.042 H 
ATOM     39  H17 M1S d          56.528  76.696  -8.672  0.00  0.00     0.042 H 
ATOM     40  H18 M1S d          57.530  74.074  -7.464  0.00  0.00     0.075 H 
ATOM     41  H19 M1S d          55.822  74.523  -7.791  0.00  0.00     0.075 H 
ENDROOT
BRANCH   3  42
ATOM     42  O3  M1S d          53.671  77.965  -5.205  0.00  0.00    -0.360 OA
ATOM     43  H20 M1S d          53.905  77.547  -6.025  0.00  0.00     0.217 HD
ENDBRANCH   3  42
BRANCH   5  44
ATOM     44  O4  M1S d          55.744  78.942  -1.019  0.00  0.00    -0.359 OA
ATOM     45  H21 M1S d          56.420  79.597  -1.144  0.00  0.00     0.217 HD
ENDBRANCH   5  44
TORSDOF 2
ENDMDL
MODEL 2
REMARK VINA RESULT:      -7.1      1.408      1.836
REMARK  2 active torsions:
REMARK  status: ('A' for Active; 'I' for Inactive)
REMARK    1  A    between atoms: C3_3  and  O3_20 
REMARK    2  A    between atoms: C5_5  and  O4_21 
ROOT
ATOM      1  C1  M1S d          57.100  74.588  -6.614  0.00  0.00     0.296 C 
ATOM      2  C2  M1S d          56.415  75.371  -5.533  0.00  0.00     0.081 A 
ATOM      3  C3  M1S d          55.212  76.028  -5.847  0.00  0.00     0.085 A 
ATOM      4  C4  M1S d          54.537  76.804  -4.914  0.00  0.00    -0.016 A 
ATOM      5  C5  M1S d          55.111  76.915  -3.645  0.00  0.00     0.090 A 
ATOM      6  C6  M1S d          56.277  76.259  -3.365  0.00  0.00     0.075 A 
ATOM      7  C7  M1S d          56.983  75.479  -4.267  0.00  0.00    -0.008 A 
ATOM      8  C8  M1S d          58.284  74.781  -3.846  0.00  0.00     0.017 C 
ATOM      9  C9  M1S d          59.543  75.553  -4.112  0.00  0.00     0.131 C 
ATOM     10  C10 M1S d          59.535  77.038  -4.343  0.00  0.00    -0.009 C 
ATOM     11  C11 M1S d          60.959  77.558  -4.573  0.00  0.00    -0.059 C 
ATOM     12  C12 M1S d          60.965  79.031  -4.950  0.00  0.00    -0.064 C 
ATOM     13  C13 M1S d          60.237  79.307  -6.266  0.00  0.00    -0.062 C 
ATOM     14  C14 M1S d          60.968  78.661  -7.441  0.00  0.00    -0.050 C 
ATOM     15  C15 M1S d          60.122  77.553  -8.028  0.00  0.00    -0.106 C 
ATOM     16  C16 M1S d          60.574  76.301  -8.043  0.00  0.00    -0.105 C 
ATOM     17  C17 M1S d          59.739  75.192  -8.643  0.00  0.00    -0.030 C 
ATOM     18  C18 M1S d          59.262  74.138  -7.649  0.00  0.00     0.032 C 
ATOM     19  O2  M1S d          56.548  73.914  -7.457  0.00  0.00    -0.259 OA
ATOM     20 CL1  M1S d          56.888  76.385  -1.709  0.00  0.00    -0.081 Cl
ATOM     21  O5  M1S d          60.587  74.898  -4.078  0.00  0.00    -0.298 OA
ATOM     22  O1  M1S d          58.494  74.807  -6.615  0.00  0.00    -0.317 OA
ATOM     23  H1  M1S d          53.606  77.301  -5.160  0.00  0.00     0.092 H 
ATOM     24  H2  M1S d          58.350  73.827  -4.390  0.00  0.00     0.051 H 
ATOM     25  H3  M1S d          58.229  74.583  -2.765  0.00  0.00     0.051 H 
ATOM     26  H4  M1S d          59.105  77.538  -3.463  0.00  0.00     0.044 H 
ATOM     27  H5  M1S d          58.922  77.262  -5.228  0.00  0.00     0.044 H 
ATOM     28  H6  M1S d          61.424  76.980  -5.386  0.00  0.00     0.033 H 
ATOM     29  H7  M1S d          61.540  77.424  -3.649  0.00  0.00     0.033 H 
ATOM     30  H8  M1S d          62.008  79.364  -5.049  0.00  0.00     0.033 H 
ATOM     31  H9  M1S d          60.471  79.602  -4.149  0.00  0.00     0.033 H 
ATOM     32  H10 M1S d          60.187  80.395  -6.427  0.00  0.00     0.033 H 
ATOM     33  H11 M1S d          59.218  78.898  -6.207  0.00  0.00     0.033 H 
ATOM     34  H12 M1S d          61.923  78.243  -7.091  0.00  0.00     0.038 H 
ATOM     35  H13 M1S d          61.161  79.421  -8.213  0.00  0.00     0.038 H 
ATOM     36  H14 M1S d          59.140  77.781  -8.439  0.00  0.00     0.076 H 
ATOM     37  H15 M1S d          61.551  76.074  -7.621  0.00  0.00     0.076 H 
ATOM     38  H16 M1S d          60.343  74.688  -9.412  0.00  0.00     0.042 H 
ATOM     39  H17 M1S d          58.854  75.647  -9.111  0.00  0.00     0.042 H 
ATOM     40  H18 M1S d          60.128  73.630  -7.201  0.00  0.00     0.075 H 
ATOM     41  H19 M1S d          58.629  73.400  -8.164  0.00  0.00     0.075 H 
ENDROOT
BRANCH   3  42
ATOM     42  O3  M1S d          54.646  75.884  -7.102  0.00  0.00    -0.360 OA
ATOM     43  H20 M1S d          54.814  76.665  -7.616  0.00  0.00     0.217 HD
ENDBRANCH   3  42
BRANCH   5  44
ATOM     44  O4  M1S d          54.516  77.707  -2.694  0.00  0.00    -0.359 OA
ATOM     45  H21 M1S d          54.988  78.529  -2.628  0.00  0.00     0.217 HD
ENDBRANCH   5  44
TORSDOF 2
ENDMDL
MODEL 3
REMARK VINA RESULT:      -6.9      2.494      5.255
REMARK  2 active torsions:
REMARK  status: ('A' for Active; 'I' for Inactive)
REMARK    1  A    between atoms: C3_3  and  O3_20 
REMARK    2  A    between atoms: C5_5  and  O4_21 
ROOT
ATOM      1  C1  M1S d          55.507  77.110  -5.516  0.00  0.00     0.296 C 
ATOM      2  C2  M1S d          56.176  76.307  -6.593  0.00  0.00     0.081 A 
ATOM      3  C3  M1S d          55.594  75.084  -6.969  0.00  0.00     0.085 A 
ATOM      4  C4  M1S d          56.172  74.264  -7.929  0.00  0.00    -0.016 A 
ATOM      5  C5  M1S d          57.369  74.701  -8.503  0.00  0.00     0.090 A 
ATOM      6  C6  M1S d          57.908  75.899  -8.123  0.00  0.00     0.075 A 
ATOM      7  C7  M1S d          57.366  76.744  -7.167  0.00  0.00    -0.008 A 
ATOM      8  C8  M1S d          58.053  78.072  -6.818  0.00  0.00     0.017 C 
ATOM      9  C9  M1S d          59.017  78.013  -5.669  0.00  0.00     0.131 C 
ATOM     10  C10 M1S d          59.609  76.719  -5.188  0.00  0.00    -0.009 C 
ATOM     11  C11 M1S d          60.568  76.964  -4.017  0.00  0.00    -0.059 C 
ATOM     12  C12 M1S d          61.070  75.659  -3.420  0.00  0.00    -0.064 C 
ATOM     13  C13 M1S d          59.947  74.809  -2.827  0.00  0.00    -0.062 C 
ATOM     14  C14 M1S d          59.314  75.503  -1.622  0.00  0.00    -0.050 C 
ATOM     15  C15 M1S d          57.887  75.892  -1.942  0.00  0.00    -0.106 C 
ATOM     16  C16 M1S d          57.519  77.170  -1.911  0.00  0.00    -0.105 C 
ATOM     17  C17 M1S d          56.091  77.564  -2.215  0.00  0.00    -0.030 C 
ATOM     18  C18 M1S d          55.908  78.394  -3.482  0.00  0.00     0.032 C 
ATOM     19  O2  M1S d          54.311  77.236  -5.368  0.00  0.00    -0.259 OA
ATOM     20 CL1  M1S d          59.379  76.415  -8.960  0.00  0.00    -0.081 Cl
ATOM     21  O5  M1S d          59.329  79.102  -5.180  0.00  0.00    -0.298 OA
ATOM     22  O1  M1S d          56.442  77.635  -4.599  0.00  0.00    -0.317 OA
ATOM     23  H1  M1S d          55.714  73.326  -8.222  0.00  0.00     0.092 H 
ATOM     24  H2  M1S d          57.272  78.804  -6.568  0.00  0.00     0.051 H 
ATOM     25  H3  M1S d          58.604  78.413  -7.707  0.00  0.00     0.051 H 
ATOM     26  H4  M1S d          60.161  76.246  -6.014  0.00  0.00     0.044 H 
ATOM     27  H5  M1S d          58.799  76.052  -4.859  0.00  0.00     0.044 H 
ATOM     28  H6  M1S d          60.040  77.534  -3.237  0.00  0.00     0.033 H 
ATOM     29  H7  M1S d          61.429  77.546  -4.377  0.00  0.00     0.033 H 
ATOM     30  H8  M1S d          61.792  75.892  -2.624  0.00  0.00     0.033 H 
ATOM     31  H9  M1S d          61.569  75.079  -4.211  0.00  0.00     0.033 H 
ATOM     32  H10 M1S d          60.359  73.840  -2.508  0.00  0.00     0.033 H 
ATOM     33  H11 M1S d          59.175  74.645  -3.594  0.00  0.00     0.033 H 
ATOM     34  H12 M1S d          59.891  76.406  -1.376  0.00  0.00     0.038 H 
ATOM     35  H13 M1S d          59.321  74.817  -0.761  0.00  0.00     0.038 H 
ATOM     36  H14 M1S d          57.160  75.124  -2.198  0.00  0.00     0.076 H 
ATOM     37  H15 M1S d          58.251  77.938  -1.666  0.00  0.00     0.076 H 
ATOM     38  H16 M1S d          55.711  78.151  -1.365  0.00  0.00     0.042 H 
ATOM     39  H17 M1S d          55.499  76.644  -2.320  0.00  0.00     0.042 H 
ATOM     40  H18 M1S d          56.450  79.346  -3.385  0.00  0.00     0.075 H 
ATOM     41  H19 M1S d          54.839  78.595  -3.645  0.00  0.00     0.075 H 
ENDROOT
BRANCH   3  42
ATOM     42  O3  M1S d          54.394  74.681  -6.409  0.00  0.00    -0.360 OA
ATOM     43  H20 M1S d          53.834  75.438  -6.285  0.00  0.00     0.217 HD
ENDBRANCH   3  42
BRANCH   5  44
ATOM     44  O4  M1S d          58.014  73.912  -9.423  0.00  0.00    -0.359 OA
ATOM     45  H21 M1S d          57.375  73.396  -9.900  0.00  0.00     0.217 HD
ENDBRANCH   5  44
TORSDOF 2
ENDMDL
MODEL 4
REMARK VINA RESULT:      -6.9      2.671      6.081
REMARK  2 active torsions:
REMARK  status: ('A' for Active; 'I' for Inactive)
REMARK    1  A    between atoms: C3_3  and  O3_20 
REMARK    2  A    between atoms: C5_5  and  O4_21 
ROOT
ATOM      1  C1  M1S d          60.344  76.920  -3.340  0.00  0.00     0.296 C 
ATOM      2  C2  M1S d          60.446  77.439  -4.745  0.00  0.00     0.081 A 
ATOM      3  C3  M1S d          61.013  78.710  -4.944  0.00  0.00     0.085 A 
ATOM      4  C4  M1S d          61.109  79.277  -6.207  0.00  0.00    -0.016 A 
ATOM      5  C5  M1S d          60.607  78.534  -7.279  0.00  0.00     0.090 A 
ATOM      6  C6  M1S d          60.069  77.296  -7.056  0.00  0.00     0.075 A 
ATOM      7  C7  M1S d          59.951  76.696  -5.812  0.00  0.00    -0.008 A 
ATOM      8  C8  M1S d          59.332  75.298  -5.675  0.00  0.00     0.017 C 
ATOM      9  C9  M1S d          57.857  75.272  -5.404  0.00  0.00     0.131 C 
ATOM     10  C10 M1S d          56.972  76.453  -5.685  0.00  0.00    -0.009 C 
ATOM     11  C11 M1S d          55.515  76.137  -5.328  0.00  0.00    -0.059 C 
ATOM     12  C12 M1S d          54.624  77.361  -5.468  0.00  0.00    -0.064 C 
ATOM     13  C13 M1S d          55.017  78.491  -4.518  0.00  0.00    -0.062 C 
ATOM     14  C14 M1S d          54.794  78.084  -3.063  0.00  0.00    -0.050 C 
ATOM     15  C15 M1S d          56.123  77.978  -2.348  0.00  0.00    -0.106 C 
ATOM     16  C16 M1S d          56.507  76.820  -1.818  0.00  0.00    -0.105 C 
ATOM     17  C17 M1S d          57.827  76.711  -1.088  0.00  0.00    -0.030 C 
ATOM     18  C18 M1S d          58.859  75.808  -1.757  0.00  0.00     0.032 C 
ATOM     19  O2  M1S d          61.172  77.070  -2.469  0.00  0.00    -0.259 OA
ATOM     20 CL1  M1S d          59.535  76.388  -8.478  0.00  0.00    -0.081 Cl
ATOM     21  O5  M1S d          57.411  74.201  -4.983  0.00  0.00    -0.298 OA
ATOM     22  O1  M1S d          59.095  76.308  -3.099  0.00  0.00    -0.317 OA
ATOM     23  H1  M1S d          61.554  80.254  -6.357  0.00  0.00     0.092 H 
ATOM     24  H2  M1S d          59.838  74.782  -4.846  0.00  0.00     0.051 H 
ATOM     25  H3  M1S d          59.516  74.752  -6.612  0.00  0.00     0.051 H 
ATOM     26  H4  M1S d          57.035  76.705  -6.754  0.00  0.00     0.044 H 
ATOM     27  H5  M1S d          57.313  77.310  -5.087  0.00  0.00     0.044 H 
ATOM     28  H6  M1S d          55.472  75.782  -4.287  0.00  0.00     0.033 H 
ATOM     29  H7  M1S d          55.146  75.348  -6.000  0.00  0.00     0.033 H 
ATOM     30  H8  M1S d          53.586  77.066  -5.254  0.00  0.00     0.033 H 
ATOM     31  H9  M1S d          54.694  77.730  -6.502  0.00  0.00     0.033 H 
ATOM     32  H10 M1S d          54.405  79.378  -4.742  0.00  0.00     0.033 H 
ATOM     33  H11 M1S d          56.080  78.733  -4.666  0.00  0.00     0.033 H 
ATOM     34  H12 M1S d          54.284  77.110  -3.030  0.00  0.00     0.038 H 
ATOM     35  H13 M1S d          54.170  78.841  -2.564  0.00  0.00     0.038 H 
ATOM     36  H14 M1S d          56.767  78.852  -2.267  0.00  0.00     0.076 H 
ATOM     37  H15 M1S d          55.867  75.944  -1.910  0.00  0.00     0.076 H 
ATOM     38  H16 M1S d          57.629  76.316  -0.081  0.00  0.00     0.042 H 
ATOM     39  H17 M1S d          58.257  77.720  -1.009  0.00  0.00     0.042 H 
ATOM     40  H18 M1S d          58.477  74.778  -1.804  0.00  0.00     0.075 H 
ATOM     41  H19 M1S d          59.797  75.825  -1.182  0.00  0.00     0.075 H 
ENDROOT
BRANCH   3  42
ATOM     42  O3  M1S d          61.529  79.419  -3.874  0.00  0.00    -0.360 OA
ATOM     43  H20 M1S d          62.114  80.095  -4.195  0.00  0.00     0.217 HD
ENDBRANCH   3  42
BRANCH   5  44
ATOM     44  O4  M1S d          60.629  79.061  -8.547  0.00  0.00    -0.359 OA
ATOM     45  H21 M1S d          61.183  79.833  -8.558  0.00  0.00     0.217 HD
ENDBRANCH   5  44
TORSDOF 2
ENDMDL
