REMARK  1 active torsions:
REMARK  status: ('A' for Active; 'I' for Inactive)
REMARK    1  A    between atoms: CAI_24  and  OAJ_25 
ROOT
ATOM      1  CAV SY9 d         -42.944   7.457 -16.929  0.00  0.00     0.118 C 
ATOM      2  CAU SY9 d         -41.990   7.199 -18.101  0.00  0.00    -0.030 C 
ATOM      3  CAT SY9 d         -40.714   6.544 -17.594  0.00  0.00    -0.021 C 
ATOM      4  CAN SY9 d         -41.062   5.165 -17.030  0.00  0.00    -0.001 C 
ATOM      5  CAK SY9 d         -42.057   5.240 -15.877  0.00  0.00     0.034 C 
ATOM      6  NAH SY9 d         -42.700   3.917 -15.841  0.00  0.00    -0.347 N 
ATOM      7  CAA SY9 d         -44.065   3.993 -16.104  0.00  0.00     0.040 A 
ATOM      8  CAF SY9 d         -44.977   2.956 -16.308  0.00  0.00    -0.057 A 
ATOM      9  CAE SY9 d         -46.292   3.231 -16.646  0.00  0.00    -0.081 A 
ATOM     10  CAD SY9 d         -46.678   4.554 -16.820  0.00  0.00    -0.082 A 
ATOM     11  CAC SY9 d         -45.762   5.590 -16.650  0.00  0.00    -0.074 A 
ATOM     12  CAB SY9 d         -44.439   5.316 -16.336  0.00  0.00    -0.019 A 
ATOM     13  CAG SY9 d         -43.232   6.225 -16.028  0.00  0.00     0.040 C 
ATOM     14  CAW SY9 d         -43.547   6.879 -14.684  0.00  0.00    -0.027 C 
ATOM     15  CAX SY9 d         -42.418   7.898 -14.616  0.00  0.00     0.085 C 
ATOM     16  NAY SY9 d         -42.347   8.464 -15.991  0.00  0.00    -0.062 N 
ATOM     17  CAS SY9 d         -40.924   8.759 -16.242  0.00  0.00     0.104 C 
ATOM     18  CAR SY9 d         -40.191   7.452 -16.521  0.00  0.00    -0.051 C 
ATOM     19  CAQ SY9 d         -39.095   7.217 -15.709  0.00  0.00    -0.076 C 
ATOM     20  CAP SY9 d         -38.345   6.051 -15.831  0.00  0.00     0.035 C 
ATOM     21  OAO SY9 d         -38.996   4.782 -15.580  0.00  0.00    -0.382 OA
ATOM     22  CAM SY9 d         -39.869   4.282 -16.590  0.00  0.00     0.049 C 
ATOM     23  CAL SY9 d         -40.349   2.987 -15.844  0.00  0.00     0.000 C 
ATOM     24  CAI SY9 d         -41.868   2.807 -15.908  0.00  0.00     0.105 C 
ATOM     25  H1  SY9 d         -43.892   7.835 -17.339  0.00  0.00     0.086 H 
ATOM     26  H2  SY9 d         -41.742   8.154 -18.587  0.00  0.00     0.037 H 
ATOM     27  H3  SY9 d         -42.477   6.534 -18.829  0.00  0.00     0.037 H 
ATOM     28  H4  SY9 d         -39.976   6.441 -18.403  0.00  0.00     0.048 H 
ATOM     29  H5  SY9 d         -41.558   4.627 -17.851  0.00  0.00     0.048 H 
ATOM     30  H6  SY9 d         -41.515   5.458 -14.945  0.00  0.00     0.075 H 
ATOM     31  H7  SY9 d         -44.654   1.927 -16.201  0.00  0.00     0.086 H 
ATOM     32  H8  SY9 d         -47.008   2.427 -16.773  0.00  0.00     0.083 H 
ATOM     33  H9  SY9 d         -47.702   4.783 -17.091  0.00  0.00     0.083 H 
ATOM     34  H10 SY9 d         -46.086   6.618 -16.764  0.00  0.00     0.084 H 
ATOM     35  H11 SY9 d         -43.495   6.157 -13.856  0.00  0.00     0.037 H 
ATOM     36  H12 SY9 d         -44.535   7.363 -14.687  0.00  0.00     0.037 H 
ATOM     37  H13 SY9 d         -41.469   7.411 -14.346  0.00  0.00     0.076 H 
ATOM     38  H14 SY9 d         -42.648   8.685 -13.883  0.00  0.00     0.076 H 
ATOM     39  H15 SY9 d         -42.878   9.319 -16.049  0.00  0.00     0.280 HD
ATOM     40  H16 SY9 d         -40.486   9.246 -15.358  0.00  0.00     0.083 H 
ATOM     41  H17 SY9 d         -40.833   9.426 -17.112  0.00  0.00     0.083 H 
ATOM     42  H18 SY9 d         -38.815   7.958 -14.961  0.00  0.00     0.080 H 
ATOM     43  H19 SY9 d         -37.505   6.130 -15.126  0.00  0.00     0.080 H 
ATOM     44  H20 SY9 d         -37.958   6.020 -16.860  0.00  0.00     0.080 H 
ATOM     45  H21 SY9 d         -39.293   4.033 -17.494  0.00  0.00     0.084 H 
ATOM     46  H22 SY9 d         -40.045   3.054 -14.789  0.00  0.00     0.043 H 
ATOM     47  H23 SY9 d         -39.870   2.113 -16.309  0.00  0.00     0.043 H 
ATOM     48  H24 SY9 d         -41.851   2.843 -17.007  0.00  0.00     0.117 H 
ENDROOT
BRANCH  24  49
ATOM     49  OAJ SY9 d         -42.432   1.568 -15.921  0.00  0.00    -0.377 OA
ATOM     50  H25 SY9 d         -41.748   0.910 -15.969  0.00  0.00     0.212 HD
ENDBRANCH  24  49
TORSDOF 1
