MODEL 1
REMARK VINA RESULT:     -11.2      0.000      0.000
REMARK  1 active torsions:
REMARK  status: ('A' for Active; 'I' for Inactive)
REMARK    1  A    between atoms: CAI_24  and  OAJ_25 
ROOT
ATOM      1  CAV SY9 d         -42.624   7.219 -16.997  0.00  0.00     0.118 C 
ATOM      2  CAU SY9 d         -41.720   6.826 -18.171  0.00  0.00    -0.030 C 
ATOM      3  CAT SY9 d         -40.533   6.021 -17.662  0.00  0.00    -0.021 C 
ATOM      4  CAN SY9 d         -41.048   4.706 -17.075  0.00  0.00    -0.001 C 
ATOM      5  CAK SY9 d         -42.016   4.923 -15.917  0.00  0.00     0.034 C 
ATOM      6  NAH SY9 d         -42.821   3.692 -15.857  0.00  0.00    -0.347 N 
ATOM      7  CAA SY9 d         -44.168   3.937 -16.112  0.00  0.00     0.040 A 
ATOM      8  CAF SY9 d         -45.206   3.021 -16.295  0.00  0.00    -0.057 A 
ATOM      9  CAE SY9 d         -46.478   3.456 -16.629  0.00  0.00    -0.081 A 
ATOM     10  CAD SY9 d         -46.695   4.815 -16.820  0.00  0.00    -0.082 A 
ATOM     11  CAC SY9 d         -45.653   5.729 -16.672  0.00  0.00    -0.074 A 
ATOM     12  CAB SY9 d         -44.373   5.293 -16.362  0.00  0.00    -0.019 A 
ATOM     13  CAG SY9 d         -43.058   6.046 -16.076  0.00  0.00     0.040 C 
ATOM     14  CAW SY9 d         -43.277   6.754 -14.740  0.00  0.00    -0.027 C 
ATOM     15  CAX SY9 d         -42.027   7.622 -14.694  0.00  0.00     0.085 C 
ATOM     16  NAY SY9 d         -41.896   8.155 -16.078  0.00  0.00    -0.062 N 
ATOM     17  CAS SY9 d         -40.450   8.264 -16.343  0.00  0.00     0.104 C 
ATOM     18  CAR SY9 d         -39.890   6.871 -16.607  0.00  0.00    -0.051 C 
ATOM     19  CAQ SY9 d         -38.826   6.510 -15.798  0.00  0.00    -0.076 C 
ATOM     20  CAP SY9 d         -38.231   5.257 -15.907  0.00  0.00     0.035 C 
ATOM     21  OAO SY9 d         -39.036   4.084 -15.633  0.00  0.00    -0.382 OA
ATOM     22  CAM SY9 d         -39.973   3.685 -16.630  0.00  0.00     0.049 C 
ATOM     23  CAL SY9 d         -40.607   2.472 -15.861  0.00  0.00     0.000 C 
ATOM     24  CAI SY9 d         -42.137   2.485 -15.913  0.00  0.00     0.105 C 
ATOM     25  H1  SY9 d         -43.520   7.708 -17.406  0.00  0.00     0.086 H 
ATOM     26  H2  SY9 d         -41.357   7.734 -18.673  0.00  0.00     0.037 H 
ATOM     27  H3  SY9 d         -42.293   6.217 -18.886  0.00  0.00     0.037 H 
ATOM     28  H4  SY9 d         -39.821   5.814 -18.474  0.00  0.00     0.048 H 
ATOM     29  H5  SY9 d         -41.615   4.223 -17.885  0.00  0.00     0.048 H 
ATOM     30  H6  SY9 d         -41.443   5.083 -14.992  0.00  0.00     0.075 H 
ATOM     31  H7  SY9 d         -45.015   1.961 -16.174  0.00  0.00     0.086 H 
ATOM     32  H8  SY9 d         -47.291   2.748 -16.739  0.00  0.00     0.083 H 
ATOM     33  H9  SY9 d         -47.684   5.168 -17.088  0.00  0.00     0.083 H 
ATOM     34  H10 SY9 d         -45.845   6.788 -16.799  0.00  0.00     0.084 H 
ATOM     35  H11 SY9 d         -43.310   6.043 -13.901  0.00  0.00     0.037 H 
ATOM     36  H12 SY9 d         -44.195   7.359 -14.743  0.00  0.00     0.037 H 
ATOM     37  H13 SY9 d         -41.145   7.023 -14.423  0.00  0.00     0.076 H 
ATOM     38  H14 SY9 d         -42.149   8.443 -13.972  0.00  0.00     0.076 H 
ATOM     39  H15 SY9 d         -42.315   9.070 -16.146  0.00  0.00     0.280 HD
ATOM     40  H16 SY9 d         -39.946   8.704 -15.469  0.00  0.00     0.083 H 
ATOM     41  H17 SY9 d         -40.282   8.902 -17.223  0.00  0.00     0.083 H 
ATOM     42  H18 SY9 d         -38.449   7.220 -15.063  0.00  0.00     0.080 H 
ATOM     43  H19 SY9 d         -37.382   5.239 -15.209  0.00  0.00     0.080 H 
ATOM     44  H20 SY9 d         -37.860   5.163 -16.938  0.00  0.00     0.080 H 
ATOM     45  H21 SY9 d         -39.441   3.352 -17.534  0.00  0.00     0.084 H 
ATOM     46  H22 SY9 d         -40.288   2.515 -14.809  0.00  0.00     0.043 H 
ATOM     47  H23 SY9 d         -40.247   1.538 -16.316  0.00  0.00     0.043 H 
ATOM     48  H24 SY9 d         -42.125   2.503 -17.012  0.00  0.00     0.117 H 
ENDROOT
BRANCH  24  49
ATOM     49  OAJ SY9 d         -42.854   1.328 -15.903  0.00  0.00    -0.377 OA
ATOM     50  H25 SY9 d         -43.735   1.499 -16.216  0.00  0.00     0.212 HD
ENDBRANCH  24  49
TORSDOF 1
ENDMDL
MODEL 2
REMARK VINA RESULT:     -10.7      1.299      4.827
REMARK  1 active torsions:
REMARK  status: ('A' for Active; 'I' for Inactive)
REMARK    1  A    between atoms: CAI_24  and  OAJ_25 
ROOT
ATOM      1  CAV SY9 d         -41.515   7.275 -16.015  0.00  0.00     0.118 C 
ATOM      2  CAU SY9 d         -42.358   7.146 -14.740  0.00  0.00    -0.030 C 
ATOM      3  CAT SY9 d         -43.498   6.166 -14.971  0.00  0.00    -0.021 C 
ATOM      4  CAN SY9 d         -42.906   4.777 -15.220  0.00  0.00    -0.001 C 
ATOM      5  CAK SY9 d         -41.986   4.743 -16.436  0.00  0.00     0.034 C 
ATOM      6  NAH SY9 d         -41.098   3.592 -16.210  0.00  0.00    -0.347 N 
ATOM      7  CAA SY9 d         -39.766   3.977 -16.086  0.00  0.00     0.040 A 
ATOM      8  CAF SY9 d         -38.661   3.207 -15.718  0.00  0.00    -0.057 A 
ATOM      9  CAE SY9 d         -37.415   3.791 -15.564  0.00  0.00    -0.081 A 
ATOM     10  CAD SY9 d         -37.290   5.163 -15.740  0.00  0.00    -0.082 A 
ATOM     11  CAC SY9 d         -38.397   5.941 -16.075  0.00  0.00    -0.074 A 
ATOM     12  CAB SY9 d         -39.651   5.362 -16.205  0.00  0.00    -0.019 A 
ATOM     13  CAG SY9 d         -41.023   5.931 -16.619  0.00  0.00     0.040 C 
ATOM     14  CAW SY9 d         -40.890   6.277 -18.101  0.00  0.00    -0.027 C 
ATOM     15  CAX SY9 d         -42.199   7.025 -18.315  0.00  0.00     0.085 C 
ATOM     16  NAY SY9 d         -42.331   7.892 -17.112  0.00  0.00    -0.062 N 
ATOM     17  CAS SY9 d         -43.774   7.976 -16.822  0.00  0.00     0.104 C 
ATOM     18  CAR SY9 d         -44.226   6.668 -16.182  0.00  0.00    -0.051 C 
ATOM     19  CAQ SY9 d         -45.283   6.044 -16.822  0.00  0.00    -0.076 C 
ATOM     20  CAP SY9 d         -45.784   4.829 -16.367  0.00  0.00     0.035 C 
ATOM     21  OAO SY9 d         -44.906   3.677 -16.363  0.00  0.00    -0.382 OA
ATOM     22  CAM SY9 d         -43.917   3.611 -15.339  0.00  0.00     0.049 C 
ATOM     23  CAL SY9 d         -43.219   2.280 -15.794  0.00  0.00     0.000 C 
ATOM     24  CAI SY9 d         -41.693   2.401 -15.814  0.00  0.00     0.105 C 
ATOM     25  H1  SY9 d         -40.646   7.908 -15.785  0.00  0.00     0.086 H 
ATOM     26  H2  SY9 d         -42.771   8.131 -14.475  0.00  0.00     0.037 H 
ATOM     27  H3  SY9 d         -41.724   6.783 -13.918  0.00  0.00     0.037 H 
ATOM     28  H4  SY9 d         -44.172   6.134 -14.103  0.00  0.00     0.048 H 
ATOM     29  H5  SY9 d         -42.285   4.558 -14.338  0.00  0.00     0.048 H 
ATOM     30  H6  SY9 d         -42.593   4.621 -17.345  0.00  0.00     0.075 H 
ATOM     31  H7  SY9 d         -38.780   2.142 -15.551  0.00  0.00     0.086 H 
ATOM     32  H8  SY9 d         -36.551   3.188 -15.310  0.00  0.00     0.083 H 
ATOM     33  H9  SY9 d         -36.322   5.634 -15.616  0.00  0.00     0.083 H 
ATOM     34  H10 SY9 d         -38.277   7.006 -16.234  0.00  0.00     0.084 H 
ATOM     35  H11 SY9 d         -40.828   5.375 -18.727  0.00  0.00     0.037 H 
ATOM     36  H12 SY9 d         -40.017   6.918 -18.294  0.00  0.00     0.037 H 
ATOM     37  H13 SY9 d         -43.042   6.322 -18.383  0.00  0.00     0.076 H 
ATOM     38  H14 SY9 d         -42.153   7.634 -19.230  0.00  0.00     0.076 H 
ATOM     39  H15 SY9 d         -41.976   8.816 -17.302  0.00  0.00     0.280 HD
ATOM     40  H16 SY9 d         -44.330   8.141 -17.757  0.00  0.00     0.083 H 
ATOM     41  H17 SY9 d         -43.964   8.810 -16.130  0.00  0.00     0.083 H 
ATOM     42  H18 SY9 d         -45.729   6.513 -17.699  0.00  0.00     0.080 H 
ATOM     43  H19 SY9 d         -46.648   4.577 -16.999  0.00  0.00     0.080 H 
ATOM     44  H20 SY9 d         -46.121   4.984 -15.331  0.00  0.00     0.080 H 
ATOM     45  H21 SY9 d         -44.401   3.493 -14.357  0.00  0.00     0.084 H 
ATOM     46  H22 SY9 d         -43.567   2.027 -16.806  0.00  0.00     0.043 H 
ATOM     47  H23 SY9 d         -43.500   1.477 -15.098  0.00  0.00     0.043 H 
ATOM     48  H24 SY9 d         -41.678   2.705 -14.757  0.00  0.00     0.117 H 
ENDROOT
BRANCH  24  49
ATOM     49  OAJ SY9 d         -40.897   1.328 -15.555  0.00  0.00    -0.377 OA
ATOM     50  H25 SY9 d         -41.264   0.828 -14.835  0.00  0.00     0.212 HD
ENDBRANCH  24  49
TORSDOF 1
ENDMDL
MODEL 3
REMARK VINA RESULT:      -9.4      1.802      3.295
REMARK  1 active torsions:
REMARK  status: ('A' for Active; 'I' for Inactive)
REMARK    1  A    between atoms: CAI_24  and  OAJ_25 
ROOT
ATOM      1  CAV SY9 d         -44.038   6.241 -16.684  0.00  0.00     0.118 C 
ATOM      2  CAU SY9 d         -43.622   6.574 -18.122  0.00  0.00    -0.030 C 
ATOM      3  CAT SY9 d         -42.322   7.365 -18.114  0.00  0.00    -0.021 C 
ATOM      4  CAN SY9 d         -41.211   6.475 -17.554  0.00  0.00    -0.001 C 
ATOM      5  CAK SY9 d         -41.499   6.005 -16.132  0.00  0.00     0.034 C 
ATOM      6  NAH SY9 d         -40.704   4.778 -15.967  0.00  0.00    -0.347 N 
ATOM      7  CAA SY9 d         -41.506   3.661 -15.752  0.00  0.00     0.040 A 
ATOM      8  CAF SY9 d         -41.140   2.315 -15.704  0.00  0.00    -0.057 A 
ATOM      9  CAE SY9 d         -42.101   1.328 -15.565  0.00  0.00    -0.081 A 
ATOM     10  CAD SY9 d         -43.440   1.696 -15.515  0.00  0.00    -0.082 A 
ATOM     11  CAC SY9 d         -43.811   3.037 -15.597  0.00  0.00    -0.074 A 
ATOM     12  CAB SY9 d         -42.852   4.025 -15.762  0.00  0.00    -0.019 A 
ATOM     13  CAG SY9 d         -42.941   5.563 -15.819  0.00  0.00     0.040 C 
ATOM     14  CAW SY9 d         -43.331   6.001 -14.408  0.00  0.00    -0.027 C 
ATOM     15  CAX SY9 d         -43.607   7.478 -14.658  0.00  0.00     0.085 C 
ATOM     16  NAY SY9 d         -44.365   7.501 -15.939  0.00  0.00    -0.062 N 
ATOM     17  CAS SY9 d         -43.963   8.739 -16.632  0.00  0.00     0.104 C 
ATOM     18  CAR SY9 d         -42.572   8.545 -17.222  0.00  0.00    -0.051 C 
ATOM     19  CAQ SY9 d         -41.642   9.496 -16.841  0.00  0.00    -0.076 C 
ATOM     20  CAP SY9 d         -40.323   9.431 -17.280  0.00  0.00     0.035 C 
ATOM     21  OAO SY9 d         -39.527   8.281 -16.906  0.00  0.00    -0.382 OA
ATOM     22  CAM SY9 d         -39.777   7.058 -17.595  0.00  0.00     0.049 C 
ATOM     23  CAL SY9 d         -38.759   6.154 -16.815  0.00  0.00     0.000 C 
ATOM     24  CAI SY9 d         -39.378   4.823 -16.378  0.00  0.00     0.105 C 
ATOM     25  H1  SY9 d         -44.920   5.586 -16.729  0.00  0.00     0.086 H 
ATOM     26  H2  SY9 d         -44.410   7.172 -18.601  0.00  0.00     0.037 H 
ATOM     27  H3  SY9 d         -43.477   5.640 -18.685  0.00  0.00     0.037 H 
ATOM     28  H4  SY9 d         -42.058   7.698 -19.128  0.00  0.00     0.048 H 
ATOM     29  H5  SY9 d         -41.198   5.580 -18.194  0.00  0.00     0.048 H 
ATOM     30  H6  SY9 d         -41.195   6.790 -15.423  0.00  0.00     0.075 H 
ATOM     31  H7  SY9 d         -40.094   2.040 -15.777  0.00  0.00     0.086 H 
ATOM     32  H8  SY9 d         -41.814   0.285 -15.495  0.00  0.00     0.083 H 
ATOM     33  H9  SY9 d         -44.203   0.934 -15.413  0.00  0.00     0.083 H 
ATOM     34  H10 SY9 d         -44.858   3.309 -15.530  0.00  0.00     0.084 H 
ATOM     35  H11 SY9 d         -42.509   5.855 -13.693  0.00  0.00     0.037 H 
ATOM     36  H12 SY9 d         -44.227   5.473 -14.050  0.00  0.00     0.037 H 
ATOM     37  H13 SY9 d         -42.665   8.039 -14.752  0.00  0.00     0.076 H 
ATOM     38  H14 SY9 d         -44.208   7.904 -13.842  0.00  0.00     0.076 H 
ATOM     39  H15 SY9 d         -45.357   7.528 -15.761  0.00  0.00     0.280 HD
ATOM     40  H16 SY9 d         -43.947   9.575 -15.917  0.00  0.00     0.083 H 
ATOM     41  H17 SY9 d         -44.679   8.959 -17.438  0.00  0.00     0.083 H 
ATOM     42  H18 SY9 d         -41.948  10.310 -16.184  0.00  0.00     0.080 H 
ATOM     43  H19 SY9 d         -39.807  10.322 -16.893  0.00  0.00     0.080 H 
ATOM     44  H20 SY9 d         -40.344   9.469 -18.379  0.00  0.00     0.080 H 
ATOM     45  H21 SY9 d         -39.494   7.159 -18.654  0.00  0.00     0.084 H 
ATOM     46  H22 SY9 d         -38.418   6.696 -15.921  0.00  0.00     0.043 H 
ATOM     47  H23 SY9 d         -37.899   5.945 -17.468  0.00  0.00     0.043 H 
ATOM     48  H24 SY9 d         -39.656   4.583 -17.415  0.00  0.00     0.117 H 
ENDROOT
BRANCH  24  49
ATOM     49  OAJ SY9 d         -38.625   3.693 -16.280  0.00  0.00    -0.377 OA
ATOM     50  H25 SY9 d         -39.133   2.948 -16.581  0.00  0.00     0.212 HD
ENDBRANCH  24  49
TORSDOF 1
ENDMDL
MODEL 4
REMARK VINA RESULT:      -8.2      2.243      4.331
REMARK  1 active torsions:
REMARK  status: ('A' for Active; 'I' for Inactive)
REMARK    1  A    between atoms: CAI_24  and  OAJ_25 
ROOT
ATOM      1  CAV SY9 d         -41.154   6.248 -15.806  0.00  0.00     0.118 C 
ATOM      2  CAU SY9 d         -41.822   7.134 -14.748  0.00  0.00    -0.030 C 
ATOM      3  CAT SY9 d         -42.998   7.876 -15.364  0.00  0.00    -0.021 C 
ATOM      4  CAN SY9 d         -44.058   6.855 -15.780  0.00  0.00    -0.001 C 
ATOM      5  CAK SY9 d         -43.533   5.852 -16.802  0.00  0.00     0.034 C 
ATOM      6  NAH SY9 d         -44.404   4.674 -16.663  0.00  0.00    -0.347 N 
ATOM      7  CAA SY9 d         -43.699   3.551 -16.236  0.00  0.00     0.040 A 
ATOM      8  CAF SY9 d         -44.190   2.304 -15.846  0.00  0.00    -0.057 A 
ATOM      9  CAE SY9 d         -43.333   1.328 -15.366  0.00  0.00    -0.081 A 
ATOM     10  CAD SY9 d         -41.982   1.625 -15.239  0.00  0.00    -0.082 A 
ATOM     11  CAC SY9 d         -41.493   2.880 -15.596  0.00  0.00    -0.074 A 
ATOM     12  CAB SY9 d         -42.353   3.867 -16.053  0.00  0.00    -0.019 A 
ATOM     13  CAG SY9 d         -42.113   5.298 -16.574  0.00  0.00     0.040 C 
ATOM     14  CAW SY9 d         -41.393   5.130 -17.911  0.00  0.00    -0.027 C 
ATOM     15  CAX SY9 d         -41.018   6.578 -18.192  0.00  0.00     0.085 C 
ATOM     16  NAY SY9 d         -40.545   7.100 -16.880  0.00  0.00    -0.062 N 
ATOM     17  CAS SY9 d         -40.946   8.518 -16.832  0.00  0.00     0.104 C 
ATOM     18  CAR SY9 d         -42.443   8.598 -16.555  0.00  0.00    -0.051 C 
ATOM     19  CAQ SY9 d         -43.165   9.332 -17.480  0.00  0.00    -0.076 C 
ATOM     20  CAP SY9 d         -44.546   9.469 -17.371  0.00  0.00     0.035 C 
ATOM     21  OAO SY9 d         -45.366   8.278 -17.448  0.00  0.00    -0.382 OA
ATOM     22  CAM SY9 d         -45.397   7.429 -16.303  0.00  0.00     0.049 C 
ATOM     23  CAL SY9 d         -46.322   6.304 -16.889  0.00  0.00     0.000 C 
ATOM     24  CAI SY9 d         -45.773   4.900 -16.622  0.00  0.00     0.105 C 
ATOM     25  H1  SY9 d         -40.376   5.651 -15.308  0.00  0.00     0.086 H 
ATOM     26  H2  SY9 d         -41.091   7.861 -14.366  0.00  0.00     0.037 H 
ATOM     27  H3  SY9 d         -42.180   6.506 -13.919  0.00  0.00     0.037 H 
ATOM     28  H4  SY9 d         -43.430   8.592 -14.649  0.00  0.00     0.048 H 
ATOM     29  H5  SY9 d         -44.300   6.291 -14.867  0.00  0.00     0.048 H 
ATOM     30  H6  SY9 d         -43.596   6.292 -17.807  0.00  0.00     0.075 H 
ATOM     31  H7  SY9 d         -45.252   2.097 -15.920  0.00  0.00     0.086 H 
ATOM     32  H8  SY9 d         -43.710   0.349 -15.093  0.00  0.00     0.083 H 
ATOM     33  H9  SY9 d         -41.301   0.873 -14.858  0.00  0.00     0.083 H 
ATOM     34  H10 SY9 d         -40.432   3.086 -15.515  0.00  0.00     0.084 H 
ATOM     35  H11 SY9 d         -42.059   4.723 -18.686  0.00  0.00     0.037 H 
ATOM     36  H12 SY9 d         -40.504   4.488 -17.818  0.00  0.00     0.037 H 
ATOM     37  H13 SY9 d         -41.892   7.146 -18.544  0.00  0.00     0.076 H 
ATOM     38  H14 SY9 d         -40.218   6.634 -18.944  0.00  0.00     0.076 H 
ATOM     39  H15 SY9 d         -39.541   7.037 -16.817  0.00  0.00     0.280 HD
ATOM     40  H16 SY9 d         -40.723   8.998 -17.796  0.00  0.00     0.083 H 
ATOM     41  H17 SY9 d         -40.395   9.030 -16.030  0.00  0.00     0.083 H 
ATOM     42  H18 SY9 d         -42.643   9.811 -18.308  0.00  0.00     0.080 H 
ATOM     43  H19 SY9 d         -44.870  10.140 -18.180  0.00  0.00     0.080 H 
ATOM     44  H20 SY9 d         -44.750   9.942 -16.399  0.00  0.00     0.080 H 
ATOM     45  H21 SY9 d         -45.883   7.949 -15.463  0.00  0.00     0.084 H 
ATOM     46  H22 SY9 d         -46.409   6.449 -17.976  0.00  0.00     0.043 H 
ATOM     47  H23 SY9 d         -47.317   6.388 -16.428  0.00  0.00     0.043 H 
ATOM     48  H24 SY9 d         -45.745   5.090 -15.540  0.00  0.00     0.117 H 
ENDROOT
BRANCH  24  49
ATOM     49  OAJ SY9 d         -46.606   3.837 -16.451  0.00  0.00    -0.377 OA
ATOM     50  H25 SY9 d         -47.494   4.150 -16.319  0.00  0.00     0.212 HD
ENDBRANCH  24  49
TORSDOF 1
ENDMDL
