MODEL 1
REMARK VINA RESULT:      -5.1      0.000      0.000
REMARK  4 active torsions:
REMARK  status: ('A' for Active; 'I' for Inactive)
REMARK    1  A    between atoms: C1_1  and  P1_8 
REMARK    2  A    between atoms: N1_10  and  C1_1 
REMARK    3  A    between atoms: C2_2  and  C3_3 
REMARK    4  A    between atoms: C2_2  and  N1_10 
ROOT
ATOM      1  N1  GPF d          60.311   8.139  29.279  0.00  0.00    -0.053 N 
ATOM      2  H5  GPF d          61.310   8.267  29.262  0.00  0.00     0.278 HD
ATOM      3  H6  GPF d          60.101   7.159  29.391  0.00  0.00     0.278 HD
ENDROOT
BRANCH   1   4
ATOM      4  C1  GPF d          59.810   8.535  27.992  0.00  0.00     0.183 C 
ATOM      5  H1  GPF d          59.416   7.652  27.468  0.00  0.00     0.097 H 
ATOM      6  H2  GPF d          59.003   9.271  28.127  0.00  0.00     0.097 H 
BRANCH   4   7
ATOM      7  P1  GPF d          61.053   9.231  27.063  0.00  0.00     0.285 P 
ATOM      8  O1  GPF d          62.022   9.958  27.968  0.00  0.00    -0.638 OA
ATOM      9  O2  GPF d          60.309  10.143  26.124  0.00  0.00    -0.638 OA
ATOM     10  O3  GPF d          61.746   8.051  26.370  0.00  0.00    -0.638 OA
ENDBRANCH   4   7
ENDBRANCH   1   4
BRANCH   1  11
ATOM     11  C2  GPF d          59.812   8.822  30.455  0.00  0.00     0.161 C 
ATOM     12  H3  GPF d          59.356   9.777  30.153  0.00  0.00     0.092 H 
ATOM     13  H4  GPF d          59.055   8.193  30.945  0.00  0.00     0.092 H 
BRANCH  11  14
ATOM     14  C3  GPF d          60.896   9.082  31.386  0.00  0.00     0.199 C 
ATOM     15  O4  GPF d          61.633  10.141  31.214  0.00  0.00    -0.647 OA
ATOM     16  O5  GPF d          61.017   8.278  32.272  0.00  0.00    -0.647 OA
ENDBRANCH  11  14
ENDBRANCH   1  11
TORSDOF 4
ENDMDL
MODEL 2
REMARK VINA RESULT:      -4.7      0.114      1.705
REMARK  4 active torsions:
REMARK  status: ('A' for Active; 'I' for Inactive)
REMARK    1  A    between atoms: C1_1  and  P1_8 
REMARK    2  A    between atoms: N1_10  and  C1_1 
REMARK    3  A    between atoms: C2_2  and  C3_3 
REMARK    4  A    between atoms: C2_2  and  N1_10 
ROOT
ATOM      1  N1  GPF d          60.298   8.142  29.336  0.00  0.00    -0.053 N 
ATOM      2  H5  GPF d          61.303   8.205  29.304  0.00  0.00     0.278 HD
ATOM      3  H6  GPF d          60.028   7.203  29.581  0.00  0.00     0.278 HD
ENDROOT
BRANCH   1   4
ATOM      4  C1  GPF d          59.815   8.389  28.005  0.00  0.00     0.183 C 
ATOM      5  H1  GPF d          59.549   7.432  27.533  0.00  0.00     0.097 H 
ATOM      6  H2  GPF d          58.925   9.033  28.055  0.00  0.00     0.097 H 
BRANCH   4   7
ATOM      7  P1  GPF d          61.014   9.159  27.075  0.00  0.00     0.285 P 
ATOM      8  O1  GPF d          60.370  10.144  26.127  0.00  0.00    -0.638 OA
ATOM      9  O2  GPF d          61.694   8.012  26.378  0.00  0.00    -0.638 OA
ATOM     10  O3  GPF d          61.902   9.890  28.091  0.00  0.00    -0.638 OA
ENDBRANCH   4   7
ENDBRANCH   1   4
BRANCH   1  11
ATOM     11  C2  GPF d          59.849   9.010  30.405  0.00  0.00     0.161 C 
ATOM     12  H3  GPF d          59.593   9.996  29.988  0.00  0.00     0.092 H 
ATOM     13  H4  GPF d          58.959   8.571  30.879  0.00  0.00     0.092 H 
BRANCH  11  14
ATOM     14  C3  GPF d          60.895   9.168  31.400  0.00  0.00     0.199 C 
ATOM     15  O4  GPF d          61.021   8.267  32.330  0.00  0.00    -0.647 OA
ATOM     16  O5  GPF d          61.586  10.144  31.270  0.00  0.00    -0.647 OA
ENDBRANCH  11  14
ENDBRANCH   1  11
TORSDOF 4
ENDMDL
MODEL 3
REMARK VINA RESULT:      -2.7      1.691      4.306
REMARK  4 active torsions:
REMARK  status: ('A' for Active; 'I' for Inactive)
REMARK    1  A    between atoms: C1_1  and  P1_8 
REMARK    2  A    between atoms: N1_10  and  C1_1 
REMARK    3  A    between atoms: C2_2  and  C3_3 
REMARK    4  A    between atoms: C2_2  and  N1_10 
ROOT
ATOM      1  N1  GPF d          60.232   7.577  28.611  0.00  0.00    -0.053 N 
ATOM      2  H5  GPF d          60.227   6.588  28.420  0.00  0.00     0.278 HD
ATOM      3  H6  GPF d          61.183   7.909  28.637  0.00  0.00     0.278 HD
ENDROOT
BRANCH   1   4
ATOM      4  C1  GPF d          59.685   7.757  29.927  0.00  0.00     0.183 C 
ATOM      5  H1  GPF d          58.628   8.051  29.844  0.00  0.00     0.097 H 
ATOM      6  H2  GPF d          59.760   6.812  30.485  0.00  0.00     0.097 H 
BRANCH   4   7
ATOM      7  P1  GPF d          60.540   8.969  30.761  0.00  0.00     0.285 P 
ATOM      8  O1  GPF d          61.761   9.372  29.966  0.00  0.00    -0.638 OA
ATOM      9  O2  GPF d          60.868   8.313  32.075  0.00  0.00    -0.638 OA
ATOM     10  O3  GPF d          59.560  10.144  30.877  0.00  0.00    -0.638 OA
ENDBRANCH   4   7
ENDBRANCH   1   4
BRANCH   1  11
ATOM     11  C2  GPF d          59.579   8.233  27.497  0.00  0.00     0.161 C 
ATOM     12  H3  GPF d          59.169   7.470  26.818  0.00  0.00     0.092 H 
ATOM     13  H4  GPF d          58.761   8.864  27.875  0.00  0.00     0.092 H 
BRANCH  11  14
ATOM     14  C3  GPF d          60.527   9.060  26.771  0.00  0.00     0.199 C 
ATOM     15  O4  GPF d          61.721   8.596  26.542  0.00  0.00    -0.647 OA
ATOM     16  O5  GPF d          60.111  10.133  26.422  0.00  0.00    -0.647 OA
ENDBRANCH  11  14
ENDBRANCH   1  11
TORSDOF 4
ENDMDL
MODEL 4
REMARK VINA RESULT:      -2.1      1.658      4.296
REMARK  4 active torsions:
REMARK  status: ('A' for Active; 'I' for Inactive)
REMARK    1  A    between atoms: C1_1  and  P1_8 
REMARK    2  A    between atoms: N1_10  and  C1_1 
REMARK    3  A    between atoms: C2_2  and  C3_3 
REMARK    4  A    between atoms: C2_2  and  N1_10 
ROOT
ATOM      1  N1  GPF d          60.157   7.965  28.853  0.00  0.00    -0.053 N 
ATOM      2  H5  GPF d          60.062   6.973  28.705  0.00  0.00     0.278 HD
ATOM      3  H6  GPF d          61.133   8.216  28.830  0.00  0.00     0.278 HD
ENDROOT
BRANCH   1   4
ATOM      4  C1  GPF d          59.679   8.245  30.179  0.00  0.00     0.183 C 
ATOM      5  H1  GPF d          58.802   8.905  30.117  0.00  0.00     0.097 H 
ATOM      6  H2  GPF d          59.394   7.302  30.668  0.00  0.00     0.097 H 
BRANCH   4   7
ATOM      7  P1  GPF d          60.892   9.008  31.095  0.00  0.00     0.285 P 
ATOM      8  O1  GPF d          60.293  10.144  31.891  0.00  0.00    -0.638 OA
ATOM      9  O2  GPF d          61.876   9.460  30.050  0.00  0.00    -0.638 OA
ATOM     10  O3  GPF d          61.432   7.919  32.033  0.00  0.00    -0.638 OA
ENDBRANCH   4   7
ENDBRANCH   1   4
BRANCH   1  11
ATOM     11  C2  GPF d          59.518   8.628  27.735  0.00  0.00     0.161 C 
ATOM     12  H3  GPF d          58.824   7.928  27.247  0.00  0.00     0.092 H 
ATOM     13  H4  GPF d          58.958   9.501  28.103  0.00  0.00     0.092 H 
BRANCH  11  14
ATOM     14  C3  GPF d          60.512   9.067  26.772  0.00  0.00     0.199 C 
ATOM     15  O4  GPF d          61.635   8.415  26.685  0.00  0.00    -0.647 OA
ATOM     16  O5  GPF d          60.199  10.018  26.106  0.00  0.00    -0.647 OA
ENDBRANCH  11  14
ENDBRANCH   1  11
TORSDOF 4
ENDMDL
