MODEL 1
REMARK VINA RESULT:     -11.7      0.000      0.000
REMARK  3 active torsions:
REMARK  status: ('A' for Active; 'I' for Inactive)
REMARK    1  A    between atoms: C14_16  and  N2_2 
REMARK    2  A    between atoms: C8_10  and  C18_20 
REMARK    3  A    between atoms: C18_20  and  C10_12 
ROOT
ATOM      1  N1  HUX d           5.565  69.775  65.228  0.00  0.00    -0.252 NA
ATOM      2  C1  HUX d           6.213  70.786  68.742  0.00  0.00     0.036 A 
ATOM      3  C2  HUX d           6.399  70.504  67.296  0.00  0.00    -0.033 A 
ATOM      4  C3  HUX d           5.274  70.057  66.631  0.00  0.00     0.071 A 
ATOM      5  C4  HUX d           4.553  69.290  64.478  0.00  0.00     0.044 A 
ATOM      6  C5  HUX d           4.989  68.986  62.943  0.00  0.00    -0.018 C 
ATOM      7  C6  HUX d           4.045  67.982  62.262  0.00  0.00    -0.032 C 
ATOM      8  C7  HUX d           4.065  66.469  62.976  0.00  0.00    -0.096 C 
ATOM      9  C8  HUX d           3.229  66.009  63.910  0.00  0.00    -0.083 C 
ATOM     10  C9  HUX d           2.135  66.955  64.351  0.00  0.00    -0.037 C 
ATOM     11  C11 HUX d           2.226  68.417  63.934  0.00  0.00    -0.020 C 
ATOM     12  C12 HUX d           2.619  68.478  62.394  0.00  0.00    -0.051 C 
ATOM     13  C13 HUX d           3.259  69.023  64.890  0.00  0.00    -0.002 A 
ATOM     14  C14 HUX d           2.964  69.336  66.331  0.00  0.00     0.047 A 
ATOM     15  C15 HUX d           4.014  69.841  67.136  0.00  0.00     0.019 A 
ATOM     16  C16 HUX d           3.782  70.151  68.594  0.00  0.00    -0.067 A 
ATOM     17  C17 HUX d           4.833  70.585  69.313  0.00  0.00    -0.061 A 
ATOM     18 CL1  HUX d           7.450  71.268  69.745  0.00  0.00    -0.084 Cl
ATOM     19  H3  HUX d           7.353  70.638  66.798  0.00  0.00     0.089 H 
ATOM     20  H4  HUX d           6.009  68.573  62.939  0.00  0.00     0.043 H 
ATOM     21  H5  HUX d           4.972  69.929  62.376  0.00  0.00     0.043 H 
ATOM     22  H6  HUX d           4.324  67.892  61.201  0.00  0.00     0.046 H 
ATOM     23  H7  HUX d           4.845  65.785  62.643  0.00  0.00     0.077 H 
ATOM     24  H8  HUX d           2.110  66.932  65.450  0.00  0.00     0.040 H 
ATOM     25  H9  HUX d           1.187  66.563  63.953  0.00  0.00     0.040 H 
ATOM     26  H13 HUX d           1.259  68.923  64.071  0.00  0.00     0.048 H 
ATOM     27  H14 HUX d           1.944  67.836  61.809  0.00  0.00     0.035 H 
ATOM     28  H15 HUX d           2.548  69.514  62.030  0.00  0.00     0.035 H 
ATOM     29  H16 HUX d           2.805  70.027  69.046  0.00  0.00     0.085 H 
ATOM     30  H17 HUX d           4.678  70.804  70.363  0.00  0.00     0.086 H 
ENDROOT
BRANCH   9  31
ATOM     31  C18 HUX d           3.449  64.550  64.471  0.00  0.00    -0.048 C 
ATOM     32  H18 HUX d           2.612  63.941  64.099  0.00  0.00     0.039 H 
ATOM     33  H19 HUX d           3.393  64.623  65.567  0.00  0.00     0.039 H 
BRANCH  31  34
ATOM     34  C10 HUX d           4.743  63.769  64.146  0.00  0.00    -0.073 C 
ATOM     35  H10 HUX d           4.487  62.735  63.868  0.00  0.00     0.028 H 
ATOM     36  H11 HUX d           5.398  63.760  65.030  0.00  0.00     0.028 H 
ATOM     37  H12 HUX d           5.263  64.255  63.308  0.00  0.00     0.028 H 
ENDBRANCH  31  34
ENDBRANCH   9  31
BRANCH  14  38
ATOM     38  N2  HUX d           1.684  69.075  66.783  0.00  0.00    -0.398 N 
ATOM     39  H1  HUX d           0.892  69.637  66.440  0.00  0.00     0.156 HD
ATOM     40  H2  HUX d           1.522  68.318  67.464  0.00  0.00     0.156 HD
ENDBRANCH  14  38
TORSDOF 3
ENDMDL
