MODEL 1
REMARK VINA RESULT:      -9.6      0.000      0.000
REMARK  6 active torsions:
REMARK  status: ('A' for Active; 'I' for Inactive)
REMARK    1  A    between atoms: C1_1  and  N1_2 
REMARK    2  A    between atoms: C14_5  and  C8_8 
REMARK    3  A    between atoms: C13_6  and  O3_28 
REMARK    4  A    between atoms: C2_11  and  C21_21 
REMARK    5  A    between atoms: C5_16  and  O5_17 
REMARK    6  A    between atoms: C7_19  and  O7_20 
ROOT
ATOM      1  C8  CPB d          39.146  37.369  30.787  0.00  0.00     0.017 A 
ATOM      2  C9  CPB d          38.419  36.218  30.438  0.00  0.00     0.102 A 
ATOM      3  O1  CPB d          38.637  35.661  29.200  0.00  0.00    -0.308 OA
ATOM      4  C2  CPB d          37.975  34.512  28.850  0.00  0.00     0.091 A 
ATOM      5  C3  CPB d          37.062  33.930  29.727  0.00  0.00    -0.000 A 
ATOM      6  C4  CPB d          36.806  34.504  30.969  0.00  0.00     0.190 A 
ATOM      7  O4  CPB d          35.993  33.976  31.730  0.00  0.00    -0.287 OA
ATOM      8  C10 CPB d          37.497  35.661  31.335  0.00  0.00     0.082 A 
ATOM      9  C5  CPB d          37.319  36.238  32.598  0.00  0.00     0.085 A 
ATOM     10  C6  CPB d          38.032  37.376  32.944  0.00  0.00    -0.017 A 
ATOM     11  C7  CPB d          38.935  37.947  32.048  0.00  0.00     0.077 A 
ATOM     12  H13 CPB d          36.543  33.018  29.438  0.00  0.00     0.094 H 
ATOM     13  H15 CPB d          37.886  37.827  33.919  0.00  0.00     0.092 H 
ENDROOT
BRANCH   1  14
ATOM     14  C14 CPB d          40.137  37.940  29.728  0.00  0.00     0.005 C 
ATOM     15  C15 CPB d          39.909  39.440  29.483  0.00  0.00    -0.033 C 
ATOM     16  C16 CPB d          40.883  39.956  28.408  0.00  0.00     0.084 C 
ATOM     17  H7  CPB d          38.875  39.600  29.143  0.00  0.00     0.036 H 
ATOM     18  H8  CPB d          40.077  39.991  30.420  0.00  0.00     0.036 H 
ATOM     19  N1  CPB d          42.283  39.645  28.781  0.00  0.00    -0.072 N 
ATOM     20  H5  CPB d          40.649  39.475  27.448  0.00  0.00     0.076 H 
ATOM     21  H6  CPB d          40.770  41.046  28.310  0.00  0.00     0.076 H 
ATOM     22  C12 CPB d          42.505  38.185  28.892  0.00  0.00     0.107 C 
ATOM     23  H4  CPB d          42.492  40.077  29.668  0.00  0.00     0.279 HD
ATOM     24  C13 CPB d          41.626  37.627  30.016  0.00  0.00     0.066 C 
ATOM     25  H11 CPB d          43.563  37.989  29.121  0.00  0.00     0.080 H 
ATOM     26  H12 CPB d          42.240  37.699  27.941  0.00  0.00     0.080 H 
ATOM     27  H10 CPB d          41.758  36.537  30.082  0.00  0.00     0.086 H 
ATOM     28  H9  CPB d          39.898  37.430  28.783  0.00  0.00     0.051 H 
BRANCH  19  29
ATOM     29  C1  CPB d          43.179  40.187  27.746  0.00  0.00     0.066 C 
ATOM     30  H1  CPB d          44.219  40.145  28.102  0.00  0.00     0.068 H 
ATOM     31  H2  CPB d          42.906  41.232  27.535  0.00  0.00     0.068 H 
ATOM     32  H3  CPB d          43.082  39.590  26.827  0.00  0.00     0.068 H 
ENDBRANCH  19  29
BRANCH  24  33
ATOM     33  O3  CPB d          42.040  38.232  31.240  0.00  0.00    -0.393 OA
ATOM     34  H21 CPB d          41.441  37.981  31.934  0.00  0.00     0.210 HD
ENDBRANCH  24  33
ENDBRANCH   1  14
BRANCH  11  35
ATOM     35  O7  CPB d          39.598  39.060  32.460  0.00  0.00    -0.360 OA
ATOM     36  H16 CPB d          39.789  39.609  31.708  0.00  0.00     0.217 HD
ENDBRANCH  11  35
BRANCH   4  37
ATOM     37  C21 CPB d          38.235  33.901  27.614  0.00  0.00     0.020 A 
ATOM     38  C22 CPB d          38.750  34.599  26.507  0.00  0.00     0.047 A 
ATOM     39 CL1  CPB d          39.081  36.295  26.566  0.00  0.00    -0.083 Cl
ATOM     40  C23 CPB d          39.003  33.935  25.306  0.00  0.00    -0.061 A 
ATOM     41  C24 CPB d          38.751  32.569  25.204  0.00  0.00    -0.081 A 
ATOM     42  H17 CPB d          39.395  34.481  24.455  0.00  0.00     0.086 H 
ATOM     43  C25 CPB d          38.250  31.867  26.300  0.00  0.00    -0.082 A 
ATOM     44  H18 CPB d          38.946  32.051  24.272  0.00  0.00     0.083 H 
ATOM     45  C26 CPB d          37.997  32.524  27.497  0.00  0.00    -0.069 A 
ATOM     46  H19 CPB d          38.057  30.803  26.217  0.00  0.00     0.083 H 
ATOM     47  H20 CPB d          37.614  31.969  28.345  0.00  0.00     0.085 H 
ENDBRANCH   4  37
BRANCH   9  48
ATOM     48  O5  CPB d          36.448  35.716  33.506  0.00  0.00    -0.360 OA
ATOM     49  H14 CPB d          36.926  35.188  34.135  0.00  0.00     0.217 HD
ENDBRANCH   9  48
TORSDOF 6
ENDMDL
MODEL 2
REMARK VINA RESULT:      -8.9      1.307      1.732
REMARK  6 active torsions:
REMARK  status: ('A' for Active; 'I' for Inactive)
REMARK    1  A    between atoms: C1_1  and  N1_2 
REMARK    2  A    between atoms: C14_5  and  C8_8 
REMARK    3  A    between atoms: C13_6  and  O3_28 
REMARK    4  A    between atoms: C2_11  and  C21_21 
REMARK    5  A    between atoms: C5_16  and  O5_17 
REMARK    6  A    between atoms: C7_19  and  O7_20 
ROOT
ATOM      1  C8  CPB d          39.748  37.486  30.324  0.00  0.00     0.017 A 
ATOM      2  C9  CPB d          38.900  36.386  30.112  0.00  0.00     0.102 A 
ATOM      3  O1  CPB d          39.019  35.689  28.934  0.00  0.00    -0.308 OA
ATOM      4  C2  CPB d          38.234  34.585  28.719  0.00  0.00     0.091 A 
ATOM      5  C3  CPB d          37.299  34.188  29.674  0.00  0.00    -0.000 A 
ATOM      6  C4  CPB d          37.145  34.906  30.856  0.00  0.00     0.190 A 
ATOM      7  O4  CPB d          36.311  34.542  31.687  0.00  0.00    -0.287 OA
ATOM      8  C10 CPB d          37.959  36.018  31.085  0.00  0.00     0.082 A 
ATOM      9  C5  CPB d          37.884  36.733  32.286  0.00  0.00     0.085 A 
ATOM     10  C6  CPB d          38.717  37.821  32.495  0.00  0.00    -0.017 A 
ATOM     11  C7  CPB d          39.641  38.205  31.524  0.00  0.00     0.077 A 
ATOM     12  H13 CPB d          36.683  33.309  29.492  0.00  0.00     0.094 H 
ATOM     13  H15 CPB d          38.650  38.379  33.422  0.00  0.00     0.092 H 
ENDROOT
BRANCH   1  14
ATOM     14  C14 CPB d          40.754  37.845  29.187  0.00  0.00     0.005 C 
ATOM     15  C15 CPB d          41.243  36.593  28.442  0.00  0.00    -0.033 C 
ATOM     16  C16 CPB d          42.258  36.987  27.353  0.00  0.00     0.084 C 
ATOM     17  H7  CPB d          41.724  35.909  29.157  0.00  0.00     0.036 H 
ATOM     18  H8  CPB d          40.384  36.090  27.974  0.00  0.00     0.036 H 
ATOM     19  N1  CPB d          41.678  38.003  26.443  0.00  0.00    -0.072 N 
ATOM     20  H5  CPB d          43.158  37.400  27.831  0.00  0.00     0.076 H 
ATOM     21  H6  CPB d          42.529  36.094  26.771  0.00  0.00     0.076 H 
ATOM     22  C12 CPB d          41.327  39.246  27.169  0.00  0.00     0.107 C 
ATOM     23  H4  CPB d          40.846  37.626  26.016  0.00  0.00     0.279 HD
ATOM     24  C13 CPB d          40.246  38.932  28.209  0.00  0.00     0.066 C 
ATOM     25  H11 CPB d          40.946  39.993  26.457  0.00  0.00     0.080 H 
ATOM     26  H12 CPB d          42.220  39.642  27.674  0.00  0.00     0.080 H 
ATOM     27  H10 CPB d          40.004  39.843  28.777  0.00  0.00     0.086 H 
ATOM     28  H9  CPB d          41.635  38.274  29.687  0.00  0.00     0.051 H 
BRANCH  19  29
ATOM     29  C1  CPB d          42.667  38.322  25.400  0.00  0.00     0.066 C 
ATOM     30  H1  CPB d          42.950  39.382  25.474  0.00  0.00     0.068 H 
ATOM     31  H2  CPB d          42.231  38.127  24.409  0.00  0.00     0.068 H 
ATOM     32  H3  CPB d          43.560  37.695  25.537  0.00  0.00     0.068 H 
ENDBRANCH  19  29
BRANCH  24  33
ATOM     33  O3  CPB d          39.085  38.482  27.515  0.00  0.00    -0.393 OA
ATOM     34  H21 CPB d          38.308  38.755  27.988  0.00  0.00     0.210 HD
ENDBRANCH  24  33
ENDBRANCH   1  14
BRANCH  11  35
ATOM     35  O7  CPB d          40.423  39.280  31.803  0.00  0.00    -0.360 OA
ATOM     36  H16 CPB d          39.878  40.053  31.892  0.00  0.00     0.217 HD
ENDBRANCH  11  35
BRANCH   4  37
ATOM     37  C21 CPB d          38.389  33.831  27.547  0.00  0.00     0.020 A 
ATOM     38  C22 CPB d          38.720  34.403  26.305  0.00  0.00     0.047 A 
ATOM     39 CL1  CPB d          38.937  36.106  26.110  0.00  0.00    -0.083 Cl
ATOM     40  C23 CPB d          38.877  33.600  25.174  0.00  0.00    -0.061 A 
ATOM     41  C24 CPB d          38.710  32.220  25.276  0.00  0.00    -0.081 A 
ATOM     42  H17 CPB d          39.126  34.049  24.220  0.00  0.00     0.086 H 
ATOM     43  C25 CPB d          38.392  31.644  26.505  0.00  0.00    -0.082 A 
ATOM     44  H18 CPB d          38.829  31.595  24.398  0.00  0.00     0.083 H 
ATOM     45  C26 CPB d          38.236  32.439  27.633  0.00  0.00    -0.069 A 
ATOM     46  H19 CPB d          38.265  30.570  26.580  0.00  0.00     0.083 H 
ATOM     47  H20 CPB d          37.995  31.981  28.585  0.00  0.00     0.085 H 
ENDBRANCH   4  37
BRANCH   9  48
ATOM     48  O5  CPB d          36.997  36.395  33.264  0.00  0.00    -0.360 OA
ATOM     49  H14 CPB d          37.448  35.910  33.945  0.00  0.00     0.217 HD
ENDBRANCH   9  48
TORSDOF 6
ENDMDL
MODEL 3
REMARK VINA RESULT:      -8.8      2.427      5.694
REMARK  6 active torsions:
REMARK  status: ('A' for Active; 'I' for Inactive)
REMARK    1  A    between atoms: C1_1  and  N1_2 
REMARK    2  A    between atoms: C14_5  and  C8_8 
REMARK    3  A    between atoms: C13_6  and  O3_28 
REMARK    4  A    between atoms: C2_11  and  C21_21 
REMARK    5  A    between atoms: C5_16  and  O5_17 
REMARK    6  A    between atoms: C7_19  and  O7_20 
ROOT
ATOM      1  C8  CPB d          38.996  35.794  28.593  0.00  0.00     0.017 A 
ATOM      2  C9  CPB d          38.578  36.100  29.899  0.00  0.00     0.102 A 
ATOM      3  O1  CPB d          39.093  37.223  30.502  0.00  0.00    -0.308 OA
ATOM      4  C2  CPB d          38.669  37.570  31.759  0.00  0.00     0.091 A 
ATOM      5  C3  CPB d          37.748  36.774  32.437  0.00  0.00    -0.000 A 
ATOM      6  C4  CPB d          37.245  35.616  31.852  0.00  0.00     0.190 A 
ATOM      7  O4  CPB d          36.433  34.923  32.468  0.00  0.00    -0.287 OA
ATOM      8  C10 CPB d          37.659  35.274  30.562  0.00  0.00     0.082 A 
ATOM      9  C5  CPB d          37.134  34.153  29.909  0.00  0.00     0.085 A 
ATOM     10  C6  CPB d          37.547  33.847  28.621  0.00  0.00    -0.017 A 
ATOM     11  C7  CPB d          38.476  34.653  27.964  0.00  0.00     0.077 A 
ATOM     12  H13 CPB d          37.419  37.061  33.434  0.00  0.00     0.094 H 
ATOM     13  H15 CPB d          37.146  32.973  28.122  0.00  0.00     0.092 H 
ENDROOT
BRANCH   1  14
ATOM     14  C14 CPB d          40.035  36.750  27.930  0.00  0.00     0.005 C 
ATOM     15  C15 CPB d          41.307  36.001  27.503  0.00  0.00    -0.033 C 
ATOM     16  C16 CPB d          42.319  36.984  26.886  0.00  0.00     0.084 C 
ATOM     17  H7  CPB d          41.759  35.520  28.383  0.00  0.00     0.036 H 
ATOM     18  H8  CPB d          41.045  35.235  26.759  0.00  0.00     0.036 H 
ATOM     19  N1  CPB d          41.699  37.739  25.772  0.00  0.00    -0.072 N 
ATOM     20  H5  CPB d          42.653  37.691  27.659  0.00  0.00     0.076 H 
ATOM     21  H6  CPB d          43.183  36.422  26.504  0.00  0.00     0.076 H 
ATOM     22  C12 CPB d          40.547  38.547  26.236  0.00  0.00     0.107 C 
ATOM     23  H4  CPB d          41.381  37.088  25.070  0.00  0.00     0.279 HD
ATOM     24  C13 CPB d          39.462  37.611  26.778  0.00  0.00     0.066 C 
ATOM     25  H11 CPB d          40.143  39.130  25.395  0.00  0.00     0.080 H 
ATOM     26  H12 CPB d          40.875  39.231  27.033  0.00  0.00     0.080 H 
ATOM     27  H10 CPB d          38.618  38.204  27.158  0.00  0.00     0.086 H 
ATOM     28  H9  CPB d          40.338  37.458  28.716  0.00  0.00     0.051 H 
BRANCH  19  29
ATOM     29  C1  CPB d          42.710  38.638  25.190  0.00  0.00     0.066 C 
ATOM     30  H1  CPB d          42.872  38.374  24.135  0.00  0.00     0.068 H 
ATOM     31  H2  CPB d          43.655  38.534  25.744  0.00  0.00     0.068 H 
ATOM     32  H3  CPB d          42.359  39.678  25.257  0.00  0.00     0.068 H 
ENDBRANCH  19  29
BRANCH  24  33
ATOM     33  O3  CPB d          39.018  36.784  25.704  0.00  0.00    -0.393 OA
ATOM     34  H21 CPB d          38.456  36.098  26.046  0.00  0.00     0.210 HD
ENDBRANCH  24  33
ENDBRANCH   1  14
BRANCH  11  35
ATOM     35  O7  CPB d          38.831  34.289  26.704  0.00  0.00    -0.360 OA
ATOM     36  H16 CPB d          38.086  33.889  26.269  0.00  0.00     0.217 HD
ENDBRANCH  11  35
BRANCH   4  37
ATOM     37  C21 CPB d          39.143  38.746  32.359  0.00  0.00     0.020 A 
ATOM     38  C22 CPB d          39.026  40.014  31.760  0.00  0.00     0.047 A 
ATOM     39 CL1  CPB d          38.308  40.228  30.203  0.00  0.00    -0.083 Cl
ATOM     40  C23 CPB d          39.501  41.152  32.412  0.00  0.00    -0.061 A 
ATOM     41  C24 CPB d          40.091  41.035  33.669  0.00  0.00    -0.081 A 
ATOM     42  H17 CPB d          39.412  42.125  31.942  0.00  0.00     0.086 H 
ATOM     43  C25 CPB d          40.203  39.784  34.274  0.00  0.00    -0.082 A 
ATOM     44  H18 CPB d          40.464  41.918  34.176  0.00  0.00     0.083 H 
ATOM     45  C26 CPB d          39.730  38.649  33.629  0.00  0.00    -0.069 A 
ATOM     46  H19 CPB d          40.661  39.697  35.253  0.00  0.00     0.083 H 
ATOM     47  H20 CPB d          39.815  37.681  34.111  0.00  0.00     0.085 H 
ENDBRANCH   4  37
BRANCH   9  48
ATOM     48  O5  CPB d          36.224  33.336  30.511  0.00  0.00    -0.360 OA
ATOM     49  H14 CPB d          36.419  32.432  30.293  0.00  0.00     0.217 HD
ENDBRANCH   9  48
TORSDOF 6
ENDMDL
MODEL 4
REMARK VINA RESULT:      -8.7      2.257      5.295
REMARK  6 active torsions:
REMARK  status: ('A' for Active; 'I' for Inactive)
REMARK    1  A    between atoms: C1_1  and  N1_2 
REMARK    2  A    between atoms: C14_5  and  C8_8 
REMARK    3  A    between atoms: C13_6  and  O3_28 
REMARK    4  A    between atoms: C2_11  and  C21_21 
REMARK    5  A    between atoms: C5_16  and  O5_17 
REMARK    6  A    between atoms: C7_19  and  O7_20 
ROOT
ATOM      1  C8  CPB d          39.501  36.899  27.201  0.00  0.00     0.017 A 
ATOM      2  C9  CPB d          38.871  36.051  28.128  0.00  0.00     0.102 A 
ATOM      3  O1  CPB d          38.730  36.492  29.422  0.00  0.00    -0.308 OA
ATOM      4  C2  CPB d          38.080  35.703  30.337  0.00  0.00     0.091 A 
ATOM      5  C3  CPB d          37.594  34.450  29.969  0.00  0.00    -0.000 A 
ATOM      6  C4  CPB d          37.761  33.978  28.670  0.00  0.00     0.190 A 
ATOM      7  O4  CPB d          37.327  32.866  28.363  0.00  0.00    -0.287 OA
ATOM      8  C10 CPB d          38.403  34.790  27.732  0.00  0.00     0.082 A 
ATOM      9  C5  CPB d          38.539  34.384  26.399  0.00  0.00     0.085 A 
ATOM     10  C6  CPB d          39.163  35.218  25.484  0.00  0.00    -0.017 A 
ATOM     11  C7  CPB d          39.649  36.464  25.875  0.00  0.00     0.077 A 
ATOM     12  H13 CPB d          37.079  33.834  30.704  0.00  0.00     0.094 H 
ATOM     13  H15 CPB d          39.275  34.897  24.454  0.00  0.00     0.092 H 
ENDROOT
BRANCH   1  14
ATOM     14  C14 CPB d          40.012  38.278  27.722  0.00  0.00     0.005 C 
ATOM     15  C15 CPB d          38.984  38.956  28.642  0.00  0.00    -0.033 C 
ATOM     16  C16 CPB d          39.512  40.326  29.106  0.00  0.00     0.084 C 
ATOM     17  H7  CPB d          38.042  39.096  28.093  0.00  0.00     0.036 H 
ATOM     18  H8  CPB d          38.806  38.319  29.520  0.00  0.00     0.036 H 
ATOM     19  N1  CPB d          40.842  40.184  29.743  0.00  0.00    -0.072 N 
ATOM     20  H5  CPB d          39.596  40.994  28.237  0.00  0.00     0.076 H 
ATOM     21  H6  CPB d          38.808  40.758  29.833  0.00  0.00     0.076 H 
ATOM     22  C12 CPB d          41.843  39.640  28.796  0.00  0.00     0.107 C 
ATOM     23  H4  CPB d          40.764  39.561  30.532  0.00  0.00     0.279 HD
ATOM     24  C13 CPB d          41.418  38.231  28.369  0.00  0.00     0.066 C 
ATOM     25  H11 CPB d          42.827  39.594  29.286  0.00  0.00     0.080 H 
ATOM     26  H12 CPB d          41.904  40.290  27.911  0.00  0.00     0.080 H 
ATOM     27  H10 CPB d          42.137  37.833  27.639  0.00  0.00     0.086 H 
ATOM     28  H9  CPB d          40.108  38.920  26.834  0.00  0.00     0.051 H 
BRANCH  19  29
ATOM     29  C1  CPB d          41.290  41.510  30.202  0.00  0.00     0.066 C 
ATOM     30  H1  CPB d          42.366  41.622  30.005  0.00  0.00     0.068 H 
ATOM     31  H2  CPB d          41.102  41.606  31.282  0.00  0.00     0.068 H 
ATOM     32  H3  CPB d          40.735  42.292  29.663  0.00  0.00     0.068 H 
ENDBRANCH  19  29
BRANCH  24  33
ATOM     33  O3  CPB d          41.410  37.403  29.530  0.00  0.00    -0.393 OA
ATOM     34  H21 CPB d          41.627  36.511  29.283  0.00  0.00     0.210 HD
ENDBRANCH  24  33
ENDBRANCH   1  14
BRANCH  11  35
ATOM     35  O7  CPB d          40.247  37.225  24.921  0.00  0.00    -0.360 OA
ATOM     36  H16 CPB d          41.065  36.818  24.660  0.00  0.00     0.217 HD
ENDBRANCH  11  35
BRANCH   4  37
ATOM     37  C21 CPB d          37.877  36.168  31.645  0.00  0.00     0.020 A 
ATOM     38  C22 CPB d          36.937  35.599  32.524  0.00  0.00     0.047 A 
ATOM     39 CL1  CPB d          35.921  34.283  32.051  0.00  0.00    -0.083 Cl
ATOM     40  C23 CPB d          36.790  36.093  33.820  0.00  0.00    -0.061 A 
ATOM     41  C24 CPB d          37.582  37.155  34.251  0.00  0.00    -0.081 A 
ATOM     42  H17 CPB d          36.060  35.652  34.490  0.00  0.00     0.086 H 
ATOM     43  C25 CPB d          38.523  37.719  33.390  0.00  0.00    -0.082 A 
ATOM     44  H18 CPB d          37.468  37.542  35.257  0.00  0.00     0.083 H 
ATOM     45  C26 CPB d          38.674  37.229  32.099  0.00  0.00    -0.069 A 
ATOM     46  H19 CPB d          39.139  38.544  33.729  0.00  0.00     0.083 H 
ATOM     47  H20 CPB d          39.412  37.670  31.439  0.00  0.00     0.085 H 
ENDBRANCH   4  37
BRANCH   9  48
ATOM     48  O5  CPB d          38.080  33.175  25.970  0.00  0.00    -0.360 OA
ATOM     49  H14 CPB d          37.147  33.113  26.140  0.00  0.00     0.217 HD
ENDBRANCH   9  48
TORSDOF 6
ENDMDL
MODEL 5
REMARK VINA RESULT:      -8.2      1.824      2.490
REMARK  6 active torsions:
REMARK  status: ('A' for Active; 'I' for Inactive)
REMARK    1  A    between atoms: C1_1  and  N1_2 
REMARK    2  A    between atoms: C14_5  and  C8_8 
REMARK    3  A    between atoms: C13_6  and  O3_28 
REMARK    4  A    between atoms: C2_11  and  C21_21 
REMARK    5  A    between atoms: C5_16  and  O5_17 
REMARK    6  A    between atoms: C7_19  and  O7_20 
ROOT
ATOM      1  C8  CPB d          40.189  38.433  30.154  0.00  0.00     0.017 A 
ATOM      2  C9  CPB d          39.340  37.315  30.120  0.00  0.00     0.102 A 
ATOM      3  O1  CPB d          39.318  36.547  28.980  0.00  0.00    -0.308 OA
ATOM      4  C2  CPB d          38.531  35.425  28.935  0.00  0.00     0.091 A 
ATOM      5  C3  CPB d          37.732  35.080  30.024  0.00  0.00    -0.000 A 
ATOM      6  C4  CPB d          37.719  35.868  31.171  0.00  0.00     0.190 A 
ATOM      7  O4  CPB d          37.004  35.549  32.123  0.00  0.00    -0.287 OA
ATOM      8  C10 CPB d          38.537  36.999  31.226  0.00  0.00     0.082 A 
ATOM      9  C5  CPB d          38.603  37.787  32.381  0.00  0.00     0.085 A 
ATOM     10  C6  CPB d          39.439  38.893  32.416  0.00  0.00    -0.017 A 
ATOM     11  C7  CPB d          40.224  39.224  31.312  0.00  0.00     0.077 A 
ATOM     12  H13 CPB d          37.113  34.187  29.977  0.00  0.00     0.094 H 
ATOM     13  H15 CPB d          39.482  39.506  33.308  0.00  0.00     0.092 H 
ENDROOT
BRANCH   1  14
ATOM     14  C14 CPB d          41.035  38.729  28.878  0.00  0.00     0.005 C 
ATOM     15  C15 CPB d          41.716  37.462  28.337  0.00  0.00    -0.033 C 
ATOM     16  C16 CPB d          42.567  37.804  27.100  0.00  0.00     0.084 C 
ATOM     17  H7  CPB d          42.364  37.037  29.118  0.00  0.00     0.036 H 
ATOM     18  H8  CPB d          40.947  36.727  28.058  0.00  0.00     0.036 H 
ATOM     19  N1  CPB d          41.746  38.491  26.077  0.00  0.00    -0.072 N 
ATOM     20  H5  CPB d          43.395  38.461  27.402  0.00  0.00     0.076 H 
ATOM     21  H6  CPB d          42.973  36.875  26.673  0.00  0.00     0.076 H 
ATOM     22  C12 CPB d          41.200  39.771  26.586  0.00  0.00     0.107 C 
ATOM     23  H4  CPB d          40.980  37.891  25.811  0.00  0.00     0.279 HD
ATOM     24  C13 CPB d          40.266  39.485  27.766  0.00  0.00     0.066 C 
ATOM     25  H11 CPB d          40.639  40.276  25.787  0.00  0.00     0.080 H 
ATOM     26  H12 CPB d          42.027  40.417  26.919  0.00  0.00     0.080 H 
ATOM     27  H10 CPB d          39.884  40.433  28.174  0.00  0.00     0.086 H 
ATOM     28  H9  CPB d          41.842  39.404  29.200  0.00  0.00     0.051 H 
BRANCH  19  29
ATOM     29  C1  CPB d          42.589  38.765  24.901  0.00  0.00     0.066 C 
ATOM     30  H1  CPB d          41.951  38.906  24.016  0.00  0.00     0.068 H 
ATOM     31  H2  CPB d          43.268  37.916  24.731  0.00  0.00     0.068 H 
ATOM     32  H3  CPB d          43.178  39.677  25.076  0.00  0.00     0.068 H 
ENDBRANCH  19  29
BRANCH  24  33
ATOM     33  O3  CPB d          39.177  38.700  27.285  0.00  0.00    -0.393 OA
ATOM     34  H21 CPB d          38.758  39.152  26.562  0.00  0.00     0.210 HD
ENDBRANCH  24  33
ENDBRANCH   1  14
BRANCH  11  35
ATOM     35  O7  CPB d          41.018  40.321  31.423  0.00  0.00    -0.360 OA
ATOM     36  H16 CPB d          41.505  40.440  30.616  0.00  0.00     0.217 HD
ENDBRANCH  11  35
BRANCH   4  37
ATOM     37  C21 CPB d          38.547  34.601  27.800  0.00  0.00     0.020 A 
ATOM     38  C22 CPB d          38.058  33.282  27.803  0.00  0.00     0.047 A 
ATOM     39 CL1  CPB d          37.414  32.546  29.228  0.00  0.00    -0.083 Cl
ATOM     40  C23 CPB d          38.085  32.514  26.638  0.00  0.00    -0.061 A 
ATOM     41  C24 CPB d          38.596  33.058  25.461  0.00  0.00    -0.081 A 
ATOM     42  H17 CPB d          37.711  31.496  26.649  0.00  0.00     0.086 H 
ATOM     43  C25 CPB d          39.075  34.368  25.448  0.00  0.00    -0.082 A 
ATOM     44  H18 CPB d          38.621  32.462  24.556  0.00  0.00     0.083 H 
ATOM     45  C26 CPB d          39.048  35.136  26.604  0.00  0.00    -0.069 A 
ATOM     46  H19 CPB d          39.470  34.788  24.530  0.00  0.00     0.083 H 
ATOM     47  H20 CPB d          39.416  36.155  26.582  0.00  0.00     0.085 H 
ENDBRANCH   4  37
BRANCH   9  48
ATOM     48  O5  CPB d          37.855  37.502  33.484  0.00  0.00    -0.360 OA
ATOM     49  H14 CPB d          38.287  37.849  34.256  0.00  0.00     0.217 HD
ENDBRANCH   9  48
TORSDOF 6
ENDMDL
MODEL 6
REMARK VINA RESULT:      -8.2      2.253      3.829
REMARK  6 active torsions:
REMARK  status: ('A' for Active; 'I' for Inactive)
REMARK    1  A    between atoms: C1_1  and  N1_2 
REMARK    2  A    between atoms: C14_5  and  C8_8 
REMARK    3  A    between atoms: C13_6  and  O3_28 
REMARK    4  A    between atoms: C2_11  and  C21_21 
REMARK    5  A    between atoms: C5_16  and  O5_17 
REMARK    6  A    between atoms: C7_19  and  O7_20 
ROOT
ATOM      1  C8  CPB d          38.405  36.984  31.613  0.00  0.00     0.017 A 
ATOM      2  C9  CPB d          38.604  36.414  30.344  0.00  0.00     0.102 A 
ATOM      3  O1  CPB d          39.513  37.005  29.499  0.00  0.00    -0.308 OA
ATOM      4  C2  CPB d          39.760  36.445  28.272  0.00  0.00     0.091 A 
ATOM      5  C3  CPB d          39.070  35.303  27.867  0.00  0.00    -0.000 A 
ATOM      6  C4  CPB d          38.121  34.716  28.699  0.00  0.00     0.190 A 
ATOM      7  O4  CPB d          37.520  33.708  28.323  0.00  0.00    -0.287 OA
ATOM      8  C10 CPB d          37.886  35.273  29.958  0.00  0.00     0.082 A 
ATOM      9  C5  CPB d          36.988  34.681  30.853  0.00  0.00     0.085 A 
ATOM     10  C6  CPB d          36.787  35.244  32.105  0.00  0.00    -0.017 A 
ATOM     11  C7  CPB d          37.482  36.390  32.486  0.00  0.00     0.077 A 
ATOM     12  H13 CPB d          39.275  34.867  26.891  0.00  0.00     0.094 H 
ATOM     13  H15 CPB d          36.084  34.788  32.792  0.00  0.00     0.092 H 
ENDROOT
BRANCH   1  14
ATOM     14  C14 CPB d          39.226  38.265  31.960  0.00  0.00     0.005 C 
ATOM     15  C15 CPB d          40.712  38.103  31.604  0.00  0.00    -0.033 C 
ATOM     16  C16 CPB d          41.491  39.373  31.993  0.00  0.00     0.084 C 
ATOM     17  H7  CPB d          41.125  37.242  32.149  0.00  0.00     0.036 H 
ATOM     18  H8  CPB d          40.810  37.934  30.522  0.00  0.00     0.036 H 
ATOM     19  N1  CPB d          40.881  40.571  31.369  0.00  0.00    -0.072 N 
ATOM     20  H5  CPB d          41.473  39.487  33.087  0.00  0.00     0.076 H 
ATOM     21  H6  CPB d          42.532  39.278  31.651  0.00  0.00     0.076 H 
ATOM     22  C12 CPB d          39.485  40.770  31.824  0.00  0.00     0.107 C 
ATOM     23  H4  CPB d          40.887  40.459  30.367  0.00  0.00     0.279 HD
ATOM     24  C13 CPB d          38.636  39.574  31.381  0.00  0.00     0.066 C 
ATOM     25  H11 CPB d          39.081  41.692  31.380  0.00  0.00     0.080 H 
ATOM     26  H12 CPB d          39.464  40.851  32.921  0.00  0.00     0.080 H 
ATOM     27  H10 CPB d          37.606  39.696  31.745  0.00  0.00     0.086 H 
ATOM     28  H9  CPB d          39.176  38.368  33.054  0.00  0.00     0.051 H 
BRANCH  19  29
ATOM     29  C1  CPB d          41.678  41.753  31.738  0.00  0.00     0.066 C 
ATOM     30  H1  CPB d          42.626  41.429  32.190  0.00  0.00     0.068 H 
ATOM     31  H2  CPB d          41.115  42.363  32.461  0.00  0.00     0.068 H 
ATOM     32  H3  CPB d          41.886  42.350  30.838  0.00  0.00     0.068 H 
ENDBRANCH  19  29
BRANCH  24  33
ATOM     33  O3  CPB d          38.636  39.538  29.955  0.00  0.00    -0.393 OA
ATOM     34  H21 CPB d          37.758  39.356  29.644  0.00  0.00     0.210 HD
ENDBRANCH  24  33
ENDBRANCH   1  14
BRANCH  11  35
ATOM     35  O7  CPB d          37.233  36.881  33.728  0.00  0.00    -0.360 OA
ATOM     36  H16 CPB d          36.329  37.170  33.779  0.00  0.00     0.217 HD
ENDBRANCH  11  35
BRANCH   4  37
ATOM     37  C21 CPB d          40.730  37.004  27.427  0.00  0.00     0.020 A 
ATOM     38  C22 CPB d          42.112  36.867  27.650  0.00  0.00     0.047 A 
ATOM     39 CL1  CPB d          42.739  36.015  29.016  0.00  0.00    -0.083 Cl
ATOM     40  C23 CPB d          43.031  37.433  26.766  0.00  0.00    -0.061 A 
ATOM     41  C24 CPB d          42.579  38.133  25.649  0.00  0.00    -0.081 A 
ATOM     42  H17 CPB d          44.095  37.328  26.947  0.00  0.00     0.086 H 
ATOM     43  C25 CPB d          41.210  38.265  25.415  0.00  0.00    -0.082 A 
ATOM     44  H18 CPB d          43.291  38.575  24.963  0.00  0.00     0.083 H 
ATOM     45  C26 CPB d          40.292  37.703  26.292  0.00  0.00    -0.069 A 
ATOM     46  H19 CPB d          40.862  38.809  24.545  0.00  0.00     0.083 H 
ATOM     47  H20 CPB d          39.230  37.805  26.099  0.00  0.00     0.085 H 
ENDBRANCH   4  37
BRANCH   9  48
ATOM     48  O5  CPB d          36.286  33.559  30.525  0.00  0.00    -0.360 OA
ATOM     49  H14 CPB d          35.718  33.748  29.786  0.00  0.00     0.217 HD
ENDBRANCH   9  48
TORSDOF 6
ENDMDL
MODEL 7
REMARK VINA RESULT:      -8.2      2.137      5.371
REMARK  6 active torsions:
REMARK  status: ('A' for Active; 'I' for Inactive)
REMARK    1  A    between atoms: C1_1  and  N1_2 
REMARK    2  A    between atoms: C14_5  and  C8_8 
REMARK    3  A    between atoms: C13_6  and  O3_28 
REMARK    4  A    between atoms: C2_11  and  C21_21 
REMARK    5  A    between atoms: C5_16  and  O5_17 
REMARK    6  A    between atoms: C7_19  and  O7_20 
ROOT
ATOM      1  C8  CPB d          39.159  35.790  28.425  0.00  0.00     0.017 A 
ATOM      2  C9  CPB d          38.752  36.127  29.727  0.00  0.00     0.102 A 
ATOM      3  O1  CPB d          39.315  37.233  30.318  0.00  0.00    -0.308 OA
ATOM      4  C2  CPB d          38.905  37.612  31.571  0.00  0.00     0.091 A 
ATOM      5  C3  CPB d          37.949  36.863  32.256  0.00  0.00    -0.000 A 
ATOM      6  C4  CPB d          37.398  35.722  31.682  0.00  0.00     0.190 A 
ATOM      7  O4  CPB d          36.555  35.071  32.304  0.00  0.00    -0.287 OA
ATOM      8  C10 CPB d          37.798  35.349  30.397  0.00  0.00     0.082 A 
ATOM      9  C5  CPB d          37.226  34.244  29.755  0.00  0.00     0.085 A 
ATOM     10  C6  CPB d          37.628  33.907  28.471  0.00  0.00    -0.017 A 
ATOM     11  C7  CPB d          38.591  34.665  27.807  0.00  0.00     0.077 A 
ATOM     12  H13 CPB d          37.631  37.175  33.249  0.00  0.00     0.094 H 
ATOM     13  H15 CPB d          37.189  33.046  27.980  0.00  0.00     0.092 H 
ENDROOT
BRANCH   1  14
ATOM     14  C14 CPB d          40.239  36.693  27.754  0.00  0.00     0.005 C 
ATOM     15  C15 CPB d          39.951  38.186  27.975  0.00  0.00    -0.033 C 
ATOM     16  C16 CPB d          41.019  39.042  27.269  0.00  0.00     0.084 C 
ATOM     17  H7  CPB d          38.961  38.430  27.564  0.00  0.00     0.036 H 
ATOM     18  H8  CPB d          39.966  38.403  29.053  0.00  0.00     0.036 H 
ATOM     19  N1  CPB d          42.378  38.650  27.713  0.00  0.00    -0.072 N 
ATOM     20  H5  CPB d          40.938  38.896  26.182  0.00  0.00     0.076 H 
ATOM     21  H6  CPB d          40.852  40.101  27.511  0.00  0.00     0.076 H 
ATOM     22  C12 CPB d          42.673  37.237  27.378  0.00  0.00     0.107 C 
ATOM     23  H4  CPB d          42.446  38.772  28.712  0.00  0.00     0.279 HD
ATOM     24  C13 CPB d          41.696  36.328  28.130  0.00  0.00     0.066 C 
ATOM     25  H11 CPB d          43.704  36.996  27.677  0.00  0.00     0.080 H 
ATOM     26  H12 CPB d          42.560  37.084  26.295  0.00  0.00     0.080 H 
ATOM     27  H10 CPB d          41.885  35.278  27.860  0.00  0.00     0.086 H 
ATOM     28  H9  CPB d          40.152  36.515  26.671  0.00  0.00     0.051 H 
BRANCH  19  29
ATOM     29  C1  CPB d          43.362  39.516  27.042  0.00  0.00     0.066 C 
ATOM     30  H1  CPB d          42.858  40.418  26.664  0.00  0.00     0.068 H 
ATOM     31  H2  CPB d          43.817  38.971  26.202  0.00  0.00     0.068 H 
ATOM     32  H3  CPB d          44.144  39.806  27.758  0.00  0.00     0.068 H 
ENDBRANCH  19  29
BRANCH  24  33
ATOM     33  O3  CPB d          41.915  36.506  29.528  0.00  0.00    -0.393 OA
ATOM     34  H21 CPB d          42.825  36.734  29.678  0.00  0.00     0.210 HD
ENDBRANCH  24  33
ENDBRANCH   1  14
BRANCH  11  35
ATOM     35  O7  CPB d          38.932  34.273  26.552  0.00  0.00    -0.360 OA
ATOM     36  H16 CPB d          38.158  33.957  26.099  0.00  0.00     0.217 HD
ENDBRANCH  11  35
BRANCH   4  37
ATOM     37  C21 CPB d          39.427  38.773  32.159  0.00  0.00     0.020 A 
ATOM     38  C22 CPB d          39.160  40.066  31.674  0.00  0.00     0.047 A 
ATOM     39 CL1  CPB d          38.178  40.335  30.277  0.00  0.00    -0.083 Cl
ATOM     40  C23 CPB d          39.695  41.186  32.310  0.00  0.00    -0.061 A 
ATOM     41  C24 CPB d          40.496  41.026  33.439  0.00  0.00    -0.081 A 
ATOM     42  H17 CPB d          39.489  42.179  31.927  0.00  0.00     0.086 H 
ATOM     43  C25 CPB d          40.759  39.748  33.933  0.00  0.00    -0.082 A 
ATOM     44  H18 CPB d          40.915  41.894  33.934  0.00  0.00     0.083 H 
ATOM     45  C26 CPB d          40.227  38.630  33.303  0.00  0.00    -0.069 A 
ATOM     46  H19 CPB d          41.381  39.627  34.812  0.00  0.00     0.083 H 
ATOM     47  H20 CPB d          40.431  37.642  33.698  0.00  0.00     0.085 H 
ENDBRANCH   4  37
BRANCH   9  48
ATOM     48  O5  CPB d          36.281  33.474  30.364  0.00  0.00    -0.360 OA
ATOM     49  H14 CPB d          36.193  33.741  31.271  0.00  0.00     0.217 HD
ENDBRANCH   9  48
TORSDOF 6
ENDMDL
MODEL 8
REMARK VINA RESULT:      -8.0      2.380      5.402
REMARK  6 active torsions:
REMARK  status: ('A' for Active; 'I' for Inactive)
REMARK    1  A    between atoms: C1_1  and  N1_2 
REMARK    2  A    between atoms: C14_5  and  C8_8 
REMARK    3  A    between atoms: C13_6  and  O3_28 
REMARK    4  A    between atoms: C2_11  and  C21_21 
REMARK    5  A    between atoms: C5_16  and  O5_17 
REMARK    6  A    between atoms: C7_19  and  O7_20 
ROOT
ATOM      1  C8  CPB d          39.091  35.594  27.880  0.00  0.00     0.017 A 
ATOM      2  C9  CPB d          38.714  36.007  29.169  0.00  0.00     0.102 A 
ATOM      3  O1  CPB d          39.180  37.216  29.627  0.00  0.00    -0.308 OA
ATOM      4  C2  CPB d          38.793  37.665  30.864  0.00  0.00     0.091 A 
ATOM      5  C3  CPB d          37.960  36.887  31.667  0.00  0.00    -0.000 A 
ATOM      6  C4  CPB d          37.510  35.646  31.229  0.00  0.00     0.190 A 
ATOM      7  O4  CPB d          36.776  34.971  31.954  0.00  0.00    -0.287 OA
ATOM      8  C10 CPB d          37.885  35.198  29.960  0.00  0.00     0.082 A 
ATOM      9  C5  CPB d          37.408  33.985  29.452  0.00  0.00     0.085 A 
ATOM     10  C6  CPB d          37.780  33.573  28.181  0.00  0.00    -0.017 A 
ATOM     11  C7  CPB d          38.620  34.363  27.398  0.00  0.00     0.077 A 
ATOM     12  H13 CPB d          37.659  37.255  32.646  0.00  0.00     0.094 H 
ATOM     13  H15 CPB d          37.416  32.628  27.794  0.00  0.00     0.092 H 
ENDROOT
BRANCH   1  14
ATOM     14  C14 CPB d          40.030  36.539  27.070  0.00  0.00     0.005 C 
ATOM     15  C15 CPB d          39.572  38.003  27.149  0.00  0.00    -0.033 C 
ATOM     16  C16 CPB d          40.505  38.896  26.310  0.00  0.00     0.084 C 
ATOM     17  H7  CPB d          38.546  38.084  26.762  0.00  0.00     0.036 H 
ATOM     18  H8  CPB d          39.597  38.336  28.197  0.00  0.00     0.036 H 
ATOM     19  N1  CPB d          41.915  38.716  26.728  0.00  0.00    -0.072 N 
ATOM     20  H5  CPB d          40.404  38.626  25.249  0.00  0.00     0.076 H 
ATOM     21  H6  CPB d          40.219  39.949  26.449  0.00  0.00     0.076 H 
ATOM     22  C12 CPB d          42.367  37.320  26.528  0.00  0.00     0.107 C 
ATOM     23  H4  CPB d          42.001  38.952  27.705  0.00  0.00     0.279 HD
ATOM     24  C13 CPB d          41.533  36.389  27.413  0.00  0.00     0.066 C 
ATOM     25  H11 CPB d          43.429  37.234  26.801  0.00  0.00     0.080 H 
ATOM     26  H12 CPB d          42.236  37.038  25.472  0.00  0.00     0.080 H 
ATOM     27  H10 CPB d          41.838  35.345  27.245  0.00  0.00     0.086 H 
ATOM     28  H9  CPB d          39.929  36.236  26.017  0.00  0.00     0.051 H 
BRANCH  19  29
ATOM     29  C1  CPB d          42.763  39.613  25.926  0.00  0.00     0.066 C 
ATOM     30  H1  CPB d          43.456  39.015  25.317  0.00  0.00     0.068 H 
ATOM     31  H2  CPB d          43.337  40.270  26.596  0.00  0.00     0.068 H 
ATOM     32  H3  CPB d          42.130  40.225  25.266  0.00  0.00     0.068 H 
ENDBRANCH  19  29
BRANCH  24  33
ATOM     33  O3  CPB d          41.775  36.742  28.774  0.00  0.00    -0.393 OA
ATOM     34  H21 CPB d          42.352  36.098  29.169  0.00  0.00     0.210 HD
ENDBRANCH  24  33
ENDBRANCH   1  14
BRANCH  11  35
ATOM     35  O7  CPB d          38.940  33.893  26.164  0.00  0.00    -0.360 OA
ATOM     36  H16 CPB d          38.964  32.943  26.184  0.00  0.00     0.217 HD
ENDBRANCH  11  35
BRANCH   4  37
ATOM     37  C21 CPB d          39.212  38.925  31.317  0.00  0.00     0.020 A 
ATOM     38  C22 CPB d          40.492  39.161  31.850  0.00  0.00     0.047 A 
ATOM     39 CL1  CPB d          41.660  37.897  32.023  0.00  0.00    -0.083 Cl
ATOM     40  C23 CPB d          40.860  40.439  32.271  0.00  0.00    -0.061 A 
ATOM     41  C24 CPB d          39.956  41.493  32.156  0.00  0.00    -0.081 A 
ATOM     42  H17 CPB d          41.847  40.612  32.686  0.00  0.00     0.086 H 
ATOM     43  C25 CPB d          38.688  41.270  31.619  0.00  0.00    -0.082 A 
ATOM     44  H18 CPB d          40.238  42.486  32.484  0.00  0.00     0.083 H 
ATOM     45  C26 CPB d          38.319  39.999  31.199  0.00  0.00    -0.069 A 
ATOM     46  H19 CPB d          37.987  42.093  31.530  0.00  0.00     0.083 H 
ATOM     47  H20 CPB d          37.333  39.837  30.777  0.00  0.00     0.085 H 
ENDBRANCH   4  37
BRANCH   9  48
ATOM     48  O5  CPB d          36.584  33.179  30.181  0.00  0.00    -0.360 OA
ATOM     49  H14 CPB d          37.082  32.766  30.877  0.00  0.00     0.217 HD
ENDBRANCH   9  48
TORSDOF 6
ENDMDL
MODEL 9
REMARK VINA RESULT:      -7.8      2.435      5.601
REMARK  6 active torsions:
REMARK  status: ('A' for Active; 'I' for Inactive)
REMARK    1  A    between atoms: C1_1  and  N1_2 
REMARK    2  A    between atoms: C14_5  and  C8_8 
REMARK    3  A    between atoms: C13_6  and  O3_28 
REMARK    4  A    between atoms: C2_11  and  C21_21 
REMARK    5  A    between atoms: C5_16  and  O5_17 
REMARK    6  A    between atoms: C7_19  and  O7_20 
ROOT
ATOM      1  C8  CPB d          39.642  36.484  27.270  0.00  0.00     0.017 A 
ATOM      2  C9  CPB d          38.991  36.012  28.422  0.00  0.00     0.102 A 
ATOM      3  O1  CPB d          39.178  36.694  29.601  0.00  0.00    -0.308 OA
ATOM      4  C2  CPB d          38.520  36.282  30.732  0.00  0.00     0.091 A 
ATOM      5  C3  CPB d          37.693  35.160  30.697  0.00  0.00    -0.000 A 
ATOM      6  C4  CPB d          37.523  34.441  29.518  0.00  0.00     0.190 A 
ATOM      7  O4  CPB d          36.790  33.450  29.507  0.00  0.00    -0.287 OA
ATOM      8  C10 CPB d          38.175  34.873  28.361  0.00  0.00     0.082 A 
ATOM      9  C5  CPB d          37.985  34.219  27.138  0.00  0.00     0.085 A 
ATOM     10  C6  CPB d          38.629  34.681  26.000  0.00  0.00    -0.017 A 
ATOM     11  C7  CPB d          39.457  35.800  26.059  0.00  0.00     0.077 A 
ATOM     12  H13 CPB d          37.176  34.844  31.601  0.00  0.00     0.094 H 
ATOM     13  H15 CPB d          38.487  34.167  25.056  0.00  0.00     0.092 H 
ENDROOT
BRANCH   1  14
ATOM     14  C14 CPB d          40.548  37.744  27.423  0.00  0.00     0.005 C 
ATOM     15  C15 CPB d          41.975  37.486  26.915  0.00  0.00    -0.033 C 
ATOM     16  C16 CPB d          42.844  38.741  27.115  0.00  0.00     0.084 C 
ATOM     17  H7  CPB d          42.413  36.647  27.474  0.00  0.00     0.036 H 
ATOM     18  H8  CPB d          41.939  37.235  25.844  0.00  0.00     0.036 H 
ATOM     19  N1  CPB d          42.214  39.919  26.475  0.00  0.00    -0.072 N 
ATOM     20  H5  CPB d          42.959  38.932  28.192  0.00  0.00     0.076 H 
ATOM     21  H6  CPB d          43.834  38.571  26.665  0.00  0.00     0.076 H 
ATOM     22  C12 CPB d          40.890  40.218  27.068  0.00  0.00     0.107 C 
ATOM     23  H4  CPB d          42.099  39.736  25.490  0.00  0.00     0.279 HD
ATOM     24  C13 CPB d          39.948  39.036  26.817  0.00  0.00     0.066 C 
ATOM     25  H11 CPB d          40.475  41.125  26.604  0.00  0.00     0.080 H 
ATOM     26  H12 CPB d          41.000  40.377  28.151  0.00  0.00     0.080 H 
ATOM     27  H10 CPB d          38.973  39.234  27.285  0.00  0.00     0.086 H 
ATOM     28  H9  CPB d          40.630  37.927  28.505  0.00  0.00     0.051 H 
BRANCH  19  29
ATOM     29  C1  CPB d          43.095  41.084  26.660  0.00  0.00     0.066 C 
ATOM     30  H1  CPB d          43.508  41.074  27.679  0.00  0.00     0.068 H 
ATOM     31  H2  CPB d          42.518  42.008  26.507  0.00  0.00     0.068 H 
ATOM     32  H3  CPB d          43.919  41.041  25.932  0.00  0.00     0.068 H 
ENDBRANCH  19  29
BRANCH  24  33
ATOM     33  O3  CPB d          39.780  38.899  25.407  0.00  0.00    -0.393 OA
ATOM     34  H21 CPB d          40.489  38.374  25.054  0.00  0.00     0.210 HD
ENDBRANCH  24  33
ENDBRANCH   1  14
BRANCH  11  35
ATOM     35  O7  CPB d          40.052  36.193  24.902  0.00  0.00    -0.360 OA
ATOM     36  H16 CPB d          40.694  35.542  24.640  0.00  0.00     0.217 HD
ENDBRANCH  11  35
BRANCH   4  37
ATOM     37  C21 CPB d          38.656  37.005  31.926  0.00  0.00     0.020 A 
ATOM     38  C22 CPB d          37.863  36.765  33.063  0.00  0.00     0.047 A 
ATOM     39 CL1  CPB d          36.619  35.565  33.075  0.00  0.00    -0.083 Cl
ATOM     40  C23 CPB d          38.053  37.507  34.229  0.00  0.00    -0.061 A 
ATOM     41  C24 CPB d          39.040  38.489  34.272  0.00  0.00    -0.081 A 
ATOM     42  H17 CPB d          37.434  37.320  35.099  0.00  0.00     0.086 H 
ATOM     43  C25 CPB d          39.838  38.728  33.153  0.00  0.00    -0.082 A 
ATOM     44  H18 CPB d          39.189  39.068  35.176  0.00  0.00     0.083 H 
ATOM     45  C26 CPB d          39.652  37.991  31.990  0.00  0.00    -0.069 A 
ATOM     46  H19 CPB d          40.606  39.492  33.190  0.00  0.00     0.083 H 
ATOM     47  H20 CPB d          40.281  38.179  31.127  0.00  0.00     0.085 H 
ENDBRANCH   4  37
BRANCH   9  48
ATOM     48  O5  CPB d          37.184  33.121  27.032  0.00  0.00    -0.360 OA
ATOM     49  H14 CPB d          37.700  32.383  26.730  0.00  0.00     0.217 HD
ENDBRANCH   9  48
TORSDOF 6
ENDMDL
MODEL 10
REMARK VINA RESULT:      -7.6      2.474      4.301
REMARK  6 active torsions:
REMARK  status: ('A' for Active; 'I' for Inactive)
REMARK    1  A    between atoms: C1_1  and  N1_2 
REMARK    2  A    between atoms: C14_5  and  C8_8 
REMARK    3  A    between atoms: C13_6  and  O3_28 
REMARK    4  A    between atoms: C2_11  and  C21_21 
REMARK    5  A    between atoms: C5_16  and  O5_17 
REMARK    6  A    between atoms: C7_19  and  O7_20 
ROOT
ATOM      1  C8  CPB d          38.655  36.941  30.831  0.00  0.00     0.017 A 
ATOM      2  C9  CPB d          38.985  36.411  29.573  0.00  0.00     0.102 A 
ATOM      3  O1  CPB d          39.887  37.096  28.793  0.00  0.00    -0.308 OA
ATOM      4  C2  CPB d          40.261  36.579  27.580  0.00  0.00     0.091 A 
ATOM      5  C3  CPB d          39.707  35.385  27.121  0.00  0.00    -0.000 A 
ATOM      6  C4  CPB d          38.768  34.700  27.885  0.00  0.00     0.190 A 
ATOM      7  O4  CPB d          38.287  33.646  27.462  0.00  0.00    -0.287 OA
ATOM      8  C10 CPB d          38.403  35.213  29.132  0.00  0.00     0.082 A 
ATOM      9  C5  CPB d          37.509  34.527  29.962  0.00  0.00     0.085 A 
ATOM     10  C6  CPB d          37.179  35.050  31.203  0.00  0.00    -0.017 A 
ATOM     11  C7  CPB d          37.739  36.250  31.639  0.00  0.00     0.077 A 
ATOM     12  H13 CPB d          40.013  34.985  26.156  0.00  0.00     0.094 H 
ATOM     13  H15 CPB d          36.480  34.521  31.840  0.00  0.00     0.092 H 
ENDROOT
BRANCH   1  14
ATOM     14  C14 CPB d          39.329  38.286  31.242  0.00  0.00     0.005 C 
ATOM     15  C15 CPB d          38.339  39.460  31.189  0.00  0.00    -0.033 C 
ATOM     16  C16 CPB d          39.050  40.771  31.567  0.00  0.00     0.084 C 
ATOM     17  H7  CPB d          37.933  39.547  30.170  0.00  0.00     0.036 H 
ATOM     18  H8  CPB d          37.517  39.275  31.896  0.00  0.00     0.036 H 
ATOM     19  N1  CPB d          39.713  40.643  32.886  0.00  0.00    -0.072 N 
ATOM     20  H5  CPB d          39.806  41.005  30.804  0.00  0.00     0.076 H 
ATOM     21  H6  CPB d          38.311  41.584  31.612  0.00  0.00     0.076 H 
ATOM     22  C12 CPB d          40.748  39.584  32.875  0.00  0.00     0.107 C 
ATOM     23  H4  CPB d          39.019  40.416  33.582  0.00  0.00     0.279 HD
ATOM     24  C13 CPB d          40.082  38.233  32.594  0.00  0.00     0.066 C 
ATOM     25  H11 CPB d          41.252  39.550  33.852  0.00  0.00     0.080 H 
ATOM     26  H12 CPB d          41.487  39.801  32.089  0.00  0.00     0.080 H 
ATOM     27  H10 CPB d          40.849  37.445  32.548  0.00  0.00     0.086 H 
ATOM     28  H9  CPB d          40.093  38.487  30.477  0.00  0.00     0.051 H 
BRANCH  19  29
ATOM     29  C1  CPB d          40.347  41.929  33.223  0.00  0.00     0.066 C 
ATOM     30  H1  CPB d          41.185  42.115  32.535  0.00  0.00     0.068 H 
ATOM     31  H2  CPB d          40.722  41.893  34.257  0.00  0.00     0.068 H 
ATOM     32  H3  CPB d          39.609  42.738  33.128  0.00  0.00     0.068 H 
ENDBRANCH  19  29
BRANCH  24  33
ATOM     33  O3  CPB d          39.179  37.957  33.663  0.00  0.00    -0.393 OA
ATOM     34  H21 CPB d          38.762  38.764  33.940  0.00  0.00     0.210 HD
ENDBRANCH  24  33
ENDBRANCH   1  14
BRANCH  11  35
ATOM     35  O7  CPB d          37.368  36.698  32.867  0.00  0.00    -0.360 OA
ATOM     36  H16 CPB d          37.527  36.018  33.512  0.00  0.00     0.217 HD
ENDBRANCH  11  35
BRANCH   4  37
ATOM     37  C21 CPB d          41.225  37.239  26.803  0.00  0.00     0.020 A 
ATOM     38  C22 CPB d          42.607  37.145  27.053  0.00  0.00     0.047 A 
ATOM     39 CL1  CPB d          43.238  36.222  28.372  0.00  0.00    -0.083 Cl
ATOM     40  C23 CPB d          43.521  37.811  26.237  0.00  0.00    -0.061 A 
ATOM     41  C24 CPB d          43.065  38.571  25.162  0.00  0.00    -0.081 A 
ATOM     42  H17 CPB d          44.584  37.738  26.440  0.00  0.00     0.086 H 
ATOM     43  C25 CPB d          41.698  38.662  24.901  0.00  0.00    -0.082 A 
ATOM     44  H18 CPB d          43.774  39.091  24.528  0.00  0.00     0.083 H 
ATOM     45  C26 CPB d          40.785  37.999  25.710  0.00  0.00    -0.069 A 
ATOM     46  H19 CPB d          41.347  39.253  24.062  0.00  0.00     0.083 H 
ATOM     47  H20 CPB d          39.724  38.071  25.495  0.00  0.00     0.085 H 
ENDBRANCH   4  37
BRANCH   9  48
ATOM     48  O5  CPB d          36.937  33.351  29.579  0.00  0.00    -0.360 OA
ATOM     49  H14 CPB d          36.889  33.318  28.631  0.00  0.00     0.217 HD
ENDBRANCH   9  48
TORSDOF 6
ENDMDL
