REMARK  9 active torsions:
REMARK  status: ('A' for Active; 'I' for Inactive)
REMARK    1  A    between atoms: C1_1  and  C2_3 
REMARK    2  A    between atoms: C2_3  and  C3_4 
REMARK    3  A    between atoms: C3_4  and  C4_5 
REMARK    4  A    between atoms: C4_5  and  C5_6 
REMARK    5  A    between atoms: C5_6  and  C6_7 
REMARK    6  A    between atoms: C6_7  and  C7_8 
REMARK    7  A    between atoms: C7_8  and  C8_9 
REMARK    8  A    between atoms: C8_9  and  C9_10 
REMARK    9  A    between atoms: C9_10  and  C10_11 
ROOT
ATOM      1  C6  DKA d          13.525  -3.360  -0.296  0.00  0.00    -0.065 C 
ATOM      2  H9  DKA d          14.123  -2.594   0.219  0.00  0.00     0.033 H 
ATOM      3  H10 DKA d          13.427  -3.095  -1.359  0.00  0.00     0.033 H 
ENDROOT
BRANCH   1   4
ATOM      4  C5  DKA d          12.139  -3.413   0.332  0.00  0.00    -0.065 C 
ATOM      5  H7  DKA d          11.635  -4.346   0.040  0.00  0.00     0.033 H 
ATOM      6  H8  DKA d          12.226  -3.371   1.428  0.00  0.00     0.033 H 
BRANCH   4   7
ATOM      7  C4  DKA d          11.337  -2.217  -0.166  0.00  0.00    -0.065 C 
ATOM      8  H5  DKA d          11.915  -1.298   0.013  0.00  0.00     0.033 H 
ATOM      9  H6  DKA d          11.155  -2.332  -1.245  0.00  0.00     0.033 H 
BRANCH   7  10
ATOM     10  C3  DKA d          10.003  -2.110   0.552  0.00  0.00    -0.056 C 
ATOM     11  H3  DKA d           9.267  -2.758   0.054  0.00  0.00     0.033 H 
ATOM     12  H4  DKA d          10.124  -2.429   1.598  0.00  0.00     0.033 H 
BRANCH  10  13
ATOM     13  C2  DKA d           9.515  -0.668   0.516  0.00  0.00     0.016 C 
ATOM     14  H1  DKA d          10.064  -0.082   1.267  0.00  0.00     0.049 H 
ATOM     15  H2  DKA d           9.700  -0.248  -0.484  0.00  0.00     0.049 H 
BRANCH  13  16
ATOM     16  C1  DKA d           8.040  -0.601   0.816  0.00  0.00     0.172 C 
ATOM     17  O1  DKA d           7.249  -1.122  -0.004  0.00  0.00    -0.648 OA
ATOM     18  O2  DKA d           7.673  -0.019   1.862  0.00  0.00    -0.648 OA
ENDBRANCH  13  16
ENDBRANCH  10  13
ENDBRANCH   7  10
ENDBRANCH   4   7
ENDBRANCH   1   4
BRANCH   1  19
ATOM     19  C7  DKA d          14.235  -4.699  -0.184  0.00  0.00    -0.065 C 
ATOM     20  H11 DKA d          13.494  -5.510  -0.232  0.00  0.00     0.033 H 
ATOM     21  H12 DKA d          14.771  -4.749   0.775  0.00  0.00     0.033 H 
BRANCH  19  22
ATOM     22  C8  DKA d          15.224  -4.853  -1.322  0.00  0.00    -0.065 C 
ATOM     23  H13 DKA d          15.287  -3.899  -1.866  0.00  0.00     0.033 H 
ATOM     24  H14 DKA d          14.862  -5.639  -2.001  0.00  0.00     0.033 H 
BRANCH  22  25
ATOM     25  C9  DKA d          16.606  -5.228  -0.840  0.00  0.00    -0.069 C 
ATOM     26  H15 DKA d          16.584  -6.253  -0.443  0.00  0.00     0.032 H 
ATOM     27  H16 DKA d          16.912  -4.533  -0.044  0.00  0.00     0.032 H 
BRANCH  25  28
ATOM     28  C10 DKA d          17.606  -5.156  -1.973  0.00  0.00    -0.077 C 
ATOM     29  H17 DKA d          18.603  -5.432  -1.600  0.00  0.00     0.027 H 
ATOM     30  H18 DKA d          17.635  -4.131  -2.372  0.00  0.00     0.027 H 
ATOM     31  H19 DKA d          17.307  -5.852  -2.771  0.00  0.00     0.027 H 
ENDBRANCH  25  28
ENDBRANCH  22  25
ENDBRANCH  19  22
ENDBRANCH   1  19
TORSDOF 9
