MODEL 1
REMARK VINA RESULT:      -6.2      0.000      0.000
REMARK  9 active torsions:
REMARK  status: ('A' for Active; 'I' for Inactive)
REMARK    1  A    between atoms: C1_1  and  C2_3 
REMARK    2  A    between atoms: C2_3  and  C3_4 
REMARK    3  A    between atoms: C3_4  and  C4_5 
REMARK    4  A    between atoms: C4_5  and  C5_6 
REMARK    5  A    between atoms: C5_6  and  C6_7 
REMARK    6  A    between atoms: C6_7  and  C7_8 
REMARK    7  A    between atoms: C7_8  and  C8_9 
REMARK    8  A    between atoms: C8_9  and  C9_10 
REMARK    9  A    between atoms: C9_10  and  C10_11 
ROOT
ATOM      1  C6  DKA d          14.149  -3.798  -0.596  0.00  0.00    -0.065 C 
ATOM      2  H9  DKA d          15.005  -3.207  -0.237  0.00  0.00     0.033 H 
ATOM      3  H10 DKA d          14.085  -3.723  -1.691  0.00  0.00     0.033 H 
ENDROOT
BRANCH   1   4
ATOM      4  C5  DKA d          12.871  -3.240   0.015  0.00  0.00    -0.065 C 
ATOM      5  H7  DKA d          13.092  -2.302   0.546  0.00  0.00     0.033 H 
ATOM      6  H8  DKA d          12.134  -3.046  -0.779  0.00  0.00     0.033 H 
BRANCH   4   7
ATOM      7  C4  DKA d          12.314  -4.267   0.993  0.00  0.00    -0.065 C 
ATOM      8  H5  DKA d          12.629  -5.272   0.675  0.00  0.00     0.033 H 
ATOM      9  H6  DKA d          12.713  -4.058   1.997  0.00  0.00     0.033 H 
BRANCH   7  10
ATOM     10  C3  DKA d          10.797  -4.216   1.043  0.00  0.00    -0.056 C 
ATOM     11  H3  DKA d          10.395  -5.237   0.981  0.00  0.00     0.033 H 
ATOM     12  H4  DKA d          10.478  -3.752   1.988  0.00  0.00     0.033 H 
BRANCH  10  13
ATOM     13  C2  DKA d          10.273  -3.393  -0.127  0.00  0.00     0.016 C 
ATOM     14  H1  DKA d          11.088  -2.772  -0.525  0.00  0.00     0.049 H 
ATOM     15  H2  DKA d           9.911  -4.072  -0.913  0.00  0.00     0.049 H 
BRANCH  13  16
ATOM     16  C1  DKA d           9.142  -2.502   0.318  0.00  0.00     0.172 C 
ATOM     17  O1  DKA d           8.964  -1.426  -0.298  0.00  0.00    -0.648 OA
ATOM     18  O2  DKA d           8.441  -2.872   1.287  0.00  0.00    -0.648 OA
ENDBRANCH  13  16
ENDBRANCH  10  13
ENDBRANCH   7  10
ENDBRANCH   4   7
ENDBRANCH   1   4
BRANCH   1  19
ATOM     19  C7  DKA d          14.357  -5.253  -0.211  0.00  0.00    -0.065 C 
ATOM     20  H11 DKA d          13.701  -5.889  -0.822  0.00  0.00     0.033 H 
ATOM     21  H12 DKA d          14.110  -5.388   0.852  0.00  0.00     0.033 H 
BRANCH  19  22
ATOM     22  C8  DKA d          15.801  -5.646  -0.446  0.00  0.00    -0.065 C 
ATOM     23  H13 DKA d          15.823  -6.595  -1.003  0.00  0.00     0.033 H 
ATOM     24  H14 DKA d          16.294  -5.781   0.527  0.00  0.00     0.033 H 
BRANCH  22  25
ATOM     25  C9  DKA d          16.562  -4.605  -1.234  0.00  0.00    -0.069 C 
ATOM     26  H15 DKA d          16.727  -3.722  -0.601  0.00  0.00     0.032 H 
ATOM     27  H16 DKA d          15.972  -4.318  -2.117  0.00  0.00     0.032 H 
BRANCH  25  28
ATOM     28  C10 DKA d          17.900  -5.148  -1.687  0.00  0.00    -0.077 C 
ATOM     29  H17 DKA d          17.898  -6.245  -1.601  0.00  0.00     0.027 H 
ATOM     30  H18 DKA d          18.698  -4.732  -1.054  0.00  0.00     0.027 H 
ATOM     31  H19 DKA d          18.076  -4.863  -2.735  0.00  0.00     0.027 H 
ENDBRANCH  25  28
ENDBRANCH  22  25
ENDBRANCH  19  22
ENDBRANCH   1  19
TORSDOF 9
ENDMDL
MODEL 2
REMARK VINA RESULT:      -5.9      3.923      6.706
REMARK  9 active torsions:
REMARK  status: ('A' for Active; 'I' for Inactive)
REMARK    1  A    between atoms: C1_1  and  C2_3 
REMARK    2  A    between atoms: C2_3  and  C3_4 
REMARK    3  A    between atoms: C3_4  and  C4_5 
REMARK    4  A    between atoms: C4_5  and  C5_6 
REMARK    5  A    between atoms: C5_6  and  C6_7 
REMARK    6  A    between atoms: C6_7  and  C7_8 
REMARK    7  A    between atoms: C7_8  and  C8_9 
REMARK    8  A    between atoms: C8_9  and  C9_10 
REMARK    9  A    between atoms: C9_10  and  C10_11 
ROOT
ATOM      1  C6  DKA d          12.208  -2.382  -0.079  0.00  0.00    -0.065 C 
ATOM      2  H9  DKA d          11.825  -1.890  -0.986  0.00  0.00     0.033 H 
ATOM      3  H10 DKA d          12.423  -1.622   0.686  0.00  0.00     0.033 H 
ENDROOT
BRANCH   1   4
ATOM      4  C5  DKA d          13.495  -3.120  -0.421  0.00  0.00    -0.065 C 
ATOM      5  H7  DKA d          13.630  -3.144  -1.513  0.00  0.00     0.033 H 
ATOM      6  H8  DKA d          14.351  -2.608   0.043  0.00  0.00     0.033 H 
BRANCH   4   7
ATOM      7  C4  DKA d          13.394  -4.542   0.116  0.00  0.00    -0.065 C 
ATOM      8  H5  DKA d          13.340  -4.508   1.214  0.00  0.00     0.033 H 
ATOM      9  H6  DKA d          12.481  -5.011  -0.282  0.00  0.00     0.033 H 
BRANCH   7  10
ATOM     10  C3  DKA d          14.596  -5.374  -0.294  0.00  0.00    -0.056 C 
ATOM     11  H3  DKA d          15.196  -5.613   0.596  0.00  0.00     0.033 H 
ATOM     12  H4  DKA d          14.253  -6.307  -0.766  0.00  0.00     0.033 H 
BRANCH  10  13
ATOM     13  C2  DKA d          15.448  -4.591  -1.284  0.00  0.00     0.016 C 
ATOM     14  H1  DKA d          15.132  -4.838  -2.308  0.00  0.00     0.049 H 
ATOM     15  H2  DKA d          15.311  -3.514  -1.107  0.00  0.00     0.049 H 
BRANCH  13  16
ATOM     16  C1  DKA d          16.905  -4.938  -1.118  0.00  0.00     0.172 C 
ATOM     17  O1  DKA d          17.751  -4.212  -1.690  0.00  0.00    -0.648 OA
ATOM     18  O2  DKA d          17.202  -5.940  -0.429  0.00  0.00    -0.648 OA
ENDBRANCH  13  16
ENDBRANCH  10  13
ENDBRANCH   7  10
ENDBRANCH   4   7
ENDBRANCH   1   4
BRANCH   1  19
ATOM     19  C7  DKA d          11.149  -3.333   0.452  0.00  0.00    -0.065 C 
ATOM     20  H11 DKA d          11.048  -3.197   1.539  0.00  0.00     0.033 H 
ATOM     21  H12 DKA d          11.449  -4.370   0.240  0.00  0.00     0.033 H 
BRANCH  19  22
ATOM     22  C8  DKA d           9.819  -3.047  -0.217  0.00  0.00    -0.065 C 
ATOM     23  H13 DKA d           9.242  -3.982  -0.268  0.00  0.00     0.033 H 
ATOM     24  H14 DKA d          10.008  -2.677  -1.235  0.00  0.00     0.033 H 
BRANCH  22  25
ATOM     25  C9  DKA d           9.006  -2.016   0.531  0.00  0.00    -0.069 C 
ATOM     26  H15 DKA d           8.603  -1.286  -0.186  0.00  0.00     0.032 H 
ATOM     27  H16 DKA d           9.655  -1.500   1.254  0.00  0.00     0.032 H 
BRANCH  25  28
ATOM     28  C10 DKA d           7.861  -2.671   1.271  0.00  0.00    -0.077 C 
ATOM     29  H17 DKA d           8.015  -3.760   1.295  0.00  0.00     0.027 H 
ATOM     30  H18 DKA d           6.915  -2.446   0.755  0.00  0.00     0.027 H 
ATOM     31  H19 DKA d           7.819  -2.283   2.299  0.00  0.00     0.027 H 
ENDBRANCH  25  28
ENDBRANCH  22  25
ENDBRANCH  19  22
ENDBRANCH   1  19
TORSDOF 9
ENDMDL
MODEL 3
REMARK VINA RESULT:      -5.0      1.172      2.005
REMARK  9 active torsions:
REMARK  status: ('A' for Active; 'I' for Inactive)
REMARK    1  A    between atoms: C1_1  and  C2_3 
REMARK    2  A    between atoms: C2_3  and  C3_4 
REMARK    3  A    between atoms: C3_4  and  C4_5 
REMARK    4  A    between atoms: C4_5  and  C5_6 
REMARK    5  A    between atoms: C5_6  and  C6_7 
REMARK    6  A    between atoms: C6_7  and  C7_8 
REMARK    7  A    between atoms: C7_8  and  C8_9 
REMARK    8  A    between atoms: C8_9  and  C9_10 
REMARK    9  A    between atoms: C9_10  and  C10_11 
ROOT
ATOM      1  C6  DKA d          12.254  -3.712  -0.227  0.00  0.00    -0.065 C 
ATOM      2  H9  DKA d          12.009  -2.699  -0.580  0.00  0.00     0.033 H 
ATOM      3  H10 DKA d          11.814  -4.454  -0.909  0.00  0.00     0.033 H 
ENDROOT
BRANCH   1   4
ATOM      4  C5  DKA d          11.667  -3.907   1.164  0.00  0.00    -0.065 C 
ATOM      5  H7  DKA d          11.474  -4.976   1.339  0.00  0.00     0.033 H 
ATOM      6  H8  DKA d          12.373  -3.534   1.921  0.00  0.00     0.033 H 
BRANCH   4   7
ATOM      7  C4  DKA d          10.361  -3.128   1.252  0.00  0.00    -0.065 C 
ATOM      8  H5  DKA d           9.621  -3.729   1.801  0.00  0.00     0.033 H 
ATOM      9  H6  DKA d          10.541  -2.186   1.790  0.00  0.00     0.033 H 
BRANCH   7  10
ATOM     10  C3  DKA d           9.814  -2.812  -0.130  0.00  0.00    -0.056 C 
ATOM     11  H3  DKA d          10.637  -2.487  -0.783  0.00  0.00     0.033 H 
ATOM     12  H4  DKA d           9.344  -3.712  -0.552  0.00  0.00     0.033 H 
BRANCH  10  13
ATOM     13  C2  DKA d           8.778  -1.700  -0.029  0.00  0.00     0.016 C 
ATOM     14  H1  DKA d           9.291  -0.740   0.122  0.00  0.00     0.049 H 
ATOM     15  H2  DKA d           8.196  -1.662  -0.962  0.00  0.00     0.049 H 
BRANCH  13  16
ATOM     16  C1  DKA d           7.844  -1.950   1.127  0.00  0.00     0.172 C 
ATOM     17  O1  DKA d           7.168  -3.005   1.118  0.00  0.00    -0.648 OA
ATOM     18  O2  DKA d           7.778  -1.090   2.033  0.00  0.00    -0.648 OA
ENDBRANCH  13  16
ENDBRANCH  10  13
ENDBRANCH   7  10
ENDBRANCH   4   7
ENDBRANCH   1   4
BRANCH   1  19
ATOM     19  C7  DKA d          13.764  -3.882  -0.220  0.00  0.00    -0.065 C 
ATOM     20  H11 DKA d          14.199  -3.243   0.562  0.00  0.00     0.033 H 
ATOM     21  H12 DKA d          14.169  -3.588  -1.199  0.00  0.00     0.033 H 
BRANCH  19  22
ATOM     22  C8  DKA d          14.117  -5.329   0.058  0.00  0.00    -0.065 C 
ATOM     23  H13 DKA d          13.421  -5.975  -0.498  0.00  0.00     0.033 H 
ATOM     24  H14 DKA d          14.011  -5.519   1.136  0.00  0.00     0.033 H 
BRANCH  22  25
ATOM     25  C9  DKA d          15.529  -5.670  -0.357  0.00  0.00    -0.069 C 
ATOM     26  H15 DKA d          15.510  -6.554  -1.010  0.00  0.00     0.032 H 
ATOM     27  H16 DKA d          16.127  -5.889   0.540  0.00  0.00     0.032 H 
BRANCH  25  28
ATOM     28  C10 DKA d          16.161  -4.516  -1.104  0.00  0.00    -0.077 C 
ATOM     29  H17 DKA d          15.787  -4.500  -2.138  0.00  0.00     0.027 H 
ATOM     30  H18 DKA d          17.254  -4.638  -1.112  0.00  0.00     0.027 H 
ATOM     31  H19 DKA d          15.901  -3.570  -0.605  0.00  0.00     0.027 H 
ENDBRANCH  25  28
ENDBRANCH  22  25
ENDBRANCH  19  22
ENDBRANCH   1  19
TORSDOF 9
ENDMDL
MODEL 4
REMARK VINA RESULT:      -4.9      3.464      6.828
REMARK  9 active torsions:
REMARK  status: ('A' for Active; 'I' for Inactive)
REMARK    1  A    between atoms: C1_1  and  C2_3 
REMARK    2  A    between atoms: C2_3  and  C3_4 
REMARK    3  A    between atoms: C3_4  and  C4_5 
REMARK    4  A    between atoms: C4_5  and  C5_6 
REMARK    5  A    between atoms: C5_6  and  C6_7 
REMARK    6  A    between atoms: C6_7  and  C7_8 
REMARK    7  A    between atoms: C7_8  and  C8_9 
REMARK    8  A    between atoms: C8_9  and  C9_10 
REMARK    9  A    between atoms: C9_10  and  C10_11 
ROOT
ATOM      1  C6  DKA d          10.520  -2.455  -0.532  0.00  0.00    -0.065 C 
ATOM      2  H9  DKA d           9.990  -3.403  -0.703  0.00  0.00     0.033 H 
ATOM      3  H10 DKA d          10.594  -1.900  -1.479  0.00  0.00     0.033 H 
ENDROOT
BRANCH   1   4
ATOM      4  C5  DKA d          11.923  -2.755  -0.023  0.00  0.00    -0.065 C 
ATOM      5  H7  DKA d          12.632  -2.750  -0.864  0.00  0.00     0.033 H 
ATOM      6  H8  DKA d          12.222  -1.994   0.713  0.00  0.00     0.033 H 
BRANCH   4   7
ATOM      7  C4  DKA d          11.915  -4.130   0.634  0.00  0.00    -0.065 C 
ATOM      8  H5  DKA d          11.856  -4.006   1.725  0.00  0.00     0.033 H 
ATOM      9  H6  DKA d          11.036  -4.690   0.280  0.00  0.00     0.033 H 
BRANCH   7  10
ATOM     10  C3  DKA d          13.170  -4.913   0.291  0.00  0.00    -0.056 C 
ATOM     11  H3  DKA d          13.633  -5.285   1.217  0.00  0.00     0.033 H 
ATOM     12  H4  DKA d          12.907  -5.763  -0.355  0.00  0.00     0.033 H 
BRANCH  10  13
ATOM     13  C2  DKA d          14.155  -4.009  -0.439  0.00  0.00     0.016 C 
ATOM     14  H1  DKA d          13.693  -3.648  -1.368  0.00  0.00     0.049 H 
ATOM     15  H2  DKA d          14.405  -3.152   0.204  0.00  0.00     0.049 H 
BRANCH  13  16
ATOM     16  C1  DKA d          15.417  -4.762  -0.773  0.00  0.00     0.172 C 
ATOM     17  O1  DKA d          15.674  -5.798  -0.117  0.00  0.00    -0.648 OA
ATOM     18  O2  DKA d          16.153  -4.313  -1.680  0.00  0.00    -0.648 OA
ENDBRANCH  13  16
ENDBRANCH  10  13
ENDBRANCH   7  10
ENDBRANCH   4   7
ENDBRANCH   1   4
BRANCH   1  19
ATOM     19  C7  DKA d           9.735  -1.623   0.468  0.00  0.00    -0.065 C 
ATOM     20  H11 DKA d          10.363  -0.794   0.825  0.00  0.00     0.033 H 
ATOM     21  H12 DKA d           9.443  -2.255   1.319  0.00  0.00     0.033 H 
BRANCH  19  22
ATOM     22  C8  DKA d           8.491  -1.063  -0.193  0.00  0.00    -0.065 C 
ATOM     23  H13 DKA d           8.325  -1.597  -1.141  0.00  0.00     0.033 H 
ATOM     24  H14 DKA d           8.650   0.006  -0.398  0.00  0.00     0.033 H 
BRANCH  22  25
ATOM     25  C9  DKA d           7.260  -1.214   0.670  0.00  0.00    -0.069 C 
ATOM     26  H15 DKA d           6.364  -1.098   0.044  0.00  0.00     0.032 H 
ATOM     27  H16 DKA d           7.267  -0.436   1.448  0.00  0.00     0.032 H 
BRANCH  25  28
ATOM     28  C10 DKA d           7.232  -2.575   1.330  0.00  0.00    -0.077 C 
ATOM     29  H17 DKA d           8.129  -2.697   1.956  0.00  0.00     0.027 H 
ATOM     30  H18 DKA d           7.216  -3.357   0.557  0.00  0.00     0.027 H 
ATOM     31  H19 DKA d           6.333  -2.660   1.958  0.00  0.00     0.027 H 
ENDBRANCH  25  28
ENDBRANCH  22  25
ENDBRANCH  19  22
ENDBRANCH   1  19
TORSDOF 9
ENDMDL
MODEL 5
REMARK VINA RESULT:      -3.7      3.410      6.453
REMARK  9 active torsions:
REMARK  status: ('A' for Active; 'I' for Inactive)
REMARK    1  A    between atoms: C1_1  and  C2_3 
REMARK    2  A    between atoms: C2_3  and  C3_4 
REMARK    3  A    between atoms: C3_4  and  C4_5 
REMARK    4  A    between atoms: C4_5  and  C5_6 
REMARK    5  A    between atoms: C5_6  and  C6_7 
REMARK    6  A    between atoms: C6_7  and  C7_8 
REMARK    7  A    between atoms: C7_8  and  C8_9 
REMARK    8  A    between atoms: C8_9  and  C9_10 
REMARK    9  A    between atoms: C9_10  and  C10_11 
ROOT
ATOM      1  C6  DKA d          10.653  -2.588  -0.619  0.00  0.00    -0.065 C 
ATOM      2  H9  DKA d          11.064  -3.441  -1.178  0.00  0.00     0.033 H 
ATOM      3  H10 DKA d          10.404  -1.777  -1.318  0.00  0.00     0.033 H 
ENDROOT
BRANCH   1   4
ATOM      4  C5  DKA d          11.701  -2.089   0.366  0.00  0.00    -0.065 C 
ATOM      5  H7  DKA d          11.396  -1.112   0.769  0.00  0.00     0.033 H 
ATOM      6  H8  DKA d          11.807  -2.809   1.192  0.00  0.00     0.033 H 
BRANCH   4   7
ATOM      7  C4  DKA d          13.029  -1.952  -0.369  0.00  0.00    -0.065 C 
ATOM      8  H5  DKA d          12.929  -1.182  -1.148  0.00  0.00     0.033 H 
ATOM      9  H6  DKA d          13.806  -1.649   0.349  0.00  0.00     0.033 H 
BRANCH   7  10
ATOM     10  C3  DKA d          13.438  -3.263  -1.017  0.00  0.00    -0.056 C 
ATOM     11  H3  DKA d          12.655  -3.583  -1.720  0.00  0.00     0.033 H 
ATOM     12  H4  DKA d          14.384  -3.122  -1.561  0.00  0.00     0.033 H 
BRANCH  10  13
ATOM     13  C2  DKA d          13.624  -4.329   0.053  0.00  0.00     0.016 C 
ATOM     14  H1  DKA d          13.693  -3.845   1.038  0.00  0.00     0.049 H 
ATOM     15  H2  DKA d          12.760  -5.011   0.040  0.00  0.00     0.049 H 
BRANCH  13  16
ATOM     16  C1  DKA d          14.881  -5.120  -0.200  0.00  0.00     0.172 C 
ATOM     17  O1  DKA d          15.792  -4.577  -0.867  0.00  0.00    -0.648 OA
ATOM     18  O2  DKA d          14.953  -6.283   0.257  0.00  0.00    -0.648 OA
ENDBRANCH  13  16
ENDBRANCH  10  13
ENDBRANCH   7  10
ENDBRANCH   4   7
ENDBRANCH   1   4
BRANCH   1  19
ATOM     19  C7  DKA d           9.387  -3.031   0.096  0.00  0.00    -0.065 C 
ATOM     20  H11 DKA d           9.333  -4.129   0.096  0.00  0.00     0.033 H 
ATOM     21  H12 DKA d           8.510  -2.621  -0.426  0.00  0.00     0.033 H 
BRANCH  19  22
ATOM     22  C8  DKA d           9.402  -2.527   1.526  0.00  0.00    -0.065 C 
ATOM     23  H13 DKA d          10.372  -2.046   1.720  0.00  0.00     0.033 H 
ATOM     24  H14 DKA d           9.276  -3.385   2.204  0.00  0.00     0.033 H 
BRANCH  22  25
ATOM     25  C9  DKA d           8.302  -1.529   1.798  0.00  0.00    -0.069 C 
ATOM     26  H15 DKA d           8.746  -0.596   2.174  0.00  0.00     0.032 H 
ATOM     27  H16 DKA d           7.619  -1.941   2.556  0.00  0.00     0.032 H 
BRANCH  25  28
ATOM     28  C10 DKA d           7.521  -1.234   0.536  0.00  0.00    -0.077 C 
ATOM     29  H17 DKA d           6.666  -0.586   0.777  0.00  0.00     0.027 H 
ATOM     30  H18 DKA d           7.156  -2.177   0.102  0.00  0.00     0.027 H 
ATOM     31  H19 DKA d           8.175  -0.725  -0.188  0.00  0.00     0.027 H 
ENDBRANCH  25  28
ENDBRANCH  22  25
ENDBRANCH  19  22
ENDBRANCH   1  19
TORSDOF 9
ENDMDL
