MODEL 1
REMARK VINA RESULT:      -6.0      0.000      0.000
REMARK  6 active torsions:
REMARK  status: ('A' for Active; 'I' for Inactive)
REMARK    1  A    between atoms: N1_1  and  C1'_9 
REMARK    2  A    between atoms: C2'_10  and  O2'_11 
REMARK    3  A    between atoms: C3'_12  and  O3'_14 
REMARK    4  A    between atoms: C4'_13  and  C5'_16 
REMARK    5  A    between atoms: C5'_16  and  O5'_17 
REMARK    6  A    between atoms: O5'_17  and  P_18 
ROOT
ATOM      1  C1' U5P d          36.202   0.120  12.135  0.00  0.00     0.141 C 
ATOM      2  C2' U5P d          36.588   0.828  13.410  0.00  0.00     0.105 C 
ATOM      3  C3' U5P d          37.981   1.330  13.114  0.00  0.00     0.091 C 
ATOM      4  C4' U5P d          37.945   1.581  11.616  0.00  0.00     0.089 C 
ATOM      5  O4' U5P d          37.135   0.506  11.122  0.00  0.00    -0.353 OA
ATOM      6  H4  U5P d          35.192   0.441  11.840  0.00  0.00     0.123 H 
ATOM      7  H5  U5P d          36.560   0.178  14.298  0.00  0.00     0.093 H 
ATOM      8  H7  U5P d          38.716   0.546  13.345  0.00  0.00     0.091 H 
ATOM      9  H8  U5P d          37.468   2.550  11.404  0.00  0.00     0.090 H 
ENDROOT
BRANCH   1  10
ATOM     10  N1  U5P d          36.200  -1.325  12.286  0.00  0.00    -0.280 N 
ATOM     11  C2  U5P d          35.263  -2.045  11.544  0.00  0.00     0.331 A 
ATOM     12  N3  U5P d          35.248  -3.371  11.639  0.00  0.00    -0.275 N 
ATOM     13  O2  U5P d          34.450  -1.447  10.821  0.00  0.00    -0.246 OA
ATOM     14  C4  U5P d          36.099  -4.046  12.442  0.00  0.00     0.250 A 
ATOM     15  H1  U5P d          34.583  -3.886  11.098  0.00  0.00     0.173 HD
ATOM     16  C5  U5P d          37.050  -3.353  13.192  0.00  0.00    -0.002 A 
ATOM     17  O4  U5P d          36.026  -5.294  12.496  0.00  0.00    -0.268 OA
ATOM     18  C6  U5P d          37.076  -1.965  13.085  0.00  0.00    -0.008 A 
ATOM     19  H2  U5P d          37.749  -3.880  13.838  0.00  0.00     0.094 H 
ATOM     20  H3  U5P d          37.809  -1.393  13.651  0.00  0.00     0.112 H 
ENDBRANCH   1  10
BRANCH   2  21
ATOM     21  O2' U5P d          35.663   1.917  13.518  0.00  0.00    -0.388 OA
ATOM     22  H6  U5P d          34.964   1.681  14.116  0.00  0.00     0.210 HD
ENDBRANCH   2  21
BRANCH   3  23
ATOM     23  O3' U5P d          38.335   2.496  13.863  0.00  0.00    -0.390 OA
ATOM     24  H9  U5P d          39.079   2.299  14.419  0.00  0.00     0.210 HD
ENDBRANCH   3  23
BRANCH   4  25
ATOM     25  C5' U5P d          39.332   1.574  10.987  0.00  0.00     0.059 C 
ATOM     26  H10 U5P d          40.066   2.012  11.680  0.00  0.00     0.079 H 
ATOM     27  H11 U5P d          39.327   2.148  10.048  0.00  0.00     0.079 H 
BRANCH  25  28
ATOM     28  O5' U5P d          39.653   0.214  10.728  0.00  0.00    -0.280 OA
BRANCH  28  29
ATOM     29  P   U5P d          41.106  -0.407  11.030  0.00  0.00     0.422 P 
ATOM     30  O1P U5P d          41.155  -1.699  10.238  0.00  0.00    -0.617 OA
ATOM     31  O2P U5P d          41.140  -0.589  12.533  0.00  0.00    -0.617 OA
ATOM     32  O3P U5P d          42.020   0.692  10.538  0.00  0.00    -0.617 OA
ENDBRANCH  28  29
ENDBRANCH  25  28
ENDBRANCH   4  25
TORSDOF 6
ENDMDL
MODEL 2
REMARK VINA RESULT:      -5.2      2.355      4.278
REMARK  6 active torsions:
REMARK  status: ('A' for Active; 'I' for Inactive)
REMARK    1  A    between atoms: N1_1  and  C1'_9 
REMARK    2  A    between atoms: C2'_10  and  O2'_11 
REMARK    3  A    between atoms: C3'_12  and  O3'_14 
REMARK    4  A    between atoms: C4'_13  and  C5'_16 
REMARK    5  A    between atoms: C5'_16  and  O5'_17 
REMARK    6  A    between atoms: O5'_17  and  P_18 
ROOT
ATOM      1  C1' U5P d          39.000  -2.788  13.331  0.00  0.00     0.141 C 
ATOM      2  C2' U5P d          40.018  -3.380  12.387  0.00  0.00     0.105 C 
ATOM      3  C3' U5P d          40.264  -2.259  11.404  0.00  0.00     0.091 C 
ATOM      4  C4' U5P d          40.052  -1.012  12.246  0.00  0.00     0.089 C 
ATOM      5  O4' U5P d          38.966  -1.376  13.107  0.00  0.00    -0.353 OA
ATOM      6  H4  U5P d          39.317  -2.985  14.366  0.00  0.00     0.123 H 
ATOM      7  H5  U5P d          39.673  -4.299  11.891  0.00  0.00     0.093 H 
ATOM      8  H7  U5P d          39.516  -2.299  10.599  0.00  0.00     0.091 H 
ATOM      9  H8  U5P d          40.954  -0.794  12.837  0.00  0.00     0.090 H 
ENDROOT
BRANCH   1  10
ATOM     10  N1  U5P d          37.677  -3.356  13.139  0.00  0.00    -0.280 N 
ATOM     11  C2  U5P d          37.219  -4.252  14.106  0.00  0.00     0.331 A 
ATOM     12  N3  U5P d          36.002  -4.774  13.976  0.00  0.00    -0.275 N 
ATOM     13  O2  U5P d          37.949  -4.564  15.061  0.00  0.00    -0.246 OA
ATOM     14  C4  U5P d          35.199  -4.478  12.931  0.00  0.00     0.250 A 
ATOM     15  H1  U5P d          35.671  -5.407  14.676  0.00  0.00     0.173 HD
ATOM     16  C5  U5P d          35.628  -3.581  11.952  0.00  0.00    -0.002 A 
ATOM     17  O4  U5P d          34.069  -5.010  12.861  0.00  0.00    -0.268 OA
ATOM     18  C6  U5P d          36.897  -3.025  12.092  0.00  0.00    -0.008 A 
ATOM     19  H2  U5P d          34.992  -3.324  11.107  0.00  0.00     0.094 H 
ATOM     20  H3  U5P d          37.261  -2.316  11.349  0.00  0.00     0.112 H 
ENDBRANCH   1  10
BRANCH   2  21
ATOM     21  O2' U5P d          41.176  -3.613  13.198  0.00  0.00    -0.388 OA
ATOM     22  H6  U5P d          41.502  -2.785  13.530  0.00  0.00     0.210 HD
ENDBRANCH   2  21
BRANCH   3  23
ATOM     23  O3' U5P d          41.559  -2.308  10.801  0.00  0.00    -0.390 OA
ATOM     24  H9  U5P d          41.473  -2.202   9.861  0.00  0.00     0.210 HD
ENDBRANCH   3  23
BRANCH   4  25
ATOM     25  C5' U5P d          39.715   0.213  11.404  0.00  0.00     0.059 C 
ATOM     26  H10 U5P d          39.258  -0.095  10.452  0.00  0.00     0.079 H 
ATOM     27  H11 U5P d          40.625   0.798  11.203  0.00  0.00     0.079 H 
BRANCH  25  28
ATOM     28  O5' U5P d          38.794   0.984  12.163  0.00  0.00    -0.280 OA
BRANCH  28  29
ATOM     29  P   U5P d          37.387   1.487  11.567  0.00  0.00     0.422 P 
ATOM     30  O1P U5P d          36.764   0.257  10.936  0.00  0.00    -0.617 OA
ATOM     31  O2P U5P d          37.755   2.578  10.583  0.00  0.00    -0.617 OA
ATOM     32  O3P U5P d          36.693   2.005  12.805  0.00  0.00    -0.617 OA
ENDBRANCH  28  29
ENDBRANCH  25  28
ENDBRANCH   4  25
TORSDOF 6
ENDMDL
MODEL 3
REMARK VINA RESULT:      -5.1      2.705      5.891
REMARK  6 active torsions:
REMARK  status: ('A' for Active; 'I' for Inactive)
REMARK    1  A    between atoms: N1_1  and  C1'_9 
REMARK    2  A    between atoms: C2'_10  and  O2'_11 
REMARK    3  A    between atoms: C3'_12  and  O3'_14 
REMARK    4  A    between atoms: C4'_13  and  C5'_16 
REMARK    5  A    between atoms: C5'_16  and  O5'_17 
REMARK    6  A    between atoms: O5'_17  and  P_18 
ROOT
ATOM      1  C1' U5P d          39.292  -2.085  13.030  0.00  0.00     0.141 C 
ATOM      2  C2' U5P d          38.992  -2.161  14.507  0.00  0.00     0.105 C 
ATOM      3  C3' U5P d          37.985  -3.283  14.594  0.00  0.00     0.091 C 
ATOM      4  C4' U5P d          38.386  -4.193  13.445  0.00  0.00     0.089 C 
ATOM      5  O4' U5P d          38.784  -3.274  12.419  0.00  0.00    -0.353 OA
ATOM      6  H4  U5P d          40.382  -2.040  12.889  0.00  0.00     0.123 H 
ATOM      7  H5  U5P d          38.603  -1.220  14.925  0.00  0.00     0.093 H 
ATOM      8  H7  U5P d          36.973  -2.888  14.423  0.00  0.00     0.091 H 
ATOM      9  H8  U5P d          39.234  -4.829  13.741  0.00  0.00     0.090 H 
ENDROOT
BRANCH   1  10
ATOM     10  N1  U5P d          38.700  -0.912  12.409  0.00  0.00    -0.280 N 
ATOM     11  C2  U5P d          39.488  -0.203  11.501  0.00  0.00     0.331 A 
ATOM     12  N3  U5P d          38.971   0.862  10.894  0.00  0.00    -0.275 N 
ATOM     13  O2  U5P d          40.658  -0.559  11.281  0.00  0.00    -0.246 OA
ATOM     14  C4  U5P d          37.714   1.290  11.137  0.00  0.00     0.250 A 
ATOM     15  H1  U5P d          39.533   1.362  10.234  0.00  0.00     0.173 HD
ATOM     16  C5  U5P d          36.902   0.597  12.036  0.00  0.00    -0.002 A 
ATOM     17  O4  U5P d          37.290   2.306  10.542  0.00  0.00    -0.268 OA
ATOM     18  C6  U5P d          37.436  -0.524  12.664  0.00  0.00    -0.008 A 
ATOM     19  H2  U5P d          35.883   0.924  12.239  0.00  0.00     0.094 H 
ATOM     20  H3  U5P d          36.828  -1.091  13.366  0.00  0.00     0.112 H 
ENDBRANCH   1  10
BRANCH   2  21
ATOM     21  O2' U5P d          40.235  -2.539  15.113  0.00  0.00    -0.388 OA
ATOM     22  H6  U5P d          40.327  -3.484  15.080  0.00  0.00     0.210 HD
ENDBRANCH   2  21
BRANCH   3  23
ATOM     23  O3' U5P d          37.988  -3.951  15.857  0.00  0.00    -0.390 OA
ATOM     24  H9  U5P d          38.728  -4.546  15.897  0.00  0.00     0.210 HD
ENDBRANCH   3  23
BRANCH   4  25
ATOM     25  C5' U5P d          37.244  -5.090  12.981  0.00  0.00     0.059 C 
ATOM     26  H10 U5P d          36.532  -5.252  13.804  0.00  0.00     0.079 H 
ATOM     27  H11 U5P d          37.637  -6.059  12.640  0.00  0.00     0.079 H 
BRANCH  25  28
ATOM     28  O5' U5P d          36.607  -4.412  11.907  0.00  0.00    -0.280 OA
BRANCH  28  29
ATOM     29  P   U5P d          35.097  -3.865  12.001  0.00  0.00     0.422 P 
ATOM     30  O1P U5P d          34.990  -2.818  10.910  0.00  0.00    -0.617 OA
ATOM     31  O2P U5P d          34.975  -3.320  13.408  0.00  0.00    -0.617 OA
ATOM     32  O3P U5P d          34.297  -5.126  11.774  0.00  0.00    -0.617 OA
ENDBRANCH  28  29
ENDBRANCH  25  28
ENDBRANCH   4  25
TORSDOF 6
ENDMDL
MODEL 4
REMARK VINA RESULT:      -5.0      1.969      2.598
REMARK  6 active torsions:
REMARK  status: ('A' for Active; 'I' for Inactive)
REMARK    1  A    between atoms: N1_1  and  C1'_9 
REMARK    2  A    between atoms: C2'_10  and  O2'_11 
REMARK    3  A    between atoms: C3'_12  and  O3'_14 
REMARK    4  A    between atoms: C4'_13  and  C5'_16 
REMARK    5  A    between atoms: C5'_16  and  O5'_17 
REMARK    6  A    between atoms: O5'_17  and  P_18 
ROOT
ATOM      1  C1' U5P d          37.207  -0.396  11.822  0.00  0.00     0.141 C 
ATOM      2  C2' U5P d          36.758   0.551  12.908  0.00  0.00     0.105 C 
ATOM      3  C3' U5P d          37.995   0.703  13.760  0.00  0.00     0.091 C 
ATOM      4  C4' U5P d          39.125   0.543  12.757  0.00  0.00     0.089 C 
ATOM      5  O4' U5P d          38.634  -0.467  11.866  0.00  0.00    -0.353 OA
ATOM      6  H4  U5P d          36.892   0.005  10.847  0.00  0.00     0.123 H 
ATOM      7  H5  U5P d          35.898   0.180  13.485  0.00  0.00     0.093 H 
ATOM      8  H7  U5P d          38.037  -0.106  14.504  0.00  0.00     0.091 H 
ATOM      9  H8  U5P d          39.290   1.486  12.215  0.00  0.00     0.090 H 
ENDROOT
BRANCH   1  10
ATOM     10  N1  U5P d          36.636  -1.723  11.979  0.00  0.00    -0.280 N 
ATOM     11  C2  U5P d          35.433  -1.984  11.323  0.00  0.00     0.331 A 
ATOM     12  N3  U5P d          34.893  -3.195  11.424  0.00  0.00    -0.275 N 
ATOM     13  O2  U5P d          34.873  -1.088  10.669  0.00  0.00    -0.246 OA
ATOM     14  C4  U5P d          35.462  -4.179  12.154  0.00  0.00     0.250 A 
ATOM     15  H1  U5P d          34.037  -3.384  10.943  0.00  0.00     0.173 HD
ATOM     16  C5  U5P d          36.669  -3.948  12.817  0.00  0.00    -0.002 A 
ATOM     17  O4  U5P d          34.899  -5.294  12.219  0.00  0.00    -0.268 OA
ATOM     18  C6  U5P d          37.241  -2.685  12.703  0.00  0.00    -0.008 A 
ATOM     19  H2  U5P d          37.146  -4.731  13.404  0.00  0.00     0.094 H 
ATOM     20  H3  U5P d          38.185  -2.472  13.202  0.00  0.00     0.112 H 
ENDBRANCH   1  10
BRANCH   2  21
ATOM     21  O2' U5P d          36.454   1.773  12.224  0.00  0.00    -0.388 OA
ATOM     22  H6  U5P d          36.340   2.471  12.859  0.00  0.00     0.210 HD
ENDBRANCH   2  21
BRANCH   3  23
ATOM     23  O3' U5P d          38.050   1.947  14.463  0.00  0.00    -0.390 OA
ATOM     24  H9  U5P d          38.107   2.660  13.838  0.00  0.00     0.210 HD
ENDBRANCH   3  23
BRANCH   4  25
ATOM     25  C5' U5P d          40.436   0.123  13.412  0.00  0.00     0.059 C 
ATOM     26  H10 U5P d          41.055   1.008  13.623  0.00  0.00     0.079 H 
ATOM     27  H11 U5P d          40.988  -0.562  12.752  0.00  0.00     0.079 H 
BRANCH  25  28
ATOM     28  O5' U5P d          40.091  -0.534  14.624  0.00  0.00    -0.280 OA
BRANCH  28  29
ATOM     29  P   U5P d          40.504  -2.058  14.932  0.00  0.00     0.422 P 
ATOM     30  O1P U5P d          41.773  -1.963  15.757  0.00  0.00    -0.617 OA
ATOM     31  O2P U5P d          40.689  -2.688  13.567  0.00  0.00    -0.617 OA
ATOM     32  O3P U5P d          39.286  -2.566  15.667  0.00  0.00    -0.617 OA
ENDBRANCH  28  29
ENDBRANCH  25  28
ENDBRANCH   4  25
TORSDOF 6
ENDMDL
MODEL 5
REMARK VINA RESULT:      -5.0      2.000      3.129
REMARK  6 active torsions:
REMARK  status: ('A' for Active; 'I' for Inactive)
REMARK    1  A    between atoms: N1_1  and  C1'_9 
REMARK    2  A    between atoms: C2'_10  and  O2'_11 
REMARK    3  A    between atoms: C3'_12  and  O3'_14 
REMARK    4  A    between atoms: C4'_13  and  C5'_16 
REMARK    5  A    between atoms: C5'_16  and  O5'_17 
REMARK    6  A    between atoms: O5'_17  and  P_18 
ROOT
ATOM      1  C1' U5P d          38.652   0.849  12.921  0.00  0.00     0.141 C 
ATOM      2  C2' U5P d          39.007   0.532  14.354  0.00  0.00     0.105 C 
ATOM      3  C3' U5P d          40.346  -0.154  14.230  0.00  0.00     0.091 C 
ATOM      4  C4' U5P d          40.957   0.503  13.003  0.00  0.00     0.089 C 
ATOM      5  O4' U5P d          39.833   0.683  12.132  0.00  0.00    -0.353 OA
ATOM      6  H4  U5P d          38.317   1.895  12.860  0.00  0.00     0.123 H 
ATOM      7  H5  U5P d          38.261  -0.099  14.860  0.00  0.00     0.093 H 
ATOM      8  H7  U5P d          40.198  -1.228  14.044  0.00  0.00     0.091 H 
ATOM      9  H8  U5P d          41.395   1.476  13.272  0.00  0.00     0.090 H 
ENDROOT
BRANCH   1  10
ATOM     10  N1  U5P d          37.590  -0.004  12.416  0.00  0.00    -0.280 N 
ATOM     11  C2  U5P d          37.043   0.323  11.175  0.00  0.00     0.331 A 
ATOM     12  N3  U5P d          36.086  -0.450  10.669  0.00  0.00    -0.275 N 
ATOM     13  O2  U5P d          37.438   1.330  10.566  0.00  0.00    -0.246 OA
ATOM     14  C4  U5P d          35.613  -1.533  11.323  0.00  0.00     0.250 A 
ATOM     15  H1  U5P d          35.702  -0.221   9.774  0.00  0.00     0.173 HD
ATOM     16  C5  U5P d          36.146  -1.887  12.564  0.00  0.00    -0.002 A 
ATOM     17  O4  U5P d          34.704  -2.213  10.799  0.00  0.00    -0.268 OA
ATOM     18  C6  U5P d          37.156  -1.087  13.089  0.00  0.00    -0.008 A 
ATOM     19  H2  U5P d          35.784  -2.762  13.102  0.00  0.00     0.094 H 
ATOM     20  H3  U5P d          37.598  -1.338  14.052  0.00  0.00     0.112 H 
ENDBRANCH   1  10
BRANCH   2  21
ATOM     21  O2' U5P d          39.143   1.810  14.987  0.00  0.00    -0.388 OA
ATOM     22  H6  U5P d          38.318   2.280  14.933  0.00  0.00     0.210 HD
ENDBRANCH   2  21
BRANCH   3  23
ATOM     23  O3' U5P d          41.163  -0.020  15.395  0.00  0.00    -0.390 OA
ATOM     24  H9  U5P d          41.422   0.889  15.495  0.00  0.00     0.210 HD
ENDBRANCH   3  23
BRANCH   4  25
ATOM     25  C5' U5P d          42.037  -0.354  12.355  0.00  0.00     0.059 C 
ATOM     26  H10 U5P d          43.024  -0.096  12.766  0.00  0.00     0.079 H 
ATOM     27  H11 U5P d          42.042  -0.200  11.266  0.00  0.00     0.079 H 
BRANCH  25  28
ATOM     28  O5' U5P d          41.719  -1.705  12.658  0.00  0.00    -0.280 OA
BRANCH  28  29
ATOM     29  P   U5P d          41.141  -2.728  11.558  0.00  0.00     0.422 P 
ATOM     30  O1P U5P d          41.956  -3.994  11.732  0.00  0.00    -0.617 OA
ATOM     31  O2P U5P d          41.350  -2.023  10.234  0.00  0.00    -0.617 OA
ATOM     32  O3P U5P d          39.689  -2.828  11.962  0.00  0.00    -0.617 OA
ENDBRANCH  28  29
ENDBRANCH  25  28
ENDBRANCH   4  25
TORSDOF 6
ENDMDL
MODEL 6
REMARK VINA RESULT:      -4.6      3.045      5.281
REMARK  6 active torsions:
REMARK  status: ('A' for Active; 'I' for Inactive)
REMARK    1  A    between atoms: N1_1  and  C1'_9 
REMARK    2  A    between atoms: C2'_10  and  O2'_11 
REMARK    3  A    between atoms: C3'_12  and  O3'_14 
REMARK    4  A    between atoms: C4'_13  and  C5'_16 
REMARK    5  A    between atoms: C5'_16  and  O5'_17 
REMARK    6  A    between atoms: O5'_17  and  P_18 
ROOT
ATOM      1  C1' U5P d          37.720  -0.506  13.679  0.00  0.00     0.141 C 
ATOM      2  C2' U5P d          38.034   0.192  12.378  0.00  0.00     0.105 C 
ATOM      3  C3' U5P d          37.140  -0.515  11.387  0.00  0.00     0.091 C 
ATOM      4  C4' U5P d          35.938  -0.909  12.229  0.00  0.00     0.089 C 
ATOM      5  O4' U5P d          36.521  -1.262  13.490  0.00  0.00    -0.353 OA
ATOM      6  H4  U5P d          37.553   0.252  14.459  0.00  0.00     0.123 H 
ATOM      7  H5  U5P d          39.096   0.134  12.095  0.00  0.00     0.093 H 
ATOM      8  H7  U5P d          37.643  -1.417  11.009  0.00  0.00     0.091 H 
ATOM      9  H8  U5P d          35.258  -0.051  12.347  0.00  0.00     0.090 H 
ENDROOT
BRANCH   1  10
ATOM     10  N1  U5P d          38.798  -1.379  14.109  0.00  0.00    -0.280 N 
ATOM     11  C2  U5P d          39.688  -0.876  15.059  0.00  0.00     0.331 A 
ATOM     12  N3  U5P d          40.674  -1.656  15.495  0.00  0.00    -0.275 N 
ATOM     13  O2  U5P d          39.564   0.288  15.473  0.00  0.00    -0.246 OA
ATOM     14  C4  U5P d          40.853  -2.914  15.038  0.00  0.00     0.250 A 
ATOM     15  H1  U5P d          41.304  -1.298  16.184  0.00  0.00     0.173 HD
ATOM     16  C5  U5P d          39.974  -3.446  14.093  0.00  0.00    -0.002 A 
ATOM     17  O4  U5P d          41.806  -3.593  15.480  0.00  0.00    -0.268 OA
ATOM     18  C6  U5P d          38.935  -2.636  13.644  0.00  0.00    -0.008 A 
ATOM     19  H2  U5P d          40.097  -4.461  13.719  0.00  0.00     0.094 H 
ATOM     20  H3  U5P d          38.228  -3.021  12.911  0.00  0.00     0.112 H 
ENDBRANCH   1  10
BRANCH   2  21
ATOM     21  O2' U5P d          37.609   1.546  12.577  0.00  0.00    -0.388 OA
ATOM     22  H6  U5P d          37.404   1.681  13.495  0.00  0.00     0.210 HD
ENDBRANCH   2  21
BRANCH   3  23
ATOM     23  O3' U5P d          36.788   0.294  10.263  0.00  0.00    -0.390 OA
ATOM     24  H9  U5P d          35.843   0.384  10.223  0.00  0.00     0.210 HD
ENDBRANCH   3  23
BRANCH   4  25
ATOM     25  C5' U5P d          35.156  -2.070  11.628  0.00  0.00     0.059 C 
ATOM     26  H10 U5P d          34.895  -1.851  10.582  0.00  0.00     0.079 H 
ATOM     27  H11 U5P d          34.236  -2.248  12.205  0.00  0.00     0.079 H 
BRANCH  25  28
ATOM     28  O5' U5P d          36.005  -3.208  11.694  0.00  0.00    -0.280 OA
BRANCH  28  29
ATOM     29  P   U5P d          35.558  -4.583  12.400  0.00  0.00     0.422 P 
ATOM     30  O1P U5P d          36.855  -5.288  12.745  0.00  0.00    -0.617 OA
ATOM     31  O2P U5P d          34.717  -5.292  11.359  0.00  0.00    -0.617 OA
ATOM     32  O3P U5P d          34.757  -4.080  13.578  0.00  0.00    -0.617 OA
ENDBRANCH  28  29
ENDBRANCH  25  28
ENDBRANCH   4  25
TORSDOF 6
ENDMDL
MODEL 7
REMARK VINA RESULT:      -4.6      2.985      6.043
REMARK  6 active torsions:
REMARK  status: ('A' for Active; 'I' for Inactive)
REMARK    1  A    between atoms: N1_1  and  C1'_9 
REMARK    2  A    between atoms: C2'_10  and  O2'_11 
REMARK    3  A    between atoms: C3'_12  and  O3'_14 
REMARK    4  A    between atoms: C4'_13  and  C5'_16 
REMARK    5  A    between atoms: C5'_16  and  O5'_17 
REMARK    6  A    between atoms: O5'_17  and  P_18 
ROOT
ATOM      1  C1' U5P d          40.146  -2.865  12.757  0.00  0.00     0.141 C 
ATOM      2  C2' U5P d          39.920  -2.904  14.249  0.00  0.00     0.105 C 
ATOM      3  C3' U5P d          38.483  -3.357  14.364  0.00  0.00     0.091 C 
ATOM      4  C4' U5P d          38.304  -4.242  13.142  0.00  0.00     0.089 C 
ATOM      5  O4' U5P d          39.070  -3.571  12.134  0.00  0.00    -0.353 OA
ATOM      6  H4  U5P d          41.095  -3.372  12.527  0.00  0.00     0.123 H 
ATOM      7  H5  U5P d          40.091  -1.935  14.743  0.00  0.00     0.093 H 
ATOM      8  H7  U5P d          37.812  -2.488  14.299  0.00  0.00     0.091 H 
ATOM      9  H8  U5P d          38.716  -5.245  13.335  0.00  0.00     0.090 H 
ENDROOT
BRANCH   1  10
ATOM     10  N1  U5P d          40.214  -1.507  12.246  0.00  0.00    -0.280 N 
ATOM     11  C2  U5P d          40.792  -1.325  10.989  0.00  0.00     0.331 A 
ATOM     12  N3  U5P d          40.850  -0.099  10.477  0.00  0.00    -0.275 N 
ATOM     13  O2  U5P d          41.257  -2.297  10.370  0.00  0.00    -0.246 OA
ATOM     14  C4  U5P d          40.382   0.981  11.141  0.00  0.00     0.250 A 
ATOM     15  H1  U5P d          41.254   0.028   9.571  0.00  0.00     0.173 HD
ATOM     16  C5  U5P d          39.794   0.828  12.397  0.00  0.00    -0.002 A 
ATOM     17  O4  U5P d          40.476   2.110  10.610  0.00  0.00    -0.268 OA
ATOM     18  C6  U5P d          39.722  -0.456  12.929  0.00  0.00    -0.008 A 
ATOM     19  H2  U5P d          39.404   1.686  12.943  0.00  0.00     0.094 H 
ATOM     20  H3  U5P d          39.263  -0.612  13.904  0.00  0.00     0.112 H 
ENDBRANCH   1  10
BRANCH   2  21
ATOM     21  O2' U5P d          40.816  -3.913  14.728  0.00  0.00    -0.388 OA
ATOM     22  H6  U5P d          41.311  -4.269  13.999  0.00  0.00     0.210 HD
ENDBRANCH   2  21
BRANCH   3  23
ATOM     23  O3' U5P d          38.201  -4.038  15.589  0.00  0.00    -0.390 OA
ATOM     24  H9  U5P d          37.264  -4.170  15.667  0.00  0.00     0.210 HD
ENDBRANCH   3  23
BRANCH   4  25
ATOM     25  C5' U5P d          36.843  -4.388  12.734  0.00  0.00     0.059 C 
ATOM     26  H10 U5P d          36.187  -4.211  13.599  0.00  0.00     0.079 H 
ATOM     27  H11 U5P d          36.659  -5.396  12.334  0.00  0.00     0.079 H 
BRANCH  25  28
ATOM     28  O5' U5P d          36.604  -3.411  11.730  0.00  0.00    -0.280 OA
BRANCH  28  29
ATOM     29  P   U5P d          35.673  -2.123  11.978  0.00  0.00     0.422 P 
ATOM     30  O1P U5P d          34.539  -2.258  10.981  0.00  0.00    -0.617 OA
ATOM     31  O2P U5P d          36.585  -0.938  11.734  0.00  0.00    -0.617 OA
ATOM     32  O3P U5P d          35.288  -2.294  13.429  0.00  0.00    -0.617 OA
ENDBRANCH  28  29
ENDBRANCH  25  28
ENDBRANCH   4  25
TORSDOF 6
ENDMDL
MODEL 8
REMARK VINA RESULT:      -4.4      2.981      5.044
REMARK  6 active torsions:
REMARK  status: ('A' for Active; 'I' for Inactive)
REMARK    1  A    between atoms: N1_1  and  C1'_9 
REMARK    2  A    between atoms: C2'_10  and  O2'_11 
REMARK    3  A    between atoms: C3'_12  and  O3'_14 
REMARK    4  A    between atoms: C4'_13  and  C5'_16 
REMARK    5  A    between atoms: C5'_16  and  O5'_17 
REMARK    6  A    between atoms: O5'_17  and  P_18 
ROOT
ATOM      1  C1' U5P d          38.541   0.075  13.550  0.00  0.00     0.141 C 
ATOM      2  C2' U5P d          38.795   0.547  12.139  0.00  0.00     0.105 C 
ATOM      3  C3' U5P d          37.578   0.056  11.391  0.00  0.00     0.091 C 
ATOM      4  C4' U5P d          36.486   0.097  12.448  0.00  0.00     0.089 C 
ATOM      5  O4' U5P d          37.167  -0.311  13.641  0.00  0.00    -0.353 OA
ATOM      6  H4  U5P d          38.732   0.908  14.244  0.00  0.00     0.123 H 
ATOM      7  H5  U5P d          39.731   0.159  11.710  0.00  0.00     0.093 H 
ATOM      8  H7  U5P d          37.738  -0.980  11.059  0.00  0.00     0.091 H 
ATOM      9  H8  U5P d          36.100   1.122  12.556  0.00  0.00     0.090 H 
ENDROOT
BRANCH   1  10
ATOM     10  N1  U5P d          39.398  -1.038  13.921  0.00  0.00    -0.280 N 
ATOM     11  C2  U5P d          40.771  -0.879  13.731  0.00  0.00     0.331 A 
ATOM     12  N3  U5P d          41.588  -1.868  14.082  0.00  0.00    -0.275 N 
ATOM     13  O2  U5P d          41.213   0.166  13.227  0.00  0.00    -0.246 OA
ATOM     14  C4  U5P d          41.133  -3.029  14.602  0.00  0.00     0.250 A 
ATOM     15  H1  U5P d          42.573  -1.748  13.956  0.00  0.00     0.173 HD
ATOM     16  C5  U5P d          39.766  -3.213  14.808  0.00  0.00    -0.002 A 
ATOM     17  O4  U5P d          41.953  -3.925  14.901  0.00  0.00    -0.268 OA
ATOM     18  C6  U5P d          38.909  -2.175  14.453  0.00  0.00    -0.008 A 
ATOM     19  H2  U5P d          39.381  -4.138  15.234  0.00  0.00     0.094 H 
ATOM     20  H3  U5P d          37.837  -2.283  14.606  0.00  0.00     0.112 H 
ENDBRANCH   1  10
BRANCH   2  21
ATOM     21  O2' U5P d          38.800   1.977  12.227  0.00  0.00    -0.388 OA
ATOM     22  H6  U5P d          38.959   2.346  11.366  0.00  0.00     0.210 HD
ENDBRANCH   2  21
BRANCH   3  23
ATOM     23  O3' U5P d          37.265   0.842  10.240  0.00  0.00    -0.390 OA
ATOM     24  H9  U5P d          36.322   0.907  10.149  0.00  0.00     0.210 HD
ENDBRANCH   3  23
BRANCH   4  25
ATOM     25  C5' U5P d          35.321  -0.829  12.122  0.00  0.00     0.059 C 
ATOM     26  H10 U5P d          35.257  -0.992  11.036  0.00  0.00     0.079 H 
ATOM     27  H11 U5P d          34.377  -0.393  12.483  0.00  0.00     0.079 H 
BRANCH  25  28
ATOM     28  O5' U5P d          35.580  -2.057  12.789  0.00  0.00    -0.280 OA
BRANCH  28  29
ATOM     29  P   U5P d          35.591  -3.472  12.025  0.00  0.00     0.422 P 
ATOM     30  O1P U5P d          35.240  -3.147  10.587  0.00  0.00    -0.617 OA
ATOM     31  O2P U5P d          34.556  -4.307  12.750  0.00  0.00    -0.617 OA
ATOM     32  O3P U5P d          37.009  -3.939  12.259  0.00  0.00    -0.617 OA
ENDBRANCH  28  29
ENDBRANCH  25  28
ENDBRANCH   4  25
TORSDOF 6
ENDMDL
MODEL 9
REMARK VINA RESULT:      -4.2      3.123      6.184
REMARK  6 active torsions:
REMARK  status: ('A' for Active; 'I' for Inactive)
REMARK    1  A    between atoms: N1_1  and  C1'_9 
REMARK    2  A    between atoms: C2'_10  and  O2'_11 
REMARK    3  A    between atoms: C3'_12  and  O3'_14 
REMARK    4  A    between atoms: C4'_13  and  C5'_16 
REMARK    5  A    between atoms: C5'_16  and  O5'_17 
REMARK    6  A    between atoms: O5'_17  and  P_18 
ROOT
ATOM      1  C1' U5P d          40.017  -2.700  13.262  0.00  0.00     0.141 C 
ATOM      2  C2' U5P d          39.483  -2.956  14.650  0.00  0.00     0.105 C 
ATOM      3  C3' U5P d          38.023  -3.256  14.403  0.00  0.00     0.091 C 
ATOM      4  C4' U5P d          38.033  -3.903  13.028  0.00  0.00     0.089 C 
ATOM      5  O4' U5P d          39.043  -3.167  12.325  0.00  0.00    -0.353 OA
ATOM      6  H4  U5P d          40.951  -3.267  13.129  0.00  0.00     0.123 H 
ATOM      7  H5  U5P d          39.623  -2.108  15.336  0.00  0.00     0.093 H 
ATOM      8  H7  U5P d          37.451  -2.318  14.372  0.00  0.00     0.091 H 
ATOM      9  H8  U5P d          38.316  -4.963  13.108  0.00  0.00     0.090 H 
ENDROOT
BRANCH   1  10
ATOM     10  N1  U5P d          40.297  -1.293  13.031  0.00  0.00    -0.280 N 
ATOM     11  C2  U5P d          41.381  -0.737  13.712  0.00  0.00     0.331 A 
ATOM     12  N3  U5P d          41.682   0.543  13.507  0.00  0.00    -0.275 N 
ATOM     13  O2  U5P d          42.038  -1.428  14.507  0.00  0.00    -0.246 OA
ATOM     14  C4  U5P d          40.965   1.327  12.673  0.00  0.00     0.250 A 
ATOM     15  H1  U5P d          42.465   0.937  13.988  0.00  0.00     0.173 HD
ATOM     16  C5  U5P d          39.880   0.796  11.974  0.00  0.00    -0.002 A 
ATOM     17  O4  U5P d          41.293   2.526  12.532  0.00  0.00    -0.268 OA
ATOM     18  C6  U5P d          39.570  -0.546  12.178  0.00  0.00    -0.008 A 
ATOM     19  H2  U5P d          39.296   1.410  11.292  0.00  0.00     0.094 H 
ATOM     20  H3  U5P d          38.734  -0.994  11.645  0.00  0.00     0.112 H 
ENDBRANCH   1  10
BRANCH   2  21
ATOM     21  O2' U5P d          40.178  -4.127  15.098  0.00  0.00    -0.388 OA
ATOM     22  H6  U5P d          40.585  -4.557  14.355  0.00  0.00     0.210 HD
ENDBRANCH   2  21
BRANCH   3  23
ATOM     23  O3' U5P d          37.439  -4.092  15.404  0.00  0.00    -0.390 OA
ATOM     24  H9  U5P d          37.620  -3.729  16.263  0.00  0.00     0.210 HD
ENDBRANCH   3  23
BRANCH   4  25
ATOM     25  C5' U5P d          36.683  -3.811  12.328  0.00  0.00     0.059 C 
ATOM     26  H10 U5P d          35.883  -3.652  13.065  0.00  0.00     0.079 H 
ATOM     27  H11 U5P d          36.483  -4.735  11.764  0.00  0.00     0.079 H 
BRANCH  25  28
ATOM     28  O5' U5P d          36.760  -2.703  11.441  0.00  0.00    -0.280 OA
BRANCH  28  29
ATOM     29  P   U5P d          35.733  -1.467  11.508  0.00  0.00     0.422 P 
ATOM     30  O1P U5P d          36.423  -0.341  10.762  0.00  0.00    -0.617 OA
ATOM     31  O2P U5P d          35.537  -1.211  12.987  0.00  0.00    -0.617 OA
ATOM     32  O3P U5P d          34.511  -2.043  10.831  0.00  0.00    -0.617 OA
ENDBRANCH  28  29
ENDBRANCH  25  28
ENDBRANCH   4  25
TORSDOF 6
ENDMDL
MODEL 10
REMARK VINA RESULT:      -3.9      3.269      6.510
REMARK  6 active torsions:
REMARK  status: ('A' for Active; 'I' for Inactive)
REMARK    1  A    between atoms: N1_1  and  C1'_9 
REMARK    2  A    between atoms: C2'_10  and  O2'_11 
REMARK    3  A    between atoms: C3'_12  and  O3'_14 
REMARK    4  A    between atoms: C4'_13  and  C5'_16 
REMARK    5  A    between atoms: C5'_16  and  O5'_17 
REMARK    6  A    between atoms: O5'_17  and  P_18 
ROOT
ATOM      1  C1' U5P d          39.551  -1.213  12.174  0.00  0.00     0.141 C 
ATOM      2  C2' U5P d          40.653  -2.223  11.971  0.00  0.00     0.105 C 
ATOM      3  C3' U5P d          40.088  -3.476  12.596  0.00  0.00     0.091 C 
ATOM      4  C4' U5P d          38.593  -3.331  12.365  0.00  0.00     0.089 C 
ATOM      5  O4' U5P d          38.367  -1.927  12.543  0.00  0.00    -0.353 OA
ATOM      6  H4  U5P d          39.375  -0.681  11.227  0.00  0.00     0.123 H 
ATOM      7  H5  U5P d          41.610  -1.926  12.427  0.00  0.00     0.093 H 
ATOM      8  H7  U5P d          40.301  -3.482  13.675  0.00  0.00     0.091 H 
ATOM      9  H8  U5P d          38.335  -3.635  11.339  0.00  0.00     0.090 H 
ENDROOT
BRANCH   1  10
ATOM     10  N1  U5P d          39.882  -0.235  13.197  0.00  0.00    -0.280 N 
ATOM     11  C2  U5P d          40.830   0.735  12.870  0.00  0.00     0.331 A 
ATOM     12  N3  U5P d          41.141   1.662  13.773  0.00  0.00    -0.275 N 
ATOM     13  O2  U5P d          41.382   0.717  11.757  0.00  0.00    -0.246 OA
ATOM     14  C4  U5P d          40.582   1.686  15.001  0.00  0.00     0.250 A 
ATOM     15  H1  U5P d          41.812   2.363  13.533  0.00  0.00     0.173 HD
ATOM     16  C5  U5P d          39.626   0.732  15.353  0.00  0.00    -0.002 A 
ATOM     17  O4  U5P d          40.924   2.578  15.809  0.00  0.00    -0.268 OA
ATOM     18  C6  U5P d          39.291  -0.231  14.407  0.00  0.00    -0.008 A 
ATOM     19  H2  U5P d          39.158   0.741  16.337  0.00  0.00     0.094 H 
ATOM     20  H3  U5P d          38.545  -0.987  14.646  0.00  0.00     0.112 H 
ENDBRANCH   1  10
BRANCH   2  21
ATOM     21  O2' U5P d          40.762  -2.364  10.549  0.00  0.00    -0.388 OA
ATOM     22  H6  U5P d          40.570  -1.531  10.133  0.00  0.00     0.210 HD
ENDBRANCH   2  21
BRANCH   3  23
ATOM     23  O3' U5P d          40.621  -4.679  12.037  0.00  0.00    -0.390 OA
ATOM     24  H9  U5P d          39.908  -5.264  11.811  0.00  0.00     0.210 HD
ENDBRANCH   3  23
BRANCH   4  25
ATOM     25  C5' U5P d          37.766  -4.160  13.340  0.00  0.00     0.059 C 
ATOM     26  H10 U5P d          37.380  -3.521  14.149  0.00  0.00     0.079 H 
ATOM     27  H11 U5P d          38.380  -4.965  13.771  0.00  0.00     0.079 H 
BRANCH  25  28
ATOM     28  O5' U5P d          36.689  -4.709  12.593  0.00  0.00    -0.280 OA
BRANCH  28  29
ATOM     29  P   U5P d          35.246  -4.005  12.506  0.00  0.00     0.422 P 
ATOM     30  O1P U5P d          34.247  -5.125  12.717  0.00  0.00    -0.617 OA
ATOM     31  O2P U5P d          35.207  -3.381  11.126  0.00  0.00    -0.617 OA
ATOM     32  O3P U5P d          35.330  -2.988  13.621  0.00  0.00    -0.617 OA
ENDBRANCH  28  29
ENDBRANCH  25  28
ENDBRANCH   4  25
TORSDOF 6
ENDMDL
