MODEL 1
REMARK VINA RESULT:      -9.4      0.000      0.000
REMARK  8 active torsions:
REMARK  status: ('A' for Active; 'I' for Inactive)
REMARK    1  A    between atoms: CAQ_9  and  CAL_10 
REMARK    2  A    between atoms: CAL_10  and  CAP_11 
REMARK       I    between atoms: CAP_11  and  NAM_13 
REMARK    3  A    between atoms: NAM_13  and  CAK_14 
REMARK    4  A    between atoms: CAK_14  and  CAU_15 
REMARK    5  A    between atoms: CAT_17  and  CAA_18 
REMARK    6  A    between atoms: CAV_19  and  OAC_20 
REMARK    7  A    between atoms: CAX_21  and  OAE_22 
REMARK    8  A    between atoms: CAW_23  and  OAD_24 
ROOT
ATOM      1  CAK ZX6 d          -1.865  26.128  27.167  0.00  0.00     0.024 C 
ATOM      2  H10 ZX6 d          -2.890  25.742  27.073  0.00  0.00     0.067 H 
ATOM      3  H11 ZX6 d          -1.152  25.292  27.108  0.00  0.00     0.067 H 
ENDROOT
BRANCH   1   4
ATOM      4  NAM ZX6 d          -1.734  26.737  28.502  0.00  0.00    -0.359 N 
ATOM      5  CAP ZX6 d          -2.632  26.552  29.468  0.00  0.00     0.222 C 
ATOM      6  OAB ZX6 d          -3.713  25.999  29.269  0.00  0.00    -0.273 OA
ATOM      7  H9  ZX6 d          -0.938  27.312  28.691  0.00  0.00     0.162 HD
BRANCH   5   8
ATOM      8  CAL ZX6 d          -2.378  27.177  30.845  0.00  0.00     0.035 C 
ATOM      9  H7  ZX6 d          -2.176  28.249  30.699  0.00  0.00     0.054 H 
ATOM     10  H8  ZX6 d          -3.290  27.054  31.447  0.00  0.00     0.054 H 
BRANCH   8  11
ATOM     11  CAQ ZX6 d          -1.210  26.579  31.633  0.00  0.00    -0.022 A 
ATOM     12  CAS ZX6 d          -0.778  25.258  31.677  0.00  0.00    -0.001 A 
ATOM     13  CAI ZX6 d          -1.177  24.092  31.034  0.00  0.00    -0.070 A 
ATOM     14  CAR ZX6 d           0.311  25.229  32.541  0.00  0.00     0.042 A 
ATOM     15  CAG ZX6 d          -0.485  22.904  31.254  0.00  0.00    -0.082 A 
ATOM     16  H1  ZX6 d          -2.027  24.108  30.361  0.00  0.00     0.084 H 
ATOM     17  CAF ZX6 d           0.602  22.876  32.121  0.00  0.00    -0.081 A 
ATOM     18  H2  ZX6 d          -0.795  21.998  30.748  0.00  0.00     0.083 H 
ATOM     19  CAH ZX6 d           1.000  24.043  32.768  0.00  0.00    -0.056 A 
ATOM     20  H3  ZX6 d           1.138  21.950  32.292  0.00  0.00     0.083 H 
ATOM     21  H4  ZX6 d           1.845  24.027  33.447  0.00  0.00     0.086 H 
ATOM     22  NAO ZX6 d           0.502  26.470  32.977  0.00  0.00    -0.365 N 
ATOM     23  CAJ ZX6 d          -0.408  27.276  32.434  0.00  0.00    -0.015 A 
ATOM     24  H5  ZX6 d           1.240  26.763  33.633  0.00  0.00     0.165 HD
ATOM     25  H6  ZX6 d          -0.485  28.347  32.618  0.00  0.00     0.112 H 
ENDBRANCH   8  11
ENDBRANCH   5   8
ENDBRANCH   1   4
BRANCH   1  26
ATOM     26  CAU ZX6 d          -1.602  27.051  25.971  0.00  0.00     0.144 C 
ATOM     27  NAN ZX6 d          -0.159  27.321  25.834  0.00  0.00    -0.060 N 
ATOM     28  CAT ZX6 d           0.125  28.263  24.736  0.00  0.00     0.126 C 
ATOM     29  H13 ZX6 d           0.318  26.452  25.650  0.00  0.00     0.278 HD
ATOM     30  H14 ZX6 d           0.181  27.715  26.698  0.00  0.00     0.278 HD
ATOM     31  CAV ZX6 d          -0.425  27.787  23.384  0.00  0.00     0.089 C 
ATOM     32  H15 ZX6 d          -0.354  29.223  24.978  0.00  0.00     0.087 H 
ATOM     33  CAX ZX6 d          -1.900  27.401  23.526  0.00  0.00     0.089 C 
ATOM     34  H19 ZX6 d          -0.335  28.606  22.654  0.00  0.00     0.090 H 
ATOM     35  CAW ZX6 d          -2.020  26.379  24.657  0.00  0.00     0.091 C 
ATOM     36  H21 ZX6 d          -2.487  28.298  23.774  0.00  0.00     0.091 H 
ATOM     37  H23 ZX6 d          -1.343  25.535  24.464  0.00  0.00     0.090 H 
ATOM     38  H12 ZX6 d          -2.156  27.991  26.111  0.00  0.00     0.091 H 
BRANCH  28  39
ATOM     39  CAA ZX6 d           1.635  28.482  24.634  0.00  0.00    -0.047 C 
ATOM     40  H16 ZX6 d           1.956  28.351  23.591  0.00  0.00     0.030 H 
ATOM     41  H17 ZX6 d           2.155  27.751  25.272  0.00  0.00     0.030 H 
ATOM     42  H18 ZX6 d           1.881  29.501  24.968  0.00  0.00     0.030 H 
ENDBRANCH  28  39
BRANCH  31  43
ATOM     43  OAC ZX6 d           0.316  26.658  22.912  0.00  0.00    -0.391 OA
ATOM     44  H20 ZX6 d           1.021  26.956  22.349  0.00  0.00     0.210 HD
ENDBRANCH  31  43
BRANCH  33  45
ATOM     45  OAE ZX6 d          -2.413  26.826  22.323  0.00  0.00    -0.390 OA
ATOM     46  H22 ZX6 d          -2.332  27.453  21.614  0.00  0.00     0.210 HD
ENDBRANCH  33  45
BRANCH  35  47
ATOM     47  OAD ZX6 d          -3.364  25.894  24.676  0.00  0.00    -0.391 OA
ATOM     48  H24 ZX6 d          -3.517  25.424  25.486  0.00  0.00     0.210 HD
ENDBRANCH  35  47
ENDBRANCH   1  26
TORSDOF 8
ENDMDL
MODEL 2
REMARK VINA RESULT:      -7.2      1.388      1.572
REMARK  8 active torsions:
REMARK  status: ('A' for Active; 'I' for Inactive)
REMARK    1  A    between atoms: CAQ_9  and  CAL_10 
REMARK    2  A    between atoms: CAL_10  and  CAP_11 
REMARK       I    between atoms: CAP_11  and  NAM_13 
REMARK    3  A    between atoms: NAM_13  and  CAK_14 
REMARK    4  A    between atoms: CAK_14  and  CAU_15 
REMARK    5  A    between atoms: CAT_17  and  CAA_18 
REMARK    6  A    between atoms: CAV_19  and  OAC_20 
REMARK    7  A    between atoms: CAX_21  and  OAE_22 
REMARK    8  A    between atoms: CAW_23  and  OAD_24 
ROOT
ATOM      1  CAK ZX6 d          -1.340  26.015  27.041  0.00  0.00     0.024 C 
ATOM      2  H10 ZX6 d          -2.090  25.263  26.754  0.00  0.00     0.067 H 
ATOM      3  H11 ZX6 d          -0.352  25.537  27.115  0.00  0.00     0.067 H 
ENDROOT
BRANCH   1   4
ATOM      4  NAM ZX6 d          -1.697  26.517  28.380  0.00  0.00    -0.359 N 
ATOM      5  CAP ZX6 d          -2.921  26.392  28.892  0.00  0.00     0.222 C 
ATOM      6  OAB ZX6 d          -3.879  26.000  28.227  0.00  0.00    -0.273 OA
ATOM      7  H9  ZX6 d          -0.993  26.969  28.926  0.00  0.00     0.162 HD
BRANCH   5   8
ATOM      8  CAL ZX6 d          -3.181  26.891  30.318  0.00  0.00     0.035 C 
ATOM      9  H7  ZX6 d          -2.483  27.717  30.521  0.00  0.00     0.054 H 
ATOM     10  H8  ZX6 d          -4.215  27.265  30.364  0.00  0.00     0.054 H 
BRANCH   8  11
ATOM     11  CAQ ZX6 d          -3.009  25.846  31.422  0.00  0.00    -0.022 A 
ATOM     12  CAS ZX6 d          -2.017  24.881  31.557  0.00  0.00    -0.001 A 
ATOM     13  CAI ZX6 d          -0.874  24.567  30.831  0.00  0.00    -0.070 A 
ATOM     14  CAR ZX6 d          -2.310  24.175  32.719  0.00  0.00     0.042 A 
ATOM     15  CAG ZX6 d          -0.028  23.552  31.271  0.00  0.00    -0.082 A 
ATOM     16  H1  ZX6 d          -0.641  25.111  29.923  0.00  0.00     0.084 H 
ATOM     17  CAF ZX6 d          -0.324  22.845  32.431  0.00  0.00    -0.081 A 
ATOM     18  H2  ZX6 d           0.865  23.311  30.706  0.00  0.00     0.083 H 
ATOM     19  CAH ZX6 d          -1.470  23.157  33.157  0.00  0.00    -0.056 A 
ATOM     20  H3  ZX6 d           0.336  22.054  32.770  0.00  0.00     0.083 H 
ATOM     21  H4  ZX6 d          -1.708  22.608  34.061  0.00  0.00     0.086 H 
ATOM     22  NAO ZX6 d          -3.417  24.703  33.233  0.00  0.00    -0.365 N 
ATOM     23  CAJ ZX6 d          -3.834  25.701  32.456  0.00  0.00    -0.015 A 
ATOM     24  H5  ZX6 d          -3.879  24.389  34.098  0.00  0.00     0.165 HD
ATOM     25  H6  ZX6 d          -4.719  26.308  32.640  0.00  0.00     0.112 H 
ENDBRANCH   8  11
ENDBRANCH   5   8
ENDBRANCH   1   4
BRANCH   1  26
ATOM     26  CAU ZX6 d          -1.272  27.059  25.921  0.00  0.00     0.144 C 
ATOM     27  NAN ZX6 d           0.129  27.414  25.631  0.00  0.00    -0.060 N 
ATOM     28  CAT ZX6 d           0.231  28.469  24.606  0.00  0.00     0.126 C 
ATOM     29  H13 ZX6 d           0.612  26.593  25.302  0.00  0.00     0.278 HD
ATOM     30  H14 ZX6 d           0.564  27.742  26.480  0.00  0.00     0.278 HD
ATOM     31  CAV ZX6 d          -0.471  28.095  23.293  0.00  0.00     0.089 C 
ATOM     32  H15 ZX6 d          -0.249  29.377  25.001  0.00  0.00     0.087 H 
ATOM     33  CAX ZX6 d          -1.899  27.622  23.580  0.00  0.00     0.089 C 
ATOM     34  H19 ZX6 d          -0.509  28.983  22.644  0.00  0.00     0.090 H 
ATOM     35  CAW ZX6 d          -1.831  26.493  24.609  0.00  0.00     0.091 C 
ATOM     36  H21 ZX6 d          -2.483  28.460  23.988  0.00  0.00     0.091 H 
ATOM     37  H23 ZX6 d          -1.152  25.707  24.249  0.00  0.00     0.090 H 
ATOM     38  H12 ZX6 d          -1.839  27.951  26.223  0.00  0.00     0.091 H 
BRANCH  28  39
ATOM     39  CAA ZX6 d           1.705  28.775  24.338  0.00  0.00    -0.047 C 
ATOM     40  H16 ZX6 d           2.247  27.836  24.151  0.00  0.00     0.030 H 
ATOM     41  H17 ZX6 d           2.140  29.280  25.212  0.00  0.00     0.030 H 
ATOM     42  H18 ZX6 d           1.790  29.428  23.456  0.00  0.00     0.030 H 
ENDBRANCH  28  39
BRANCH  31  43
ATOM     43  OAC ZX6 d           0.246  27.055  22.620  0.00  0.00    -0.391 OA
ATOM     44  H20 ZX6 d           0.751  27.430  21.908  0.00  0.00     0.210 HD
ENDBRANCH  31  43
BRANCH  33  45
ATOM     45  OAE ZX6 d          -2.541  27.137  22.399  0.00  0.00    -0.390 OA
ATOM     46  H22 ZX6 d          -2.140  26.317  22.137  0.00  0.00     0.210 HD
ENDBRANCH  33  45
BRANCH  35  47
ATOM     47  OAD ZX6 d          -3.140  25.940  24.748  0.00  0.00    -0.391 OA
ATOM     48  H24 ZX6 d          -3.513  26.217  25.576  0.00  0.00     0.210 HD
ENDBRANCH  35  47
ENDBRANCH   1  26
TORSDOF 8
ENDMDL
MODEL 3
REMARK VINA RESULT:      -7.1      1.501      2.261
REMARK  8 active torsions:
REMARK  status: ('A' for Active; 'I' for Inactive)
REMARK    1  A    between atoms: CAQ_9  and  CAL_10 
REMARK    2  A    between atoms: CAL_10  and  CAP_11 
REMARK       I    between atoms: CAP_11  and  NAM_13 
REMARK    3  A    between atoms: NAM_13  and  CAK_14 
REMARK    4  A    between atoms: CAK_14  and  CAU_15 
REMARK    5  A    between atoms: CAT_17  and  CAA_18 
REMARK    6  A    between atoms: CAV_19  and  OAC_20 
REMARK    7  A    between atoms: CAX_21  and  OAE_22 
REMARK    8  A    between atoms: CAW_23  and  OAD_24 
ROOT
ATOM      1  CAK ZX6 d          -2.255  26.064  26.257  0.00  0.00     0.024 C 
ATOM      2  H10 ZX6 d          -3.259  26.002  25.812  0.00  0.00     0.067 H 
ATOM      3  H11 ZX6 d          -1.726  25.112  26.104  0.00  0.00     0.067 H 
ENDROOT
BRANCH   1   4
ATOM      4  NAM ZX6 d          -2.419  26.257  27.709  0.00  0.00    -0.359 N 
ATOM      5  CAP ZX6 d          -3.279  27.134  28.225  0.00  0.00     0.222 C 
ATOM      6  OAB ZX6 d          -3.877  27.959  27.535  0.00  0.00    -0.273 OA
ATOM      7  H9  ZX6 d          -1.863  25.708  28.332  0.00  0.00     0.162 HD
BRANCH   5   8
ATOM      8  CAL ZX6 d          -3.423  27.220  29.749  0.00  0.00     0.035 C 
ATOM      9  H7  ZX6 d          -3.247  28.264  30.049  0.00  0.00     0.054 H 
ATOM     10  H8  ZX6 d          -4.453  26.933  30.010  0.00  0.00     0.054 H 
BRANCH   8  11
ATOM     11  CAQ ZX6 d          -2.470  26.331  30.551  0.00  0.00    -0.022 A 
ATOM     12  CAS ZX6 d          -1.399  26.709  31.354  0.00  0.00    -0.001 A 
ATOM     13  CAI ZX6 d          -0.873  27.935  31.743  0.00  0.00    -0.070 A 
ATOM     14  CAR ZX6 d          -0.848  25.534  31.853  0.00  0.00     0.042 A 
ATOM     15  CAG ZX6 d           0.200  27.981  32.630  0.00  0.00    -0.082 A 
ATOM     16  H1  ZX6 d          -1.296  28.855  31.356  0.00  0.00     0.084 H 
ATOM     17  CAF ZX6 d           0.753  26.805  33.125  0.00  0.00    -0.081 A 
ATOM     18  H2  ZX6 d           0.606  28.938  32.935  0.00  0.00     0.083 H 
ATOM     19  CAH ZX6 d           0.227  25.577  32.733  0.00  0.00    -0.056 A 
ATOM     20  H3  ZX6 d           1.589  26.844  33.814  0.00  0.00     0.083 H 
ATOM     21  H4  ZX6 d           0.655  24.656  33.114  0.00  0.00     0.086 H 
ATOM     22  NAO ZX6 d          -1.561  24.524  31.364  0.00  0.00    -0.365 N 
ATOM     23  CAJ ZX6 d          -2.530  25.002  30.584  0.00  0.00    -0.015 A 
ATOM     24  H5  ZX6 d          -1.391  23.527  31.557  0.00  0.00     0.165 HD
ATOM     25  H6  ZX6 d          -3.262  24.396  30.054  0.00  0.00     0.112 H 
ENDBRANCH   8  11
ENDBRANCH   5   8
ENDBRANCH   1   4
BRANCH   1  26
ATOM     26  CAU ZX6 d          -1.480  27.155  25.511  0.00  0.00     0.144 C 
ATOM     27  NAN ZX6 d          -0.082  27.207  25.979  0.00  0.00    -0.060 N 
ATOM     28  CAT ZX6 d           0.677  28.293  25.332  0.00  0.00     0.126 C 
ATOM     29  H13 ZX6 d           0.364  26.327  25.768  0.00  0.00     0.278 HD
ATOM     30  H14 ZX6 d          -0.078  27.356  26.976  0.00  0.00     0.278 HD
ATOM     31  CAV ZX6 d           0.665  28.199  23.799  0.00  0.00     0.089 C 
ATOM     32  H15 ZX6 d           0.214  29.249  25.616  0.00  0.00     0.087 H 
ATOM     33  CAX ZX6 d          -0.772  28.040  23.296  0.00  0.00     0.089 C 
ATOM     34  H19 ZX6 d           1.093  29.123  23.382  0.00  0.00     0.090 H 
ATOM     35  CAW ZX6 d          -1.399  26.843  24.011  0.00  0.00     0.091 C 
ATOM     36  H21 ZX6 d          -1.341  28.951  23.531  0.00  0.00     0.091 H 
ATOM     37  H23 ZX6 d          -0.764  25.956  23.871  0.00  0.00     0.090 H 
ATOM     38  H12 ZX6 d          -1.973  28.125  25.671  0.00  0.00     0.091 H 
BRANCH  28  39
ATOM     39  CAA ZX6 d           2.118  28.278  25.843  0.00  0.00    -0.047 C 
ATOM     40  H16 ZX6 d           2.276  29.128  26.522  0.00  0.00     0.030 H 
ATOM     41  H17 ZX6 d           2.810  28.357  24.991  0.00  0.00     0.030 H 
ATOM     42  H18 ZX6 d           2.306  27.338  26.383  0.00  0.00     0.030 H 
ENDBRANCH  28  39
BRANCH  31  43
ATOM     43  OAC ZX6 d           1.447  27.084  23.361  0.00  0.00    -0.391 OA
ATOM     44  H20 ZX6 d           1.097  26.285  23.738  0.00  0.00     0.210 HD
ENDBRANCH  31  43
BRANCH  33  45
ATOM     45  OAE ZX6 d          -0.814  27.813  21.886  0.00  0.00    -0.390 OA
ATOM     46  H22 ZX6 d          -0.773  26.879  21.715  0.00  0.00     0.210 HD
ENDBRANCH  33  45
BRANCH  35  47
ATOM     47  OAD ZX6 d          -2.674  26.591  23.420  0.00  0.00    -0.391 OA
ATOM     48  H24 ZX6 d          -2.977  27.374  22.976  0.00  0.00     0.210 HD
ENDBRANCH  35  47
ENDBRANCH   1  26
TORSDOF 8
ENDMDL
MODEL 4
REMARK VINA RESULT:      -6.5      2.351      7.875
REMARK  8 active torsions:
REMARK  status: ('A' for Active; 'I' for Inactive)
REMARK    1  A    between atoms: CAQ_9  and  CAL_10 
REMARK    2  A    between atoms: CAL_10  and  CAP_11 
REMARK       I    between atoms: CAP_11  and  NAM_13 
REMARK    3  A    between atoms: NAM_13  and  CAK_14 
REMARK    4  A    between atoms: CAK_14  and  CAU_15 
REMARK    5  A    between atoms: CAT_17  and  CAA_18 
REMARK    6  A    between atoms: CAV_19  and  OAC_20 
REMARK    7  A    between atoms: CAX_21  and  OAE_22 
REMARK    8  A    between atoms: CAW_23  and  OAD_24 
ROOT
ATOM      1  CAK ZX6 d          -3.009  26.864  30.086  0.00  0.00     0.024 C 
ATOM      2  H10 ZX6 d          -4.090  26.702  30.205  0.00  0.00     0.067 H 
ATOM      3  H11 ZX6 d          -2.814  27.935  29.922  0.00  0.00     0.067 H 
ENDROOT
BRANCH   1   4
ATOM      4  NAM ZX6 d          -2.576  26.139  28.878  0.00  0.00    -0.359 N 
ATOM      5  CAP ZX6 d          -2.954  26.496  27.651  0.00  0.00     0.222 C 
ATOM      6  OAB ZX6 d          -3.817  27.348  27.447  0.00  0.00    -0.273 OA
ATOM      7  H9  ZX6 d          -1.974  25.348  28.984  0.00  0.00     0.162 HD
BRANCH   5   8
ATOM      8  CAL ZX6 d          -2.402  25.718  26.451  0.00  0.00     0.035 C 
ATOM      9  H7  ZX6 d          -1.500  25.181  26.781  0.00  0.00     0.054 H 
ATOM     10  H8  ZX6 d          -3.166  24.991  26.137  0.00  0.00     0.054 H 
BRANCH   8  11
ATOM     11  CAQ ZX6 d          -2.029  26.565  25.233  0.00  0.00    -0.022 A 
ATOM     12  CAS ZX6 d          -0.844  27.248  24.981  0.00  0.00    -0.001 A 
ATOM     13  CAI ZX6 d           0.365  27.362  25.657  0.00  0.00    -0.070 A 
ATOM     14  CAR ZX6 d          -1.004  27.870  23.747  0.00  0.00     0.042 A 
ATOM     15  CAG ZX6 d           1.409  28.095  25.097  0.00  0.00    -0.082 A 
ATOM     16  H1  ZX6 d           0.495  26.882  26.620  0.00  0.00     0.084 H 
ATOM     17  CAF ZX6 d           1.246  28.719  23.865  0.00  0.00    -0.081 A 
ATOM     18  H2  ZX6 d           2.352  28.178  25.624  0.00  0.00     0.083 H 
ATOM     19  CAH ZX6 d           0.034  28.608  23.189  0.00  0.00    -0.056 A 
ATOM     20  H3  ZX6 d           2.060  29.290  23.432  0.00  0.00     0.083 H 
ATOM     21  H4  ZX6 d          -0.100  29.095  22.229  0.00  0.00     0.086 H 
ATOM     22  NAO ZX6 d          -2.221  27.565  23.305  0.00  0.00    -0.365 N 
ATOM     23  CAJ ZX6 d          -2.832  26.786  24.196  0.00  0.00    -0.015 A 
ATOM     24  H5  ZX6 d          -2.626  27.882  22.414  0.00  0.00     0.165 HD
ATOM     25  H6  ZX6 d          -3.840  26.387  24.090  0.00  0.00     0.112 H 
ENDBRANCH   8  11
ENDBRANCH   5   8
ENDBRANCH   1   4
BRANCH   1  26
ATOM     26  CAU ZX6 d          -2.329  26.461  31.399  0.00  0.00     0.144 C 
ATOM     27  NAN ZX6 d          -2.236  24.993  31.503  0.00  0.00    -0.060 N 
ATOM     28  CAT ZX6 d          -1.650  24.566  32.788  0.00  0.00     0.126 C 
ATOM     29  H13 ZX6 d          -1.658  24.650  30.752  0.00  0.00     0.278 HD
ATOM     30  H14 ZX6 d          -3.162  24.603  31.422  0.00  0.00     0.278 HD
ATOM     31  CAV ZX6 d          -0.263  25.174  33.042  0.00  0.00     0.089 C 
ATOM     32  H15 ZX6 d          -2.319  24.898  33.595  0.00  0.00     0.087 H 
ATOM     33  CAX ZX6 d          -0.311  26.691  32.837  0.00  0.00     0.089 C 
ATOM     34  H19 ZX6 d           0.035  24.960  34.079  0.00  0.00     0.090 H 
ATOM     35  CAW ZX6 d          -0.881  26.967  31.446  0.00  0.00     0.091 C 
ATOM     36  H21 ZX6 d          -0.964  27.139  33.601  0.00  0.00     0.091 H 
ATOM     37  H23 ZX6 d          -0.295  26.422  30.692  0.00  0.00     0.090 H 
ATOM     38  H12 ZX6 d          -2.902  26.870  32.244  0.00  0.00     0.091 H 
BRANCH  28  39
ATOM     39  CAA ZX6 d          -1.563  23.040  32.822  0.00  0.00    -0.047 C 
ATOM     40  H16 ZX6 d          -0.617  22.716  32.364  0.00  0.00     0.030 H 
ATOM     41  H17 ZX6 d          -2.406  22.612  32.261  0.00  0.00     0.030 H 
ATOM     42  H18 ZX6 d          -1.602  22.694  33.866  0.00  0.00     0.030 H 
ENDBRANCH  28  39
BRANCH  31  43
ATOM     43  OAC ZX6 d           0.703  24.606  32.152  0.00  0.00    -0.391 OA
ATOM     44  H20 ZX6 d           1.457  25.182  32.097  0.00  0.00     0.210 HD
ENDBRANCH  31  43
BRANCH  33  45
ATOM     45  OAE ZX6 d           0.989  27.277  32.932  0.00  0.00    -0.390 OA
ATOM     46  H22 ZX6 d           1.091  27.680  33.786  0.00  0.00     0.210 HD
ENDBRANCH  33  45
BRANCH  35  47
ATOM     47  OAD ZX6 d          -0.767  28.368  31.190  0.00  0.00    -0.391 OA
ATOM     48  H24 ZX6 d          -1.480  28.645  30.628  0.00  0.00     0.210 HD
ENDBRANCH  35  47
ENDBRANCH   1  26
TORSDOF 8
ENDMDL
