MODEL 1
REMARK VINA RESULT:      -9.6      0.000      0.000
REMARK  10 active torsions:
REMARK  status: ('A' for Active; 'I' for Inactive)
REMARK    1  A    between atoms: C1_1  and  O8_8 
REMARK    2  A    between atoms: C2_2  and  O9_9 
REMARK    3  A    between atoms: C3_3  and  N7_7 
REMARK    4  A    between atoms: C5_5  and  C6_6 
REMARK    5  A    between atoms: C10_10  and  C11_11 
REMARK    6  A    between atoms: C11_11  and  N12_12 
REMARK       I    between atoms: N12_12  and  C13_13 
REMARK    7  A    between atoms: C13_13  and  C14_14 
REMARK    8  A    between atoms: C15_15  and  O21_21 
REMARK    9  A    between atoms: C16_16  and  O22_22 
REMARK   10  A    between atoms: C18_18  and  N20_20 
ROOT
ATOM      1  C6  OZZ d          36.294  -2.332 -10.368  0.00  0.00    -0.075 C 
ATOM      2  C10 OZZ d          37.549  -2.510 -10.012  0.00  0.00    -0.087 C 
ATOM      3  H5  OZZ d          35.567  -2.072  -9.599  0.00  0.00     0.080 H 
ATOM      4  H8  OZZ d          38.272  -2.765 -10.783  0.00  0.00     0.079 H 
ENDROOT
BRANCH   1   5
ATOM      5  C5  OZZ d          35.822  -2.470 -11.771  0.00  0.00     0.084 C 
ATOM      6  C1  OZZ d          37.061  -2.303 -12.757  0.00  0.00     0.092 C 
ATOM      7  C2  OZZ d          36.915  -0.804 -13.008  0.00  0.00     0.105 C 
ATOM      8  H1  OZZ d          38.026  -2.583 -12.308  0.00  0.00     0.091 H 
ATOM      9  C3  OZZ d          35.379  -0.647 -13.209  0.00  0.00     0.137 C 
ATOM     10  H2  OZZ d          37.257  -0.250 -12.122  0.00  0.00     0.093 H 
ATOM     11  O4  OZZ d          34.889  -1.430 -12.082  0.00  0.00    -0.352 OA
ATOM     12  H3  OZZ d          35.090  -1.095 -14.172  0.00  0.00     0.122 H 
ATOM     13  H4  OZZ d          35.353  -3.455 -11.911  0.00  0.00     0.093 H 
BRANCH   6  14
ATOM     14  O8  OZZ d          36.818  -3.036 -13.965  0.00  0.00    -0.390 OA
ATOM     15  H6  OZZ d          35.892  -2.997 -14.176  0.00  0.00     0.210 HD
ENDBRANCH   6  14
BRANCH   7  16
ATOM     16  O9  OZZ d          37.594  -0.263 -14.172  0.00  0.00    -0.388 OA
ATOM     17  H7  OZZ d          37.786   0.657 -14.026  0.00  0.00     0.210 HD
ENDBRANCH   7  16
BRANCH   9  18
ATOM     18  N7  OZZ d          34.792   0.646 -13.136  0.00  0.00    -0.337 N 
ATOM     19  C26 OZZ d          33.718   0.966 -14.029  0.00  0.00    -0.014 A 
ATOM     20  C27 OZZ d          33.129   2.205 -14.018  0.00  0.00    -0.020 A 
ATOM     21  H16 OZZ d          33.363   0.212 -14.730  0.00  0.00     0.111 H 
ATOM     22  C28 OZZ d          33.536   3.218 -13.063  0.00  0.00     0.174 A 
ATOM     23  H17 OZZ d          32.344   2.431 -14.737  0.00  0.00     0.091 H 
ATOM     24  C30 OZZ d          34.677   2.860 -12.189  0.00  0.00    -0.020 A 
ATOM     25  O31 OZZ d          32.931   4.278 -12.967  0.00  0.00    -0.288 OA
ATOM     26  C29 OZZ d          35.221   1.644 -12.284  0.00  0.00    -0.014 A 
ATOM     27  H19 OZZ d          35.070   3.582 -11.475  0.00  0.00     0.091 H 
ATOM     28  H18 OZZ d          36.071   1.423 -11.640  0.00  0.00     0.111 H 
ENDBRANCH   9  18
ENDBRANCH   1   5
BRANCH   2  29
ATOM     29  C11 OZZ d          38.033  -2.379  -8.606  0.00  0.00     0.010 C 
ATOM     30  H9  OZZ d          37.400  -1.662  -8.062  0.00  0.00     0.070 H 
ATOM     31  H10 OZZ d          39.073  -2.024  -8.605  0.00  0.00     0.070 H 
BRANCH  29  32
ATOM     32  N12 OZZ d          37.961  -3.665  -7.971  0.00  0.00    -0.353 N 
ATOM     33  C13 OZZ d          36.822  -4.218  -7.569  0.00  0.00     0.254 C 
ATOM     34  O23 OZZ d          35.721  -3.614  -7.833  0.00  0.00    -0.268 OA
ATOM     35  H11 OZZ d          38.811  -4.170  -7.824  0.00  0.00     0.163 HD
BRANCH  33  36
ATOM     36  C14 OZZ d          36.818  -5.490  -6.830  0.00  0.00     0.070 A 
ATOM     37  C15 OZZ d          35.739  -6.440  -6.917  0.00  0.00     0.114 A 
ATOM     38  C16 OZZ d          35.898  -7.635  -6.183  0.00  0.00     0.102 A 
ATOM     39  C17 OZZ d          36.993  -7.975  -5.395  0.00  0.00    -0.016 A 
ATOM     40  C18 OZZ d          38.060  -7.002  -5.395  0.00  0.00     0.106 A 
ATOM     41  H12 OZZ d          37.041  -8.897  -4.826  0.00  0.00     0.091 H 
ATOM     42  C19 OZZ d          37.910  -5.803  -6.102  0.00  0.00    -0.033 A 
ATOM     43  H13 OZZ d          38.718  -5.083  -6.062  0.00  0.00     0.089 H 
BRANCH  37  44
ATOM     44  O21 OZZ d          34.658  -6.170  -7.592  0.00  0.00    -0.357 OA
ATOM     45  H14 OZZ d          34.088  -6.930  -7.591  0.00  0.00     0.217 HD
ENDBRANCH  37  44
BRANCH  38  46
ATOM     46  O22 OZZ d          34.824  -8.526  -6.257  0.00  0.00    -0.358 OA
ATOM     47  H15 OZZ d          34.420  -8.605  -5.401  0.00  0.00     0.217 HD
ENDBRANCH  38  46
BRANCH  40  48
ATOM     48  N20 OZZ d          39.217  -7.305  -4.575  0.00  0.00    -0.116 N 
ATOM     49  O24 OZZ d          39.439  -8.417  -4.230  0.00  0.00    -0.532 OA
ATOM     50  O25 OZZ d          39.952  -6.384  -4.259  0.00  0.00    -0.532 OA
ENDBRANCH  40  48
ENDBRANCH  33  36
ENDBRANCH  29  32
ENDBRANCH   2  29
TORSDOF 10
ENDMDL
MODEL 2
REMARK VINA RESULT:      -8.2      1.851      3.112
REMARK  10 active torsions:
REMARK  status: ('A' for Active; 'I' for Inactive)
REMARK    1  A    between atoms: C1_1  and  O8_8 
REMARK    2  A    between atoms: C2_2  and  O9_9 
REMARK    3  A    between atoms: C3_3  and  N7_7 
REMARK    4  A    between atoms: C5_5  and  C6_6 
REMARK    5  A    between atoms: C10_10  and  C11_11 
REMARK    6  A    between atoms: C11_11  and  N12_12 
REMARK       I    between atoms: N12_12  and  C13_13 
REMARK    7  A    between atoms: C13_13  and  C14_14 
REMARK    8  A    between atoms: C15_15  and  O21_21 
REMARK    9  A    between atoms: C16_16  and  O22_22 
REMARK   10  A    between atoms: C18_18  and  N20_20 
ROOT
ATOM      1  C6  OZZ d          35.124  -3.508 -11.461  0.00  0.00    -0.075 C 
ATOM      2  C10 OZZ d          34.881  -4.761 -11.142  0.00  0.00    -0.087 C 
ATOM      3  H5  OZZ d          35.103  -2.757 -10.672  0.00  0.00     0.080 H 
ATOM      4  H8  OZZ d          34.907  -5.509 -11.932  0.00  0.00     0.079 H 
ENDROOT
BRANCH   1   5
ATOM      5  C5  OZZ d          35.426  -3.069 -12.850  0.00  0.00     0.084 C 
ATOM      6  C1  OZZ d          36.975  -2.720 -12.961  0.00  0.00     0.092 C 
ATOM      7  C2  OZZ d          36.863  -1.225 -12.668  0.00  0.00     0.105 C 
ATOM      8  H1  OZZ d          37.605  -3.264 -12.243  0.00  0.00     0.091 H 
ATOM      9  C3  OZZ d          35.625  -0.810 -13.515  0.00  0.00     0.137 C 
ATOM     10  H2  OZZ d          36.677  -1.077 -11.594  0.00  0.00     0.093 H 
ATOM     11  O4  OZZ d          34.698  -1.876 -13.158  0.00  0.00    -0.352 OA
ATOM     12  H3  OZZ d          35.888  -0.839 -14.583  0.00  0.00     0.122 H 
ATOM     13  H4  OZZ d          35.162  -3.868 -13.558  0.00  0.00     0.093 H 
BRANCH   6  14
ATOM     14  O8  OZZ d          37.420  -2.930 -14.307  0.00  0.00    -0.390 OA
ATOM     15  H6  OZZ d          36.909  -3.626 -14.704  0.00  0.00     0.210 HD
ENDBRANCH   6  14
BRANCH   7  16
ATOM     16  O9  OZZ d          37.990  -0.393 -13.052  0.00  0.00    -0.388 OA
ATOM     17  H7  OZZ d          37.717   0.216 -13.728  0.00  0.00     0.210 HD
ENDBRANCH   7  16
BRANCH   9  18
ATOM     18  N7  OZZ d          34.986   0.434 -13.257  0.00  0.00    -0.337 N 
ATOM     19  C26 OZZ d          33.902   0.840 -14.103  0.00  0.00    -0.014 A 
ATOM     20  C27 OZZ d          33.264   2.039 -13.915  0.00  0.00    -0.020 A 
ATOM     21  H16 OZZ d          33.579   0.183 -14.910  0.00  0.00     0.111 H 
ATOM     22  C28 OZZ d          33.628   2.916 -12.817  0.00  0.00     0.174 A 
ATOM     23  H17 OZZ d          32.472   2.338 -14.599  0.00  0.00     0.091 H 
ATOM     24  C30 OZZ d          34.780   2.478 -11.997  0.00  0.00    -0.020 A 
ATOM     25  O31 OZZ d          32.980   3.925 -12.572  0.00  0.00    -0.288 OA
ATOM     26  C29 OZZ d          35.373   1.313 -12.265  0.00  0.00    -0.014 A 
ATOM     27  H19 OZZ d          35.142   3.103 -11.181  0.00  0.00     0.091 H 
ATOM     28  H18 OZZ d          36.229   1.033 -11.653  0.00  0.00     0.111 H 
ENDBRANCH   9  18
ENDBRANCH   1   5
BRANCH   2  29
ATOM     29  C11 OZZ d          34.572  -5.213  -9.754  0.00  0.00     0.010 C 
ATOM     30  H9  OZZ d          34.437  -6.305  -9.741  0.00  0.00     0.070 H 
ATOM     31  H10 OZZ d          33.651  -4.726  -9.403  0.00  0.00     0.070 H 
BRANCH  29  32
ATOM     32  N12 OZZ d          35.666  -4.852  -8.895  0.00  0.00    -0.353 N 
ATOM     33  C13 OZZ d          35.891  -5.428  -7.720  0.00  0.00     0.254 C 
ATOM     34  O23 OZZ d          35.148  -6.411  -7.367  0.00  0.00    -0.268 OA
ATOM     35  H11 OZZ d          36.288  -4.130  -9.198  0.00  0.00     0.163 HD
BRANCH  33  36
ATOM     36  C14 OZZ d          36.965  -4.946  -6.836  0.00  0.00     0.070 A 
ATOM     37  C15 OZZ d          37.816  -5.834  -6.087  0.00  0.00     0.114 A 
ATOM     38  C16 OZZ d          38.829  -5.224  -5.316  0.00  0.00     0.102 A 
ATOM     39  C17 OZZ d          39.077  -3.859  -5.217  0.00  0.00    -0.016 A 
ATOM     40  C18 OZZ d          38.221  -3.031  -6.034  0.00  0.00     0.106 A 
ATOM     41  H12 OZZ d          39.851  -3.449  -4.578  0.00  0.00     0.091 H 
ATOM     42  C19 OZZ d          37.199  -3.618  -6.790  0.00  0.00    -0.033 A 
ATOM     43  H13 OZZ d          36.559  -2.967  -7.373  0.00  0.00     0.089 H 
BRANCH  37  44
ATOM     44  O21 OZZ d          37.612  -7.120  -6.086  0.00  0.00    -0.357 OA
ATOM     45  H14 OZZ d          38.099  -7.516  -6.799  0.00  0.00     0.217 HD
ENDBRANCH  37  44
BRANCH  38  46
ATOM     46  O22 OZZ d          39.621  -6.104  -4.572  0.00  0.00    -0.358 OA
ATOM     47  H15 OZZ d          40.420  -5.664  -4.309  0.00  0.00     0.217 HD
ENDBRANCH  38  46
BRANCH  40  48
ATOM     48  N20 OZZ d          38.432  -1.599  -5.954  0.00  0.00    -0.116 N 
ATOM     49  O24 OZZ d          37.720  -0.918  -5.294  0.00  0.00    -0.532 OA
ATOM     50  O25 OZZ d          39.363  -1.121  -6.581  0.00  0.00    -0.532 OA
ENDBRANCH  40  48
ENDBRANCH  33  36
ENDBRANCH  29  32
ENDBRANCH   2  29
TORSDOF 10
ENDMDL
MODEL 3
REMARK VINA RESULT:      -8.1      1.255      2.505
REMARK  10 active torsions:
REMARK  status: ('A' for Active; 'I' for Inactive)
REMARK    1  A    between atoms: C1_1  and  O8_8 
REMARK    2  A    between atoms: C2_2  and  O9_9 
REMARK    3  A    between atoms: C3_3  and  N7_7 
REMARK    4  A    between atoms: C5_5  and  C6_6 
REMARK    5  A    between atoms: C10_10  and  C11_11 
REMARK    6  A    between atoms: C11_11  and  N12_12 
REMARK       I    between atoms: N12_12  and  C13_13 
REMARK    7  A    between atoms: C13_13  and  C14_14 
REMARK    8  A    between atoms: C15_15  and  O21_21 
REMARK    9  A    between atoms: C16_16  and  O22_22 
REMARK   10  A    between atoms: C18_18  and  N20_20 
ROOT
ATOM      1  C6  OZZ d          35.865  -2.605 -10.043  0.00  0.00    -0.075 C 
ATOM      2  C10 OZZ d          37.043  -2.309  -9.535  0.00  0.00    -0.087 C 
ATOM      3  H5  OZZ d          35.031  -2.767  -9.362  0.00  0.00     0.080 H 
ATOM      4  H8  OZZ d          37.873  -2.145 -10.219  0.00  0.00     0.079 H 
ENDROOT
BRANCH   1   5
ATOM      5  C5  OZZ d          35.621  -2.729 -11.505  0.00  0.00     0.084 C 
ATOM      6  C1  OZZ d          37.002  -2.566 -12.280  0.00  0.00     0.092 C 
ATOM      7  C2  OZZ d          36.907  -1.064 -12.539  0.00  0.00     0.105 C 
ATOM      8  H1  OZZ d          37.881  -2.857 -11.687  0.00  0.00     0.091 H 
ATOM      9  C3  OZZ d          35.424  -0.892 -12.978  0.00  0.00     0.137 C 
ATOM     10  H2  OZZ d          37.109  -0.519 -11.604  0.00  0.00     0.093 H 
ATOM     11  O4  OZZ d          34.756  -1.679 -11.950  0.00  0.00    -0.352 OA
ATOM     12  H3  OZZ d          35.288  -1.330 -13.979  0.00  0.00     0.122 H 
ATOM     13  H4  OZZ d          35.172  -3.709 -11.725  0.00  0.00     0.093 H 
BRANCH   6  14
ATOM     14  O8  OZZ d          36.948  -3.288 -13.517  0.00  0.00    -0.390 OA
ATOM     15  H6  OZZ d          36.530  -2.748 -14.179  0.00  0.00     0.210 HD
ENDBRANCH   6  14
BRANCH   7  16
ATOM     16  O9  OZZ d          37.766  -0.519 -13.575  0.00  0.00    -0.388 OA
ATOM     17  H7  OZZ d          38.334   0.144 -13.199  0.00  0.00     0.210 HD
ENDBRANCH   7  16
BRANCH   9  18
ATOM     18  N7  OZZ d          34.842   0.405 -12.988  0.00  0.00    -0.337 N 
ATOM     19  C26 OZZ d          33.719   0.650 -13.844  0.00  0.00    -0.014 A 
ATOM     20  C27 OZZ d          33.132   1.888 -13.911  0.00  0.00    -0.020 A 
ATOM     21  H16 OZZ d          33.325  -0.162 -14.454  0.00  0.00     0.111 H 
ATOM     22  C28 OZZ d          33.592   2.980 -13.074  0.00  0.00     0.174 A 
ATOM     23  H17 OZZ d          32.308   2.053 -14.602  0.00  0.00     0.091 H 
ATOM     24  C30 OZZ d          34.781   2.695 -12.238  0.00  0.00    -0.020 A 
ATOM     25  O31 OZZ d          32.994   4.047 -13.039  0.00  0.00    -0.288 OA
ATOM     26  C29 OZZ d          35.319   1.473 -12.255  0.00  0.00    -0.014 A 
ATOM     27  H19 OZZ d          35.214   3.476 -11.615  0.00  0.00     0.091 H 
ATOM     28  H18 OZZ d          36.203   1.306 -11.642  0.00  0.00     0.111 H 
ENDBRANCH   9  18
ENDBRANCH   1   5
BRANCH   2  29
ATOM     29  C11 OZZ d          37.301  -2.187  -8.070  0.00  0.00     0.010 C 
ATOM     30  H9  OZZ d          36.584  -1.482  -7.625  0.00  0.00     0.070 H 
ATOM     31  H10 OZZ d          38.325  -1.821  -7.905  0.00  0.00     0.070 H 
BRANCH  29  32
ATOM     32  N12 OZZ d          37.147  -3.481  -7.464  0.00  0.00    -0.353 N 
ATOM     33  C13 OZZ d          38.107  -4.077  -6.766  0.00  0.00     0.254 C 
ATOM     34  O23 OZZ d          39.196  -3.437  -6.549  0.00  0.00    -0.268 OA
ATOM     35  H11 OZZ d          36.275  -3.956  -7.574  0.00  0.00     0.163 HD
BRANCH  33  36
ATOM     36  C14 OZZ d          37.930  -5.447  -6.256  0.00  0.00     0.070 A 
ATOM     37  C15 OZZ d          38.856  -6.065  -5.342  0.00  0.00     0.114 A 
ATOM     38  C16 OZZ d          38.529  -7.368  -4.908  0.00  0.00     0.102 A 
ATOM     39  C17 OZZ d          37.405  -8.099  -5.279  0.00  0.00    -0.016 A 
ATOM     40  C18 OZZ d          36.494  -7.400  -6.155  0.00  0.00     0.106 A 
ATOM     41  H12 OZZ d          37.228  -9.113  -4.937  0.00  0.00     0.091 H 
ATOM     42  C19 OZZ d          36.813  -6.115  -6.609  0.00  0.00    -0.033 A 
ATOM     43  H13 OZZ d          36.120  -5.627  -7.285  0.00  0.00     0.089 H 
BRANCH  37  44
ATOM     44  O21 OZZ d          39.956  -5.464  -4.991  0.00  0.00    -0.357 OA
ATOM     45  H14 OZZ d          40.251  -4.906  -5.701  0.00  0.00     0.217 HD
ENDBRANCH  37  44
BRANCH  38  46
ATOM     46  O22 OZZ d          39.459  -7.958  -4.048  0.00  0.00    -0.358 OA
ATOM     47  H15 OZZ d          39.679  -7.348  -3.354  0.00  0.00     0.217 HD
ENDBRANCH  38  46
BRANCH  40  48
ATOM     48  N20 OZZ d          35.314  -8.128  -6.580  0.00  0.00    -0.116 N 
ATOM     49  O24 OZZ d          34.853  -8.983  -5.901  0.00  0.00    -0.532 OA
ATOM     50  O25 OZZ d          34.814  -7.830  -7.652  0.00  0.00    -0.532 OA
ENDBRANCH  40  48
ENDBRANCH  33  36
ENDBRANCH  29  32
ENDBRANCH   2  29
TORSDOF 10
ENDMDL
