MODEL 1
REMARK VINA RESULT:     -10.5      0.000      0.000
REMARK  8 active torsions:
REMARK  status: ('A' for Active; 'I' for Inactive)
REMARK    1  A    between atoms: C4_4  and  N17_5 
REMARK    2  A    between atoms: C10_8  and  C18_9 
REMARK    3  A    between atoms: C18_9  and  C19_10 
REMARK    4  A    between atoms: C19_10  and  N20_11 
REMARK    5  A    between atoms: N20_11  and  C21_12 
REMARK    6  A    between atoms: C21_12  and  C22_13 
REMARK    7  A    between atoms: C12_20  and  N14_21 
REMARK    8  A    between atoms: N14_21  and  C15_22 
ROOT
ATOM      1  C2  AFQ d          18.063  17.103  23.100  0.00  0.00     0.272 C 
ATOM      2  O16 AFQ d          19.183  17.408  23.469  0.00  0.00    -0.267 OA
ATOM      3  N3  AFQ d          17.007  16.922  23.938  0.00  0.00    -0.156 N 
ATOM      4  C4  AFQ d          15.823  16.498  23.402  0.00  0.00     0.679 C 
ATOM      5  N5  AFQ d          15.614  16.399  22.138  0.00  0.00    -0.190 N 
ATOM      6  C6  AFQ d          16.547  16.643  21.171  0.00  0.00     0.073 A 
ATOM      7  C10 AFQ d          16.214  16.526  19.801  0.00  0.00     0.004 A 
ATOM      8  C9  AFQ d          17.258  16.821  18.923  0.00  0.00     0.111 A 
ATOM      9  N11 AFQ d          17.355  16.914  17.575  0.00  0.00    -0.062 NA
ATOM     10  C12 AFQ d          18.542  17.210  17.209  0.00  0.00     0.701 A 
ATOM     11  N13 AFQ d          19.343  17.398  18.276  0.00  0.00    -0.188 N 
ATOM     12  C8  AFQ d          18.501  17.171  19.381  0.00  0.00     0.080 A 
ATOM     13  C7  AFQ d          18.878  17.276  20.719  0.00  0.00    -0.037 A 
ATOM     14  C1  AFQ d          17.839  16.973  21.614  0.00  0.00     0.062 A 
ATOM     15  H1  AFQ d          17.094  17.095  24.918  0.00  0.00     0.187 HD
ATOM     16  H4  AFQ d          14.673  16.115  21.832  0.00  0.00     0.184 HD
ATOM     17  H26 AFQ d          20.341  17.651  18.281  0.00  0.00     0.184 HD
ATOM     18  H27 AFQ d          19.874  17.563  21.036  0.00  0.00     0.088 H 
ENDROOT
BRANCH   7  19
ATOM     19  C18 AFQ d          14.931  15.943  19.238  0.00  0.00    -0.014 C 
ATOM     20  H5  AFQ d          14.668  16.509  18.333  0.00  0.00     0.042 H 
ATOM     21  H6  AFQ d          14.140  16.070  19.992  0.00  0.00     0.042 H 
BRANCH  19  22
ATOM     22  C19 AFQ d          14.999  14.422  18.857  0.00  0.00     0.085 C 
ATOM     23  H7  AFQ d          15.008  13.798  19.762  0.00  0.00     0.076 H 
ATOM     24  H8  AFQ d          15.899  14.214  18.259  0.00  0.00     0.076 H 
BRANCH  22  25
ATOM     25  N20 AFQ d          13.768  14.168  18.057  0.00  0.00    -0.074 N 
ATOM     26  H9  AFQ d          13.025  13.950  18.701  0.00  0.00     0.277 HD
ATOM     27  H10 AFQ d          13.947  13.371  17.467  0.00  0.00     0.277 HD
BRANCH  25  28
ATOM     28  C21 AFQ d          13.296  15.284  17.180  0.00  0.00     0.085 C 
ATOM     29  H11 AFQ d          13.675  15.139  16.158  0.00  0.00     0.076 H 
ATOM     30  H12 AFQ d          13.659  16.245  17.573  0.00  0.00     0.076 H 
BRANCH  28  31
ATOM     31  C22 AFQ d          11.738  15.275  17.170  0.00  0.00    -0.031 C 
ATOM     32  C26 AFQ d          11.124  15.694  18.517  0.00  0.00    -0.060 C 
ATOM     33  C25 AFQ d           9.749  14.982  18.551  0.00  0.00    -0.065 C 
ATOM     34  H14 AFQ d          10.998  16.786  18.565  0.00  0.00     0.033 H 
ATOM     35  H15 AFQ d          11.756  15.361  19.353  0.00  0.00     0.033 H 
ATOM     36  C24 AFQ d           9.999  13.608  17.841  0.00  0.00    -0.065 C 
ATOM     37  H16 AFQ d           8.994  15.568  18.007  0.00  0.00     0.033 H 
ATOM     38  H17 AFQ d           9.417  14.828  19.588  0.00  0.00     0.033 H 
ATOM     39  C23 AFQ d          11.196  13.850  16.904  0.00  0.00    -0.060 C 
ATOM     40  H18 AFQ d           9.112  13.305  17.264  0.00  0.00     0.033 H 
ATOM     41  H19 AFQ d          10.238  12.829  18.581  0.00  0.00     0.033 H 
ATOM     42  H20 AFQ d          11.983  13.109  17.107  0.00  0.00     0.033 H 
ATOM     43  H21 AFQ d          10.872  13.764  15.857  0.00  0.00     0.033 H 
ATOM     44  H13 AFQ d          11.392  15.959  16.381  0.00  0.00     0.042 H 
ENDBRANCH  28  31
ENDBRANCH  25  28
ENDBRANCH  22  25
ENDBRANCH  19  22
ENDBRANCH   7  19
BRANCH   4  45
ATOM     45  N17 AFQ d          14.812  16.243  24.274  0.00  0.00    -0.234 N 
ATOM     46  H2  AFQ d          14.345  15.325  24.266  0.00  0.00     0.174 HD
ATOM     47  H3  AFQ d          14.512  16.969  24.941  0.00  0.00     0.174 HD
ENDBRANCH   4  45
BRANCH  10  48
ATOM     48  N14 AFQ d          19.117  17.364  16.015  0.00  0.00    -0.229 N 
ATOM     49  H22 AFQ d          20.112  17.109  15.943  0.00  0.00     0.177 HD
BRANCH  48  50
ATOM     50  C15 AFQ d          18.480  17.854  14.809  0.00  0.00    -0.005 C 
ATOM     51  H23 AFQ d          17.924  17.035  14.329  0.00  0.00     0.057 H 
ATOM     52  H24 AFQ d          19.247  18.231  14.117  0.00  0.00     0.057 H 
ATOM     53  H25 AFQ d          17.785  18.667  15.065  0.00  0.00     0.057 H 
ENDBRANCH  48  50
ENDBRANCH  10  48
TORSDOF 8
ENDMDL
MODEL 2
REMARK VINA RESULT:      -9.1      1.707      2.321
REMARK  8 active torsions:
REMARK  status: ('A' for Active; 'I' for Inactive)
REMARK    1  A    between atoms: C4_4  and  N17_5 
REMARK    2  A    between atoms: C10_8  and  C18_9 
REMARK    3  A    between atoms: C18_9  and  C19_10 
REMARK    4  A    between atoms: C19_10  and  N20_11 
REMARK    5  A    between atoms: N20_11  and  C21_12 
REMARK    6  A    between atoms: C21_12  and  C22_13 
REMARK    7  A    between atoms: C12_20  and  N14_21 
REMARK    8  A    between atoms: N14_21  and  C15_22 
ROOT
ATOM      1  C2  AFQ d          18.071  17.213  23.109  0.00  0.00     0.272 C 
ATOM      2  O16 AFQ d          19.162  17.614  23.474  0.00  0.00    -0.267 OA
ATOM      3  N3  AFQ d          17.027  16.973  23.946  0.00  0.00    -0.156 N 
ATOM      4  C4  AFQ d          15.883  16.445  23.418  0.00  0.00     0.679 C 
ATOM      5  N5  AFQ d          15.690  16.296  22.156  0.00  0.00    -0.190 N 
ATOM      6  C6  AFQ d          16.608  16.585  21.186  0.00  0.00     0.073 A 
ATOM      7  C10 AFQ d          16.293  16.406  19.819  0.00  0.00     0.004 A 
ATOM      8  C9  AFQ d          17.317  16.758  18.937  0.00  0.00     0.111 A 
ATOM      9  N11 AFQ d          17.415  16.822  17.587  0.00  0.00    -0.062 NA
ATOM     10  C12 AFQ d          18.578  17.199  17.219  0.00  0.00     0.701 A 
ATOM     11  N13 AFQ d          19.355  17.477  18.284  0.00  0.00    -0.188 N 
ATOM     12  C8  AFQ d          18.527  17.215  19.391  0.00  0.00     0.080 A 
ATOM     13  C7  AFQ d          18.885  17.385  20.727  0.00  0.00    -0.037 A 
ATOM     14  C1  AFQ d          17.868  17.027  21.626  0.00  0.00     0.062 A 
ATOM     15  H1  AFQ d          17.094  17.178  24.922  0.00  0.00     0.187 HD
ATOM     16  H4  AFQ d          14.776  15.931  21.853  0.00  0.00     0.184 HD
ATOM     17  H26 AFQ d          20.331  17.807  18.286  0.00  0.00     0.184 HD
ATOM     18  H27 AFQ d          19.854  17.757  21.040  0.00  0.00     0.088 H 
ENDROOT
BRANCH   7  19
ATOM     19  C18 AFQ d          15.063  15.711  19.267  0.00  0.00    -0.014 C 
ATOM     20  H5  AFQ d          14.421  15.429  20.114  0.00  0.00     0.042 H 
ATOM     21  H6  AFQ d          15.392  14.803  18.739  0.00  0.00     0.042 H 
BRANCH  19  22
ATOM     22  C19 AFQ d          14.203  16.566  18.271  0.00  0.00     0.085 C 
ATOM     23  H7  AFQ d          14.586  17.595  18.215  0.00  0.00     0.076 H 
ATOM     24  H8  AFQ d          13.150  16.583  18.586  0.00  0.00     0.076 H 
BRANCH  22  25
ATOM     25  N20 AFQ d          14.344  15.883  16.954  0.00  0.00    -0.074 N 
ATOM     26  H9  AFQ d          14.755  14.978  17.121  0.00  0.00     0.277 HD
ATOM     27  H10 AFQ d          14.968  16.436  16.389  0.00  0.00     0.277 HD
BRANCH  25  28
ATOM     28  C21 AFQ d          13.088  15.672  16.169  0.00  0.00     0.085 C 
ATOM     29  H11 AFQ d          12.334  15.180  16.800  0.00  0.00     0.076 H 
ATOM     30  H12 AFQ d          13.300  15.042  15.292  0.00  0.00     0.076 H 
BRANCH  28  31
ATOM     31  C22 AFQ d          12.561  17.063  15.704  0.00  0.00    -0.031 C 
ATOM     32  C26 AFQ d          11.249  16.973  14.904  0.00  0.00    -0.060 C 
ATOM     33  C25 AFQ d          11.273  18.220  13.986  0.00  0.00    -0.065 C 
ATOM     34  H14 AFQ d          10.379  17.001  15.577  0.00  0.00     0.033 H 
ATOM     35  H15 AFQ d          11.220  16.050  14.306  0.00  0.00     0.033 H 
ATOM     36  C24 AFQ d          12.781  18.398  13.601  0.00  0.00    -0.065 C 
ATOM     37  H16 AFQ d          10.903  19.105  14.523  0.00  0.00     0.033 H 
ATOM     38  H17 AFQ d          10.661  18.054  13.088  0.00  0.00     0.033 H 
ATOM     39  C23 AFQ d          13.571  17.745  14.751  0.00  0.00    -0.060 C 
ATOM     40  H18 AFQ d          13.034  19.466  13.517  0.00  0.00     0.033 H 
ATOM     41  H19 AFQ d          12.999  17.893  12.648  0.00  0.00     0.033 H 
ATOM     42  H20 AFQ d          14.266  16.995  14.346  0.00  0.00     0.033 H 
ATOM     43  H21 AFQ d          14.137  18.514  15.297  0.00  0.00     0.033 H 
ATOM     44  H13 AFQ d          12.404  17.689  16.594  0.00  0.00     0.042 H 
ENDBRANCH  28  31
ENDBRANCH  25  28
ENDBRANCH  22  25
ENDBRANCH  19  22
ENDBRANCH   7  19
BRANCH   4  45
ATOM     45  N17 AFQ d          14.889  16.136  24.291  0.00  0.00    -0.234 N 
ATOM     46  H2  AFQ d          13.905  16.215  24.000  0.00  0.00     0.174 HD
ATOM     47  H3  AFQ d          15.121  15.823  25.245  0.00  0.00     0.174 HD
ENDBRANCH   4  45
BRANCH  10  48
ATOM     48  N14 AFQ d          19.146  17.365  16.023  0.00  0.00    -0.229 N 
ATOM     49  H22 AFQ d          20.146  17.129  15.948  0.00  0.00     0.177 HD
BRANCH  48  50
ATOM     50  C15 AFQ d          18.497  17.843  14.819  0.00  0.00    -0.005 C 
ATOM     51  H23 AFQ d          18.263  16.990  14.165  0.00  0.00     0.057 H 
ATOM     52  H24 AFQ d          19.168  18.537  14.292  0.00  0.00     0.057 H 
ATOM     53  H25 AFQ d          17.567  18.365  15.087  0.00  0.00     0.057 H 
ENDBRANCH  48  50
ENDBRANCH  10  48
TORSDOF 8
ENDMDL
MODEL 3
REMARK VINA RESULT:      -8.2      2.431      5.135
REMARK  8 active torsions:
REMARK  status: ('A' for Active; 'I' for Inactive)
REMARK    1  A    between atoms: C4_4  and  N17_5 
REMARK    2  A    between atoms: C10_8  and  C18_9 
REMARK    3  A    between atoms: C18_9  and  C19_10 
REMARK    4  A    between atoms: C19_10  and  N20_11 
REMARK    5  A    between atoms: N20_11  and  C21_12 
REMARK    6  A    between atoms: C21_12  and  C22_13 
REMARK    7  A    between atoms: C12_20  and  N14_21 
REMARK    8  A    between atoms: N14_21  and  C15_22 
ROOT
ATOM      1  C2  AFQ d          18.056  17.615  14.884  0.00  0.00     0.272 C 
ATOM      2  O16 AFQ d          19.156  18.073  14.630  0.00  0.00    -0.267 OA
ATOM      3  N3  AFQ d          17.125  17.301  13.944  0.00  0.00    -0.156 N 
ATOM      4  C4  AFQ d          15.899  16.872  14.368  0.00  0.00     0.679 C 
ATOM      5  N5  AFQ d          15.626  16.614  15.597  0.00  0.00    -0.190 N 
ATOM      6  C6  AFQ d          16.490  16.785  16.642  0.00  0.00     0.073 A 
ATOM      7  C10 AFQ d          16.102  16.453  17.961  0.00  0.00     0.004 A 
ATOM      8  C9  AFQ d          17.089  16.661  18.925  0.00  0.00     0.111 A 
ATOM      9  N11 AFQ d          17.173  16.409  20.254  0.00  0.00    -0.062 NA
ATOM     10  C12 AFQ d          18.295  16.787  20.733  0.00  0.00     0.701 A 
ATOM     11  N13 AFQ d          19.093  17.277  19.764  0.00  0.00    -0.188 N 
ATOM     12  C8  AFQ d          18.317  17.170  18.594  0.00  0.00     0.080 A 
ATOM     13  C7  AFQ d          18.732  17.531  17.314  0.00  0.00    -0.037 A 
ATOM     14  C1  AFQ d          17.746  17.335  16.334  0.00  0.00     0.062 A 
ATOM     15  H1  AFQ d          17.332  17.381  12.970  0.00  0.00     0.187 HD
ATOM     16  H4  AFQ d          14.686  16.252  15.811  0.00  0.00     0.184 HD
ATOM     17  H26 AFQ d          20.050  17.646  19.858  0.00  0.00     0.184 HD
ATOM     18  H27 AFQ d          19.719  17.924  17.097  0.00  0.00     0.088 H 
ENDROOT
BRANCH   7  19
ATOM     19  C18 AFQ d          14.701  16.090  18.418  0.00  0.00    -0.014 C 
ATOM     20  H5  AFQ d          13.988  16.488  17.681  0.00  0.00     0.042 H 
ATOM     21  H6  AFQ d          14.526  16.570  19.392  0.00  0.00     0.042 H 
BRANCH  19  22
ATOM     22  C19 AFQ d          14.427  14.553  18.577  0.00  0.00     0.085 C 
ATOM     23  H7  AFQ d          14.097  14.324  19.600  0.00  0.00     0.076 H 
ATOM     24  H8  AFQ d          15.333  13.974  18.345  0.00  0.00     0.076 H 
BRANCH  22  25
ATOM     25  N20 AFQ d          13.346  14.250  17.597  0.00  0.00    -0.074 N 
ATOM     26  H9  AFQ d          12.628  13.738  18.084  0.00  0.00     0.277 HD
ATOM     27  H10 AFQ d          13.743  13.669  16.876  0.00  0.00     0.277 HD
BRANCH  25  28
ATOM     28  C21 AFQ d          12.696  15.420  16.930  0.00  0.00     0.085 C 
ATOM     29  H11 AFQ d          12.908  15.397  15.851  0.00  0.00     0.076 H 
ATOM     30  H12 AFQ d          13.085  16.356  17.359  0.00  0.00     0.076 H 
BRANCH  28  31
ATOM     31  C22 AFQ d          11.159  15.330  17.167  0.00  0.00    -0.031 C 
ATOM     32  C26 AFQ d          10.757  15.612  18.626  0.00  0.00    -0.060 C 
ATOM     33  C25 AFQ d           9.435  14.828  18.818  0.00  0.00    -0.065 C 
ATOM     34  H14 AFQ d          10.598  16.689  18.784  0.00  0.00     0.033 H 
ATOM     35  H15 AFQ d          11.530  15.250  19.320  0.00  0.00     0.033 H 
ATOM     36  C24 AFQ d           9.620  13.527  17.965  0.00  0.00    -0.065 C 
ATOM     37  H16 AFQ d           8.579  15.414  18.453  0.00  0.00     0.033 H 
ATOM     38  H17 AFQ d           9.283  14.579  19.878  0.00  0.00     0.033 H 
ATOM     39  C23 AFQ d          10.639  13.902  16.873  0.00  0.00    -0.060 C 
ATOM     40  H18 AFQ d           8.664  13.223  17.514  0.00  0.00     0.033 H 
ATOM     41  H19 AFQ d          10.008  12.708  18.590  0.00  0.00     0.033 H 
ATOM     42  H20 AFQ d          11.477  13.191  16.885  0.00  0.00     0.033 H 
ATOM     43  H21 AFQ d          10.152  13.880  15.887  0.00  0.00     0.033 H 
ATOM     44  H13 AFQ d          10.663  16.053  16.504  0.00  0.00     0.042 H 
ENDBRANCH  28  31
ENDBRANCH  25  28
ENDBRANCH  22  25
ENDBRANCH  19  22
ENDBRANCH   7  19
BRANCH   4  45
ATOM     45  N17 AFQ d          14.962  16.650  13.410  0.00  0.00    -0.234 N 
ATOM     46  H2  AFQ d          15.212  16.132  12.555  0.00  0.00     0.174 HD
ATOM     47  H3  AFQ d          14.001  16.999  13.538  0.00  0.00     0.174 HD
ENDBRANCH   4  45
BRANCH  10  48
ATOM     48  N14 AFQ d          18.807  16.786  21.965  0.00  0.00    -0.229 N 
ATOM     49  H22 AFQ d          19.783  16.468  22.061  0.00  0.00     0.177 HD
BRANCH  48  50
ATOM     50  C15 AFQ d          18.129  17.187  23.181  0.00  0.00    -0.005 C 
ATOM     51  H23 AFQ d          18.633  18.065  23.609  0.00  0.00     0.057 H 
ATOM     52  H24 AFQ d          18.156  16.359  23.905  0.00  0.00     0.057 H 
ATOM     53  H25 AFQ d          17.084  17.439  22.951  0.00  0.00     0.057 H 
ENDBRANCH  48  50
ENDBRANCH  10  48
TORSDOF 8
ENDMDL
MODEL 4
REMARK VINA RESULT:      -8.0      2.598      5.294
REMARK  8 active torsions:
REMARK  status: ('A' for Active; 'I' for Inactive)
REMARK    1  A    between atoms: C4_4  and  N17_5 
REMARK    2  A    between atoms: C10_8  and  C18_9 
REMARK    3  A    between atoms: C18_9  and  C19_10 
REMARK    4  A    between atoms: C19_10  and  N20_11 
REMARK    5  A    between atoms: N20_11  and  C21_12 
REMARK    6  A    between atoms: C21_12  and  C22_13 
REMARK    7  A    between atoms: C12_20  and  N14_21 
REMARK    8  A    between atoms: N14_21  and  C15_22 
ROOT
ATOM      1  C2  AFQ d          17.906  17.510  15.002  0.00  0.00     0.272 C 
ATOM      2  O16 AFQ d          18.999  17.969  14.721  0.00  0.00    -0.267 OA
ATOM      3  N3  AFQ d          16.960  17.177  14.084  0.00  0.00    -0.156 N 
ATOM      4  C4  AFQ d          15.743  16.750  14.538  0.00  0.00     0.679 C 
ATOM      5  N5  AFQ d          15.494  16.510  15.775  0.00  0.00    -0.190 N 
ATOM      6  C6  AFQ d          16.376  16.701  16.801  0.00  0.00     0.073 A 
ATOM      7  C10 AFQ d          16.014  16.388  18.132  0.00  0.00     0.004 A 
ATOM      8  C9  AFQ d          17.018  16.616  19.075  0.00  0.00     0.111 A 
ATOM      9  N11 AFQ d          17.127  16.386  20.405  0.00  0.00    -0.062 NA
ATOM     10  C12 AFQ d          18.256  16.776  20.857  0.00  0.00     0.701 A 
ATOM     11  N13 AFQ d          19.034  17.254  19.867  0.00  0.00    -0.188 N 
ATOM     12  C8  AFQ d          18.238  17.125  18.713  0.00  0.00     0.080 A 
ATOM     13  C7  AFQ d          18.627  17.467  17.420  0.00  0.00    -0.037 A 
ATOM     14  C1  AFQ d          17.624  17.251  16.461  0.00  0.00     0.062 A 
ATOM     15  H1  AFQ d          17.148  17.243  13.105  0.00  0.00     0.187 HD
ATOM     16  H4  AFQ d          14.560  16.148  16.012  0.00  0.00     0.184 HD
ATOM     17  H26 AFQ d          19.991  17.628  19.937  0.00  0.00     0.184 HD
ATOM     18  H27 AFQ d          19.608  17.862  17.178  0.00  0.00     0.088 H 
ENDROOT
BRANCH   7  19
ATOM     19  C18 AFQ d          14.623  16.027  18.620  0.00  0.00    -0.014 C 
ATOM     20  H5  AFQ d          13.898  16.647  18.073  0.00  0.00     0.042 H 
ATOM     21  H6  AFQ d          14.568  16.260  19.694  0.00  0.00     0.042 H 
BRANCH  19  22
ATOM     22  C19 AFQ d          14.218  14.523  18.429  0.00  0.00     0.085 C 
ATOM     23  H7  AFQ d          13.967  14.065  19.396  0.00  0.00     0.076 H 
ATOM     24  H8  AFQ d          15.037  13.960  17.957  0.00  0.00     0.076 H 
BRANCH  22  25
ATOM     25  N20 AFQ d          13.024  14.555  17.538  0.00  0.00    -0.074 N 
ATOM     26  H9  AFQ d          12.940  13.647  17.108  0.00  0.00     0.277 HD
ATOM     27  H10 AFQ d          13.192  15.249  16.827  0.00  0.00     0.277 HD
BRANCH  25  28
ATOM     28  C21 AFQ d          11.713  14.874  18.184  0.00  0.00     0.085 C 
ATOM     29  H11 AFQ d          11.884  15.261  19.199  0.00  0.00     0.076 H 
ATOM     30  H12 AFQ d          11.094  13.966  18.237  0.00  0.00     0.076 H 
BRANCH  28  31
ATOM     31  C22 AFQ d          10.992  15.954  17.323  0.00  0.00    -0.031 C 
ATOM     32  C26 AFQ d          10.244  15.361  16.115  0.00  0.00    -0.060 C 
ATOM     33  C25 AFQ d          10.224  16.508  15.075  0.00  0.00    -0.065 C 
ATOM     34  H14 AFQ d           9.220  15.072  16.395  0.00  0.00     0.033 H 
ATOM     35  H15 AFQ d          10.777  14.484  15.719  0.00  0.00     0.033 H 
ATOM     36  C24 AFQ d          11.599  17.234  15.262  0.00  0.00    -0.065 C 
ATOM     37  H16 AFQ d           9.391  17.197  15.272  0.00  0.00     0.033 H 
ATOM     38  H17 AFQ d          10.134  16.105  14.055  0.00  0.00     0.033 H 
ATOM     39  C23 AFQ d          12.011  16.949  16.719  0.00  0.00    -0.060 C 
ATOM     40  H18 AFQ d          11.489  18.317  15.097  0.00  0.00     0.033 H 
ATOM     41  H19 AFQ d          12.348  16.831  14.563  0.00  0.00     0.033 H 
ATOM     42  H20 AFQ d          13.019  16.509  16.741  0.00  0.00     0.033 H 
ATOM     43  H21 AFQ d          12.006  17.885  17.297  0.00  0.00     0.033 H 
ATOM     44  H13 AFQ d          10.280  16.492  17.966  0.00  0.00     0.042 H 
ENDBRANCH  28  31
ENDBRANCH  25  28
ENDBRANCH  22  25
ENDBRANCH  19  22
ENDBRANCH   7  19
BRANCH   4  45
ATOM     45  N17 AFQ d          14.790  16.508  13.600  0.00  0.00    -0.234 N 
ATOM     46  H2  AFQ d          15.063  16.228  12.648  0.00  0.00     0.174 HD
ATOM     47  H3  AFQ d          13.793  16.605  13.842  0.00  0.00     0.174 HD
ENDBRANCH   4  45
BRANCH  10  48
ATOM     48  N14 AFQ d          18.791  16.796  22.079  0.00  0.00    -0.229 N 
ATOM     49  H22 AFQ d          19.774  16.498  22.161  0.00  0.00     0.177 HD
BRANCH  48  50
ATOM     50  C15 AFQ d          18.128  17.196  23.304  0.00  0.00    -0.005 C 
ATOM     51  H23 AFQ d          18.836  17.127  24.143  0.00  0.00     0.057 H 
ATOM     52  H24 AFQ d          17.272  16.532  23.491  0.00  0.00     0.057 H 
ATOM     53  H25 AFQ d          17.774  18.233  23.207  0.00  0.00     0.057 H 
ENDBRANCH  48  50
ENDBRANCH  10  48
TORSDOF 8
ENDMDL
