MODEL 1
REMARK VINA RESULT:      -5.9      0.000      0.000
REMARK  7 active torsions:
REMARK  status: ('A' for Active; 'I' for Inactive)
REMARK    1  A    between atoms: C1_1  and  O1_8 
REMARK    2  A    between atoms: C2_2  and  O2_9 
REMARK    3  A    between atoms: C3_3  and  O3_10 
REMARK    4  A    between atoms: C4_4  and  O4_11 
REMARK    5  A    between atoms: C5_5  and  C6_6 
REMARK    6  A    between atoms: C6_6  and  O6_13 
REMARK    7  A    between atoms: O1_8  and  C7_7 
ROOT
ATOM      1  C1  MMA d          -4.575 -17.678  -5.920  0.00  0.00     0.158 C 
ATOM      2  C2  MMA d          -3.762 -17.011  -4.797  0.00  0.00     0.110 C 
ATOM      3  C3  MMA d          -4.662 -16.587  -3.634  0.00  0.00     0.092 C 
ATOM      4  C4  MMA d          -5.840 -15.756  -4.143  0.00  0.00     0.090 C 
ATOM      5  C5  MMA d          -6.595 -16.629  -5.138  0.00  0.00     0.089 C 
ATOM      6  O5  MMA d          -5.724 -16.894  -6.255  0.00  0.00    -0.349 OA
ATOM      7  H1  MMA d          -3.942 -17.807  -6.811  0.00  0.00     0.133 H 
ATOM      8  H2  MMA d          -3.011 -17.726  -4.428  0.00  0.00     0.094 H 
ATOM      9  H3  MMA d          -5.031 -17.480  -3.108  0.00  0.00     0.091 H 
ATOM     10  H4  MMA d          -5.462 -14.864  -4.665  0.00  0.00     0.091 H 
ATOM     11  H5  MMA d          -6.853 -17.578  -4.646  0.00  0.00     0.090 H 
ENDROOT
BRANCH   1  12
ATOM     12  O1  MMA d          -5.016 -18.950  -5.438  0.00  0.00    -0.363 OA
BRANCH  12  13
ATOM     13  C7  MMA d          -5.321 -19.854  -6.519  0.00  0.00     0.007 C 
ATOM     14  H8  MMA d          -5.656 -20.817  -6.109  0.00  0.00     0.066 H 
ATOM     15  H9  MMA d          -4.420 -20.010  -7.131  0.00  0.00     0.066 H 
ATOM     16  H10 MMA d          -6.119 -19.424  -7.143  0.00  0.00     0.066 H 
ENDBRANCH  12  13
ENDBRANCH   1  12
BRANCH   2  17
ATOM     17  O2  MMA d          -3.096 -15.838  -5.317  0.00  0.00    -0.388 OA
ATOM     18  H11 MMA d          -2.572 -15.442  -4.630  0.00  0.00     0.210 HD
ENDBRANCH   2  17
BRANCH   3  19
ATOM     19  O3  MMA d          -3.911 -15.749  -2.733  0.00  0.00    -0.390 OA
ATOM     20  H12 MMA d          -3.603 -14.980  -3.199  0.00  0.00     0.210 HD
ENDBRANCH   3  19
BRANCH   5  21
ATOM     21  C6  MMA d          -7.888 -15.982  -5.641  0.00  0.00     0.043 C 
ATOM     22  H6  MMA d          -7.659 -15.062  -6.201  0.00  0.00     0.078 H 
ATOM     23  H7  MMA d          -8.546 -15.740  -4.793  0.00  0.00     0.078 H 
BRANCH  21  24
ATOM     24  O6  MMA d          -8.528 -16.947  -6.509  0.00  0.00    -0.398 OA
ATOM     25  H14 MMA d          -7.949 -17.153  -7.233  0.00  0.00     0.209 HD
ENDBRANCH  21  24
ENDBRANCH   5  21
BRANCH   4  26
ATOM     26  O4  MMA d          -6.659 -15.318  -3.033  0.00  0.00    -0.390 OA
ATOM     27  H13 MMA d          -6.138 -14.780  -2.449  0.00  0.00     0.210 HD
ENDBRANCH   4  26
TORSDOF 7
ENDMDL
