MODEL 1
REMARK VINA RESULT:      -6.4      0.000      0.000
REMARK  7 active torsions:
REMARK  status: ('A' for Active; 'I' for Inactive)
REMARK    1  A    between atoms: C1_1  and  O1_8 
REMARK    2  A    between atoms: C2_2  and  O2_9 
REMARK    3  A    between atoms: C3_3  and  O3_10 
REMARK    4  A    between atoms: C4_4  and  O4_11 
REMARK    5  A    between atoms: C5_5  and  C6_6 
REMARK    6  A    between atoms: C6_6  and  O6_13 
REMARK    7  A    between atoms: O1_8  and  C7_7 
ROOT
ATOM      1  C1  MMA d          -4.394 -17.729  -5.892  0.00  0.00     0.158 C 
ATOM      2  C2  MMA d          -3.613 -17.038  -4.761  0.00  0.00     0.110 C 
ATOM      3  C3  MMA d          -4.546 -16.580  -3.639  0.00  0.00     0.092 C 
ATOM      4  C4  MMA d          -5.703 -15.756  -4.204  0.00  0.00     0.090 C 
ATOM      5  C5  MMA d          -6.432 -16.650  -5.200  0.00  0.00     0.089 C 
ATOM      6  O5  MMA d          -5.528 -16.948  -6.283  0.00  0.00    -0.349 OA
ATOM      7  H1  MMA d          -3.735 -17.884  -6.760  0.00  0.00     0.133 H 
ATOM      8  H2  MMA d          -2.879 -17.747  -4.351  0.00  0.00     0.094 H 
ATOM      9  H3  MMA d          -4.936 -17.457  -3.101  0.00  0.00     0.091 H 
ATOM     10  H4  MMA d          -5.304 -14.880  -4.736  0.00  0.00     0.091 H 
ATOM     11  H5  MMA d          -6.711 -17.585  -4.693  0.00  0.00     0.090 H 
ENDROOT
BRANCH   1  12
ATOM     12  O1  MMA d          -4.859 -18.986  -5.392  0.00  0.00    -0.363 OA
BRANCH  12  13
ATOM     13  C7  MMA d          -4.568 -20.064  -6.306  0.00  0.00     0.007 C 
ATOM     14  H8  MMA d          -3.866 -20.765  -5.834  0.00  0.00     0.066 H 
ATOM     15  H9  MMA d          -4.118 -19.655  -7.223  0.00  0.00     0.066 H 
ATOM     16  H10 MMA d          -5.500 -20.592  -6.558  0.00  0.00     0.066 H 
ENDBRANCH  12  13
ENDBRANCH   1  12
BRANCH   2  17
ATOM     17  O2  MMA d          -2.924 -15.882  -5.289  0.00  0.00    -0.388 OA
ATOM     18  H11 MMA d          -1.986 -16.019  -5.230  0.00  0.00     0.210 HD
ENDBRANCH   2  17
BRANCH   3  19
ATOM     19  O3  MMA d          -3.819 -15.724  -2.735  0.00  0.00    -0.390 OA
ATOM     20  H12 MMA d          -3.854 -14.828  -3.052  0.00  0.00     0.210 HD
ENDBRANCH   3  19
BRANCH   5  21
ATOM     21  C6  MMA d          -7.705 -16.009  -5.760  0.00  0.00     0.043 C 
ATOM     22  H6  MMA d          -7.986 -15.134  -5.155  0.00  0.00     0.078 H 
ATOM     23  H7  MMA d          -8.529 -16.737  -5.755  0.00  0.00     0.078 H 
BRANCH  21  24
ATOM     24  O6  MMA d          -7.407 -15.603  -7.116  0.00  0.00    -0.398 OA
ATOM     25  H14 MMA d          -7.062 -16.345  -7.599  0.00  0.00     0.209 HD
ENDBRANCH  21  24
ENDBRANCH   5  21
BRANCH   4  26
ATOM     26  O4  MMA d          -6.554 -15.286  -3.131  0.00  0.00    -0.390 OA
ATOM     27  H13 MMA d          -6.435 -14.350  -3.022  0.00  0.00     0.210 HD
ENDBRANCH   4  26
TORSDOF 7
ENDMDL
MODEL 2
REMARK VINA RESULT:      -5.5      1.925      3.830
REMARK  7 active torsions:
REMARK  status: ('A' for Active; 'I' for Inactive)
REMARK    1  A    between atoms: C1_1  and  O1_8 
REMARK    2  A    between atoms: C2_2  and  O2_9 
REMARK    3  A    between atoms: C3_3  and  O3_10 
REMARK    4  A    between atoms: C4_4  and  O4_11 
REMARK    5  A    between atoms: C5_5  and  C6_6 
REMARK    6  A    between atoms: C6_6  and  O6_13 
REMARK    7  A    between atoms: O1_8  and  C7_7 
ROOT
ATOM      1  C1  MMA d          -6.817 -18.016  -3.632  0.00  0.00     0.158 C 
ATOM      2  C2  MMA d          -6.912 -16.515  -3.959  0.00  0.00     0.110 C 
ATOM      3  C3  MMA d          -5.781 -16.075  -4.889  0.00  0.00     0.092 C 
ATOM      4  C4  MMA d          -4.427 -16.516  -4.335  0.00  0.00     0.090 C 
ATOM      5  C5  MMA d          -4.479 -18.034  -4.208  0.00  0.00     0.089 C 
ATOM      6  O5  MMA d          -5.488 -18.369  -3.234  0.00  0.00    -0.349 OA
ATOM      7  H1  MMA d          -7.523 -18.267  -2.827  0.00  0.00     0.133 H 
ATOM      8  H2  MMA d          -7.878 -16.319  -4.448  0.00  0.00     0.094 H 
ATOM      9  H3  MMA d          -5.937 -16.505  -5.890  0.00  0.00     0.091 H 
ATOM     10  H4  MMA d          -4.278 -16.079  -3.337  0.00  0.00     0.091 H 
ATOM     11  H5  MMA d          -4.761 -18.458  -5.183  0.00  0.00     0.090 H 
ENDROOT
BRANCH   1  12
ATOM     12  O1  MMA d          -7.143 -18.739  -4.821  0.00  0.00    -0.363 OA
BRANCH  12  13
ATOM     13  C7  MMA d          -8.011 -19.857  -4.545  0.00  0.00     0.007 C 
ATOM     14  H8  MMA d          -8.660 -20.041  -5.413  0.00  0.00     0.066 H 
ATOM     15  H9  MMA d          -8.632 -19.630  -3.665  0.00  0.00     0.066 H 
ATOM     16  H10 MMA d          -7.404 -20.753  -4.344  0.00  0.00     0.066 H 
ENDBRANCH  12  13
ENDBRANCH   1  12
BRANCH   2  17
ATOM     17  O2  MMA d          -6.828 -15.750  -2.735  0.00  0.00    -0.388 OA
ATOM     18  H11 MMA d          -7.038 -16.311  -1.997  0.00  0.00     0.210 HD
ENDBRANCH   2  17
BRANCH   3  19
ATOM     19  O3  MMA d          -5.759 -14.635  -4.962  0.00  0.00    -0.390 OA
ATOM     20  H12 MMA d          -4.964 -14.353  -5.401  0.00  0.00     0.210 HD
ENDBRANCH   3  19
BRANCH   5  21
ATOM     21  C6  MMA d          -3.140 -18.647  -3.787  0.00  0.00     0.043 C 
ATOM     22  H6  MMA d          -2.581 -18.981  -4.674  0.00  0.00     0.078 H 
ATOM     23  H7  MMA d          -3.309 -19.502  -3.116  0.00  0.00     0.078 H 
BRANCH  21  24
ATOM     24  O6  MMA d          -2.405 -17.609  -3.097  0.00  0.00    -0.398 OA
ATOM     25  H14 MMA d          -1.481 -17.830  -3.087  0.00  0.00     0.209 HD
ENDBRANCH  21  24
ENDBRANCH   5  21
BRANCH   4  26
ATOM     26  O4  MMA d          -3.358 -16.054  -5.196  0.00  0.00    -0.390 OA
ATOM     27  H13 MMA d          -3.631 -16.125  -6.103  0.00  0.00     0.210 HD
ENDBRANCH   4  26
TORSDOF 7
ENDMDL
MODEL 3
REMARK VINA RESULT:      -5.2      2.057      3.831
REMARK  7 active torsions:
REMARK  status: ('A' for Active; 'I' for Inactive)
REMARK    1  A    between atoms: C1_1  and  O1_8 
REMARK    2  A    between atoms: C2_2  and  O2_9 
REMARK    3  A    between atoms: C3_3  and  O3_10 
REMARK    4  A    between atoms: C4_4  and  O4_11 
REMARK    5  A    between atoms: C5_5  and  C6_6 
REMARK    6  A    between atoms: C6_6  and  O6_13 
REMARK    7  A    between atoms: O1_8  and  C7_7 
ROOT
ATOM      1  C1  MMA d          -6.871 -18.878  -3.681  0.00  0.00     0.158 C 
ATOM      2  C2  MMA d          -7.952 -17.824  -3.977  0.00  0.00     0.110 C 
ATOM      3  C3  MMA d          -7.413 -16.709  -4.875  0.00  0.00     0.092 C 
ATOM      4  C4  MMA d          -6.114 -16.140  -4.304  0.00  0.00     0.090 C 
ATOM      5  C5  MMA d          -5.130 -17.301  -4.211  0.00  0.00     0.089 C 
ATOM      6  O5  MMA d          -5.651 -18.257  -3.265  0.00  0.00    -0.349 OA
ATOM      7  H1  MMA d          -7.224 -19.563  -2.896  0.00  0.00     0.133 H 
ATOM      8  H2  MMA d          -8.798 -18.314  -4.481  0.00  0.00     0.094 H 
ATOM      9  H3  MMA d          -7.238 -17.102  -5.888  0.00  0.00     0.091 H 
ATOM     10  H4  MMA d          -6.298 -15.747  -3.293  0.00  0.00     0.091 H 
ATOM     11  H5  MMA d          -5.054 -17.775  -5.200  0.00  0.00     0.090 H 
ENDROOT
BRANCH   1  12
ATOM     12  O1  MMA d          -6.625 -19.597  -4.893  0.00  0.00    -0.363 OA
BRANCH  12  13
ATOM     13  C7  MMA d          -7.831 -20.193  -5.414  0.00  0.00     0.007 C 
ATOM     14  H8  MMA d          -7.585 -21.141  -5.913  0.00  0.00     0.066 H 
ATOM     15  H9  MMA d          -8.296 -19.507  -6.137  0.00  0.00     0.066 H 
ATOM     16  H10 MMA d          -8.532 -20.385  -4.587  0.00  0.00     0.066 H 
ENDBRANCH  12  13
ENDBRANCH   1  12
BRANCH   2  17
ATOM     17  O2  MMA d          -8.405 -17.238  -2.735  0.00  0.00    -0.388 OA
ATOM     18  H11 MMA d          -7.653 -16.984  -2.213  0.00  0.00     0.210 HD
ENDBRANCH   2  17
BRANCH   3  19
ATOM     19  O3  MMA d          -8.366 -15.628  -4.915  0.00  0.00    -0.390 OA
ATOM     20  H12 MMA d          -9.224 -15.972  -5.138  0.00  0.00     0.210 HD
ENDBRANCH   3  19
BRANCH   5  21
ATOM     21  C6  MMA d          -3.728 -16.865  -3.777  0.00  0.00     0.043 C 
ATOM     22  H6  MMA d          -3.125 -16.598  -4.658  0.00  0.00     0.078 H 
ATOM     23  H7  MMA d          -3.232 -17.678  -3.227  0.00  0.00     0.078 H 
BRANCH  21  24
ATOM     24  O6  MMA d          -3.896 -15.712  -2.920  0.00  0.00    -0.398 OA
ATOM     25  H14 MMA d          -4.709 -15.271  -3.139  0.00  0.00     0.209 HD
ENDBRANCH  21  24
ENDBRANCH   5  21
BRANCH   4  26
ATOM     26  O4  MMA d          -5.636 -15.054  -5.133  0.00  0.00    -0.390 OA
ATOM     27  H13 MMA d          -6.144 -14.272  -4.952  0.00  0.00     0.210 HD
ENDBRANCH   4  26
TORSDOF 7
ENDMDL
MODEL 4
REMARK VINA RESULT:      -5.0      1.691      1.832
REMARK  7 active torsions:
REMARK  status: ('A' for Active; 'I' for Inactive)
REMARK    1  A    between atoms: C1_1  and  O1_8 
REMARK    2  A    between atoms: C2_2  and  O2_9 
REMARK    3  A    between atoms: C3_3  and  O3_10 
REMARK    4  A    between atoms: C4_4  and  O4_11 
REMARK    5  A    between atoms: C5_5  and  C6_6 
REMARK    6  A    between atoms: C6_6  and  O6_13 
REMARK    7  A    between atoms: O1_8  and  C7_7 
ROOT
ATOM      1  C1  MMA d          -3.689 -17.229  -5.957  0.00  0.00     0.158 C 
ATOM      2  C2  MMA d          -3.461 -17.950  -4.618  0.00  0.00     0.110 C 
ATOM      3  C3  MMA d          -4.752 -18.592  -4.104  0.00  0.00     0.092 C 
ATOM      4  C4  MMA d          -5.889 -17.571  -4.088  0.00  0.00     0.090 C 
ATOM      5  C5  MMA d          -6.051 -17.071  -5.519  0.00  0.00     0.089 C 
ATOM      6  O5  MMA d          -4.841 -16.382  -5.894  0.00  0.00    -0.349 OA
ATOM      7  H1  MMA d          -2.803 -16.628  -6.212  0.00  0.00     0.133 H 
ATOM      8  H2  MMA d          -2.702 -18.734  -4.761  0.00  0.00     0.094 H 
ATOM      9  H3  MMA d          -5.021 -19.445  -4.745  0.00  0.00     0.091 H 
ATOM     10  H4  MMA d          -5.613 -16.724  -3.443  0.00  0.00     0.091 H 
ATOM     11  H5  MMA d          -6.193 -17.939  -6.179  0.00  0.00     0.090 H 
ENDROOT
BRANCH   1  12
ATOM     12  O1  MMA d          -3.914 -18.228  -6.955  0.00  0.00    -0.363 OA
BRANCH  12  13
ATOM     13  C7  MMA d          -2.805 -19.147  -7.049  0.00  0.00     0.007 C 
ATOM     14  H8  MMA d          -2.063 -18.754  -7.758  0.00  0.00     0.066 H 
ATOM     15  H9  MMA d          -3.168 -20.124  -7.402  0.00  0.00     0.066 H 
ATOM     16  H10 MMA d          -2.341 -19.264  -6.058  0.00  0.00     0.066 H 
ENDBRANCH  12  13
ENDBRANCH   1  12
BRANCH   2  17
ATOM     17  O2  MMA d          -2.994 -17.000  -3.633  0.00  0.00    -0.388 OA
ATOM     18  H11 MMA d          -3.578 -16.251  -3.615  0.00  0.00     0.210 HD
ENDBRANCH   2  17
BRANCH   3  19
ATOM     19  O3  MMA d          -4.557 -19.030  -2.745  0.00  0.00    -0.390 OA
ATOM     20  H12 MMA d          -5.205 -19.690  -2.530  0.00  0.00     0.210 HD
ENDBRANCH   3  19
BRANCH   5  21
ATOM     21  C6  MMA d          -7.248 -16.133  -5.694  0.00  0.00     0.043 C 
ATOM     22  H6  MMA d          -7.201 -15.317  -4.958  0.00  0.00     0.078 H 
ATOM     23  H7  MMA d          -8.188 -16.689  -5.565  0.00  0.00     0.078 H 
BRANCH  21  24
ATOM     24  O6  MMA d          -7.167 -15.599  -7.037  0.00  0.00    -0.398 OA
ATOM     25  H14 MMA d          -8.043 -15.443  -7.368  0.00  0.00     0.209 HD
ENDBRANCH  21  24
ENDBRANCH   5  21
BRANCH   4  26
ATOM     26  O4  MMA d          -7.094 -18.172  -3.556  0.00  0.00    -0.390 OA
ATOM     27  H13 MMA d          -7.575 -18.591  -4.260  0.00  0.00     0.210 HD
ENDBRANCH   4  26
TORSDOF 7
ENDMDL
MODEL 5
REMARK VINA RESULT:      -4.8      1.452      3.533
REMARK  7 active torsions:
REMARK  status: ('A' for Active; 'I' for Inactive)
REMARK    1  A    between atoms: C1_1  and  O1_8 
REMARK    2  A    between atoms: C2_2  and  O2_9 
REMARK    3  A    between atoms: C3_3  and  O3_10 
REMARK    4  A    between atoms: C4_4  and  O4_11 
REMARK    5  A    between atoms: C5_5  and  C6_6 
REMARK    6  A    between atoms: C6_6  and  O6_13 
REMARK    7  A    between atoms: O1_8  and  C7_7 
ROOT
ATOM      1  C1  MMA d          -7.087 -18.180  -5.125  0.00  0.00     0.158 C 
ATOM      2  C2  MMA d          -7.021 -17.078  -4.054  0.00  0.00     0.110 C 
ATOM      3  C3  MMA d          -5.873 -16.104  -4.326  0.00  0.00     0.092 C 
ATOM      4  C4  MMA d          -4.563 -16.863  -4.534  0.00  0.00     0.090 C 
ATOM      5  C5  MMA d          -4.783 -17.802  -5.714  0.00  0.00     0.089 C 
ATOM      6  O5  MMA d          -5.796 -18.759  -5.344  0.00  0.00    -0.349 OA
ATOM      7  H1  MMA d          -7.795 -18.962  -4.812  0.00  0.00     0.133 H 
ATOM      8  H2  MMA d          -7.971 -16.523  -4.055  0.00  0.00     0.094 H 
ATOM      9  H3  MMA d          -6.104 -15.500  -5.216  0.00  0.00     0.091 H 
ATOM     10  H4  MMA d          -4.338 -17.461  -3.638  0.00  0.00     0.091 H 
ATOM     11  H5  MMA d          -5.138 -17.211  -6.570  0.00  0.00     0.090 H 
ENDROOT
BRANCH   1  12
ATOM     12  O1  MMA d          -7.525 -17.573  -6.343  0.00  0.00    -0.363 OA
BRANCH  12  13
ATOM     13  C7  MMA d          -8.405 -16.456  -6.097  0.00  0.00     0.007 C 
ATOM     14  H8  MMA d          -7.807 -15.557  -5.890  0.00  0.00     0.066 H 
ATOM     15  H9  MMA d          -9.045 -16.678  -5.230  0.00  0.00     0.066 H 
ATOM     16  H10 MMA d          -9.033 -16.282  -6.983  0.00  0.00     0.066 H 
ENDBRANCH  12  13
ENDBRANCH   1  12
BRANCH   2  17
ATOM     17  O2  MMA d          -6.817 -17.681  -2.755  0.00  0.00    -0.388 OA
ATOM     18  H11 MMA d          -7.391 -17.266  -2.121  0.00  0.00     0.210 HD
ENDBRANCH   2  17
BRANCH   3  19
ATOM     19  O3  MMA d          -5.690 -15.252  -3.177  0.00  0.00    -0.390 OA
ATOM     20  H12 MMA d          -6.475 -15.271  -2.641  0.00  0.00     0.210 HD
ENDBRANCH   3  19
BRANCH   5  21
ATOM     21  C6  MMA d          -3.511 -18.543  -6.135  0.00  0.00     0.043 C 
ATOM     22  H6  MMA d          -3.769 -19.514  -6.585  0.00  0.00     0.078 H 
ATOM     23  H7  MMA d          -2.861 -18.705  -5.263  0.00  0.00     0.078 H 
BRANCH  21  24
ATOM     24  O6  MMA d          -2.842 -17.705  -7.107  0.00  0.00    -0.398 OA
ATOM     25  H14 MMA d          -2.731 -16.832  -6.748  0.00  0.00     0.209 HD
ENDBRANCH  21  24
ENDBRANCH   5  21
BRANCH   4  26
ATOM     26  O4  MMA d          -3.473 -15.933  -4.742  0.00  0.00    -0.390 OA
ATOM     27  H13 MMA d          -3.758 -15.240  -5.327  0.00  0.00     0.210 HD
ENDBRANCH   4  26
TORSDOF 7
ENDMDL
MODEL 6
REMARK VINA RESULT:      -4.7      2.125      3.938
REMARK  7 active torsions:
REMARK  status: ('A' for Active; 'I' for Inactive)
REMARK    1  A    between atoms: C1_1  and  O1_8 
REMARK    2  A    between atoms: C2_2  and  O2_9 
REMARK    3  A    between atoms: C3_3  and  O3_10 
REMARK    4  A    between atoms: C4_4  and  O4_11 
REMARK    5  A    between atoms: C5_5  and  C6_6 
REMARK    6  A    between atoms: C6_6  and  O6_13 
REMARK    7  A    between atoms: O1_8  and  C7_7 
ROOT
ATOM      1  C1  MMA d          -6.837 -18.189  -2.973  0.00  0.00     0.158 C 
ATOM      2  C2  MMA d          -7.859 -17.171  -3.507  0.00  0.00     0.110 C 
ATOM      3  C3  MMA d          -7.597 -16.838  -4.977  0.00  0.00     0.092 C 
ATOM      4  C4  MMA d          -6.137 -16.438  -5.186  0.00  0.00     0.090 C 
ATOM      5  C5  MMA d          -5.289 -17.619  -4.727  0.00  0.00     0.089 C 
ATOM      6  O5  MMA d          -5.502 -17.801  -3.313  0.00  0.00    -0.349 OA
ATOM      7  H1  MMA d          -6.931 -18.273  -1.880  0.00  0.00     0.133 H 
ATOM      8  H2  MMA d          -8.869 -17.595  -3.409  0.00  0.00     0.094 H 
ATOM      9  H3  MMA d          -7.842 -17.709  -5.603  0.00  0.00     0.091 H 
ATOM     10  H4  MMA d          -5.902 -15.565  -4.560  0.00  0.00     0.091 H 
ATOM     11  H5  MMA d          -5.623 -18.519  -5.263  0.00  0.00     0.090 H 
ENDROOT
BRANCH   1  12
ATOM     12  O1  MMA d          -7.116 -19.448  -3.592  0.00  0.00    -0.363 OA
BRANCH  12  13
ATOM     13  C7  MMA d          -8.306 -20.056  -3.051  0.00  0.00     0.007 C 
ATOM     14  H8  MMA d          -9.147 -19.896  -3.741  0.00  0.00     0.066 H 
ATOM     15  H9  MMA d          -8.541 -19.601  -2.077  0.00  0.00     0.066 H 
ATOM     16  H10 MMA d          -8.140 -21.136  -2.921  0.00  0.00     0.066 H 
ENDBRANCH  12  13
ENDBRANCH   1  12
BRANCH   2  17
ATOM     17  O2  MMA d          -7.771 -15.951  -2.735  0.00  0.00    -0.388 OA
ATOM     18  H11 MMA d          -7.281 -16.117  -1.938  0.00  0.00     0.210 HD
ENDBRANCH   2  17
BRANCH   3  19
ATOM     19  O3  MMA d          -8.404 -15.706  -5.359  0.00  0.00    -0.390 OA
ATOM     20  H12 MMA d          -9.010 -15.498  -4.657  0.00  0.00     0.210 HD
ENDBRANCH   3  19
BRANCH   5  21
ATOM     21  C6  MMA d          -3.795 -17.424  -4.997  0.00  0.00     0.043 C 
ATOM     22  H6  MMA d          -3.555 -17.720  -6.030  0.00  0.00     0.078 H 
ATOM     23  H7  MMA d          -3.201 -18.029  -4.296  0.00  0.00     0.078 H 
BRANCH  21  24
ATOM     24  O6  MMA d          -3.515 -16.018  -4.804  0.00  0.00    -0.398 OA
ATOM     25  H14 MMA d          -4.302 -15.577  -4.506  0.00  0.00     0.209 HD
ENDBRANCH  21  24
ENDBRANCH   5  21
BRANCH   4  26
ATOM     26  O4  MMA d          -5.909 -16.078  -6.570  0.00  0.00    -0.390 OA
ATOM     27  H13 MMA d          -5.664 -16.854  -7.061  0.00  0.00     0.210 HD
ENDBRANCH   4  26
TORSDOF 7
ENDMDL
MODEL 7
REMARK VINA RESULT:      -4.6      1.863      3.396
REMARK  7 active torsions:
REMARK  status: ('A' for Active; 'I' for Inactive)
REMARK    1  A    between atoms: C1_1  and  O1_8 
REMARK    2  A    between atoms: C2_2  and  O2_9 
REMARK    3  A    between atoms: C3_3  and  O3_10 
REMARK    4  A    between atoms: C4_4  and  O4_11 
REMARK    5  A    between atoms: C5_5  and  C6_6 
REMARK    6  A    between atoms: C6_6  and  O6_13 
REMARK    7  A    between atoms: O1_8  and  C7_7 
ROOT
ATOM      1  C1  MMA d          -5.731 -15.910  -4.540  0.00  0.00     0.158 C 
ATOM      2  C2  MMA d          -4.253 -16.252  -4.290  0.00  0.00     0.110 C 
ATOM      3  C3  MMA d          -4.002 -17.757  -4.404  0.00  0.00     0.092 C 
ATOM      4  C4  MMA d          -4.988 -18.534  -3.531  0.00  0.00     0.090 C 
ATOM      5  C5  MMA d          -6.386 -18.167  -4.015  0.00  0.00     0.089 C 
ATOM      6  O5  MMA d          -6.591 -16.761  -3.774  0.00  0.00    -0.349 OA
ATOM      7  H1  MMA d          -5.920 -14.859  -4.275  0.00  0.00     0.133 H 
ATOM      8  H2  MMA d          -3.635 -15.728  -5.034  0.00  0.00     0.094 H 
ATOM      9  H3  MMA d          -4.102 -18.070  -5.454  0.00  0.00     0.091 H 
ATOM     10  H4  MMA d          -4.878 -18.217  -2.483  0.00  0.00     0.091 H 
ATOM     11  H5  MMA d          -6.443 -18.361  -5.096  0.00  0.00     0.090 H 
ENDROOT
BRANCH   1  12
ATOM     12  O1  MMA d          -5.997 -16.127  -5.928  0.00  0.00    -0.363 OA
BRANCH  12  13
ATOM     13  C7  MMA d          -7.396 -15.962  -6.236  0.00  0.00     0.007 C 
ATOM     14  H8  MMA d          -7.987 -16.685  -5.656  0.00  0.00     0.066 H 
ATOM     15  H9  MMA d          -7.558 -16.135  -7.310  0.00  0.00     0.066 H 
ATOM     16  H10 MMA d          -7.711 -14.940  -5.977  0.00  0.00     0.066 H 
ENDBRANCH  12  13
ENDBRANCH   1  12
BRANCH   2  17
ATOM     17  O2  MMA d          -3.877 -15.821  -2.961  0.00  0.00    -0.388 OA
ATOM     18  H11 MMA d          -3.381 -15.013  -3.020  0.00  0.00     0.210 HD
ENDBRANCH   2  17
BRANCH   3  19
ATOM     19  O3  MMA d          -2.679 -18.057  -3.917  0.00  0.00    -0.390 OA
ATOM     20  H12 MMA d          -2.033 -17.670  -4.498  0.00  0.00     0.210 HD
ENDBRANCH   3  19
BRANCH   5  21
ATOM     21  C6  MMA d          -7.490 -18.970  -3.323  0.00  0.00     0.043 C 
ATOM     22  H6  MMA d          -8.432 -18.401  -3.326  0.00  0.00     0.078 H 
ATOM     23  H7  MMA d          -7.201 -19.194  -2.286  0.00  0.00     0.078 H 
BRANCH  21  24
ATOM     24  O6  MMA d          -7.646 -20.198  -4.073  0.00  0.00    -0.398 OA
ATOM     25  H14 MMA d          -7.082 -20.175  -4.837  0.00  0.00     0.209 HD
ENDBRANCH  21  24
ENDBRANCH   5  21
BRANCH   4  26
ATOM     26  O4  MMA d          -4.713 -19.953  -3.607  0.00  0.00    -0.390 OA
ATOM     27  H13 MMA d          -3.872 -20.133  -3.204  0.00  0.00     0.210 HD
ENDBRANCH   4  26
TORSDOF 7
ENDMDL
MODEL 8
REMARK VINA RESULT:      -4.5      1.866      2.354
REMARK  7 active torsions:
REMARK  status: ('A' for Active; 'I' for Inactive)
REMARK    1  A    between atoms: C1_1  and  O1_8 
REMARK    2  A    between atoms: C2_2  and  O2_9 
REMARK    3  A    between atoms: C3_3  and  O3_10 
REMARK    4  A    between atoms: C4_4  and  O4_11 
REMARK    5  A    between atoms: C5_5  and  C6_6 
REMARK    6  A    between atoms: C6_6  and  O6_13 
REMARK    7  A    between atoms: O1_8  and  C7_7 
ROOT
ATOM      1  C1  MMA d          -4.863 -17.058  -5.617  0.00  0.00     0.158 C 
ATOM      2  C2  MMA d          -5.222 -16.000  -4.559  0.00  0.00     0.110 C 
ATOM      3  C3  MMA d          -6.229 -16.546  -3.544  0.00  0.00     0.092 C 
ATOM      4  C4  MMA d          -7.432 -17.160  -4.259  0.00  0.00     0.090 C 
ATOM      5  C5  MMA d          -6.892 -18.269  -5.155  0.00  0.00     0.089 C 
ATOM      6  O5  MMA d          -6.043 -17.667  -6.152  0.00  0.00    -0.349 OA
ATOM      7  H1  MMA d          -4.287 -16.591  -6.430  0.00  0.00     0.133 H 
ATOM      8  H2  MMA d          -4.305 -15.701  -4.030  0.00  0.00     0.094 H 
ATOM      9  H3  MMA d          -5.741 -17.302  -2.911  0.00  0.00     0.091 H 
ATOM     10  H4  MMA d          -7.915 -16.397  -4.887  0.00  0.00     0.091 H 
ATOM     11  H5  MMA d          -6.296 -18.957  -4.538  0.00  0.00     0.090 H 
ENDROOT
BRANCH   1  12
ATOM     12  O1  MMA d          -4.082 -18.067  -4.973  0.00  0.00    -0.363 OA
BRANCH  12  13
ATOM     13  C7  MMA d          -3.375 -18.885  -5.927  0.00  0.00     0.007 C 
ATOM     14  H8  MMA d          -2.294 -18.824  -5.732  0.00  0.00     0.066 H 
ATOM     15  H9  MMA d          -3.584 -18.524  -6.945  0.00  0.00     0.066 H 
ATOM     16  H10 MMA d          -3.706 -19.930  -5.832  0.00  0.00     0.066 H 
ENDBRANCH  12  13
ENDBRANCH   1  12
BRANCH   2  17
ATOM     17  O2  MMA d          -5.802 -14.846  -5.210  0.00  0.00    -0.388 OA
ATOM     18  H11 MMA d          -5.116 -14.347  -5.638  0.00  0.00     0.210 HD
ENDBRANCH   2  17
BRANCH   3  19
ATOM     19  O3  MMA d          -6.725 -15.461  -2.736  0.00  0.00    -0.390 OA
ATOM     20  H12 MMA d          -7.232 -14.868  -3.279  0.00  0.00     0.210 HD
ENDBRANCH   3  19
BRANCH   5  21
ATOM     21  C6  MMA d          -7.997 -19.074  -5.843  0.00  0.00     0.043 C 
ATOM     22  H6  MMA d          -8.884 -18.443  -6.001  0.00  0.00     0.078 H 
ATOM     23  H7  MMA d          -8.271 -19.944  -5.228  0.00  0.00     0.078 H 
BRANCH  21  24
ATOM     24  O6  MMA d          -7.463 -19.512  -7.116  0.00  0.00    -0.398 OA
ATOM     25  H14 MMA d          -6.617 -19.105  -7.260  0.00  0.00     0.209 HD
ENDBRANCH  21  24
ENDBRANCH   5  21
BRANCH   4  26
ATOM     26  O4  MMA d          -8.402 -17.631  -3.293  0.00  0.00    -0.390 OA
ATOM     27  H13 MMA d          -8.879 -16.889  -2.938  0.00  0.00     0.210 HD
ENDBRANCH   4  26
TORSDOF 7
ENDMDL
MODEL 9
REMARK VINA RESULT:      -4.3      2.317      3.998
REMARK  7 active torsions:
REMARK  status: ('A' for Active; 'I' for Inactive)
REMARK    1  A    between atoms: C1_1  and  O1_8 
REMARK    2  A    between atoms: C2_2  and  O2_9 
REMARK    3  A    between atoms: C3_3  and  O3_10 
REMARK    4  A    between atoms: C4_4  and  O4_11 
REMARK    5  A    between atoms: C5_5  and  C6_6 
REMARK    6  A    between atoms: C6_6  and  O6_13 
REMARK    7  A    between atoms: O1_8  and  C7_7 
ROOT
ATOM      1  C1  MMA d          -5.833 -19.413  -3.491  0.00  0.00     0.158 C 
ATOM      2  C2  MMA d          -6.771 -19.710  -4.674  0.00  0.00     0.110 C 
ATOM      3  C3  MMA d          -6.513 -18.757  -5.842  0.00  0.00     0.092 C 
ATOM      4  C4  MMA d          -6.537 -17.304  -5.366  0.00  0.00     0.090 C 
ATOM      5  C5  MMA d          -5.457 -17.176  -4.298  0.00  0.00     0.089 C 
ATOM      6  O5  MMA d          -5.824 -18.014  -3.184  0.00  0.00    -0.349 OA
ATOM      7  H1  MMA d          -6.156 -19.983  -2.607  0.00  0.00     0.133 H 
ATOM      8  H2  MMA d          -6.602 -20.744  -5.010  0.00  0.00     0.094 H 
ATOM      9  H3  MMA d          -5.540 -18.987  -6.300  0.00  0.00     0.091 H 
ATOM     10  H4  MMA d          -7.515 -17.082  -4.913  0.00  0.00     0.091 H 
ATOM     11  H5  MMA d          -4.504 -17.529  -4.719  0.00  0.00     0.090 H 
ENDROOT
BRANCH   1  12
ATOM     12  O1  MMA d          -4.513 -19.803  -3.877  0.00  0.00    -0.363 OA
BRANCH  12  13
ATOM     13  C7  MMA d          -3.716 -20.188  -2.738  0.00  0.00     0.007 C 
ATOM     14  H8  MMA d          -4.199 -21.029  -2.220  0.00  0.00     0.066 H 
ATOM     15  H9  MMA d          -3.627 -19.335  -2.048  0.00  0.00     0.066 H 
ATOM     16  H10 MMA d          -2.714 -20.492  -3.077  0.00  0.00     0.066 H 
ENDBRANCH  12  13
ENDBRANCH   1  12
BRANCH   2  17
ATOM     17  O2  MMA d          -8.145 -19.559  -4.249  0.00  0.00    -0.388 OA
ATOM     18  H11 MMA d          -8.599 -18.980  -4.850  0.00  0.00     0.210 HD
ENDBRANCH   2  17
BRANCH   3  19
ATOM     19  O3  MMA d          -7.568 -18.900  -6.814  0.00  0.00    -0.390 OA
ATOM     20  H12 MMA d          -7.215 -19.280  -7.611  0.00  0.00     0.210 HD
ENDBRANCH   3  19
BRANCH   5  21
ATOM     21  C6  MMA d          -5.264 -15.737  -3.811  0.00  0.00     0.043 C 
ATOM     22  H6  MMA d          -6.083 -15.454  -3.132  0.00  0.00     0.078 H 
ATOM     23  H7  MMA d          -5.243 -15.047  -4.667  0.00  0.00     0.078 H 
BRANCH  21  24
ATOM     24  O6  MMA d          -3.999 -15.699  -3.110  0.00  0.00    -0.398 OA
ATOM     25  H14 MMA d          -3.844 -14.820  -2.784  0.00  0.00     0.209 HD
ENDBRANCH  21  24
ENDBRANCH   5  21
BRANCH   4  26
ATOM     26  O4  MMA d          -6.341 -16.407  -6.485  0.00  0.00    -0.390 OA
ATOM     27  H13 MMA d          -6.293 -16.911  -7.288  0.00  0.00     0.210 HD
ENDBRANCH   4  26
TORSDOF 7
ENDMDL
MODEL 10
REMARK VINA RESULT:      -4.2      1.362      3.584
REMARK  7 active torsions:
REMARK  status: ('A' for Active; 'I' for Inactive)
REMARK    1  A    between atoms: C1_1  and  O1_8 
REMARK    2  A    between atoms: C2_2  and  O2_9 
REMARK    3  A    between atoms: C3_3  and  O3_10 
REMARK    4  A    between atoms: C4_4  and  O4_11 
REMARK    5  A    between atoms: C5_5  and  C6_6 
REMARK    6  A    between atoms: C6_6  and  O6_13 
REMARK    7  A    between atoms: O1_8  and  C7_7 
ROOT
ATOM      1  C1  MMA d          -6.263 -16.640  -4.157  0.00  0.00     0.158 C 
ATOM      2  C2  MMA d          -4.949 -15.839  -4.177  0.00  0.00     0.110 C 
ATOM      3  C3  MMA d          -4.051 -16.270  -5.338  0.00  0.00     0.092 C 
ATOM      4  C4  MMA d          -3.867 -17.788  -5.340  0.00  0.00     0.090 C 
ATOM      5  C5  MMA d          -5.259 -18.398  -5.461  0.00  0.00     0.089 C 
ATOM      6  O5  MMA d          -6.009 -18.043  -4.282  0.00  0.00    -0.349 OA
ATOM      7  H1  MMA d          -6.804 -16.444  -3.220  0.00  0.00     0.133 H 
ATOM      8  H2  MMA d          -5.186 -14.770  -4.283  0.00  0.00     0.094 H 
ATOM      9  H3  MMA d          -4.496 -15.943  -6.290  0.00  0.00     0.091 H 
ATOM     10  H4  MMA d          -3.420 -18.105  -4.387  0.00  0.00     0.091 H 
ATOM     11  H5  MMA d          -5.753 -17.971  -6.346  0.00  0.00     0.090 H 
ENDROOT
BRANCH   1  12
ATOM     12  O1  MMA d          -7.043 -16.218  -5.278  0.00  0.00    -0.363 OA
BRANCH  12  13
ATOM     13  C7  MMA d          -8.405 -16.686  -5.187  0.00  0.00     0.007 C 
ATOM     14  H8  MMA d          -8.443 -17.579  -4.548  0.00  0.00     0.066 H 
ATOM     15  H9  MMA d          -8.774 -16.938  -6.192  0.00  0.00     0.066 H 
ATOM     16  H10 MMA d          -9.036 -15.896  -4.752  0.00  0.00     0.066 H 
ENDBRANCH  12  13
ENDBRANCH   1  12
BRANCH   2  17
ATOM     17  O2  MMA d          -4.236 -16.054  -2.937  0.00  0.00    -0.388 OA
ATOM     18  H11 MMA d          -3.302 -16.077  -3.110  0.00  0.00     0.210 HD
ENDBRANCH   2  17
BRANCH   3  19
ATOM     19  O3  MMA d          -2.744 -15.686  -5.170  0.00  0.00    -0.390 OA
ATOM     20  H12 MMA d          -2.767 -14.776  -5.442  0.00  0.00     0.210 HD
ENDBRANCH   3  19
BRANCH   5  21
ATOM     21  C6  MMA d          -5.235 -19.921  -5.611  0.00  0.00     0.043 C 
ATOM     22  H6  MMA d          -6.155 -20.358  -5.195  0.00  0.00     0.078 H 
ATOM     23  H7  MMA d          -4.362 -20.339  -5.088  0.00  0.00     0.078 H 
BRANCH  21  24
ATOM     24  O6  MMA d          -5.146 -20.199  -7.028  0.00  0.00    -0.398 OA
ATOM     25  H14 MMA d          -4.681 -19.492  -7.460  0.00  0.00     0.209 HD
ENDBRANCH  21  24
ENDBRANCH   5  21
BRANCH   4  26
ATOM     26  O4  MMA d          -2.978 -18.183  -6.412  0.00  0.00    -0.390 OA
ATOM     27  H13 MMA d          -3.488 -18.376  -7.190  0.00  0.00     0.210 HD
ENDBRANCH   4  26
TORSDOF 7
ENDMDL
