MODEL 1
REMARK VINA RESULT:     -10.5      0.000      0.000
REMARK  8 active torsions:
REMARK  status: ('A' for Active; 'I' for Inactive)
REMARK    1  A    between atoms: C4_4  and  N17_5 
REMARK    2  A    between atoms: C10_8  and  C18_9 
REMARK    3  A    between atoms: C18_9  and  C19_10 
REMARK    4  A    between atoms: C19_10  and  N20_11 
REMARK    5  A    between atoms: N20_11  and  C21_12 
REMARK    6  A    between atoms: C21_12  and  C22_13 
REMARK    7  A    between atoms: C12_20  and  N14_21 
REMARK    8  A    between atoms: N14_21  and  C15_22 
ROOT
ATOM      1  C2  AFQ d          18.056  17.118  23.099  0.00  0.00     0.272 C 
ATOM      2  O16 AFQ d          19.175  17.428  23.468  0.00  0.00    -0.267 OA
ATOM      3  N3  AFQ d          16.999  16.939  23.935  0.00  0.00    -0.156 N 
ATOM      4  C4  AFQ d          15.817  16.510  23.400  0.00  0.00     0.679 C 
ATOM      5  N5  AFQ d          15.610  16.405  22.136  0.00  0.00    -0.190 N 
ATOM      6  C6  AFQ d          16.545  16.646  21.168  0.00  0.00     0.073 A 
ATOM      7  C10 AFQ d          16.214  16.522  19.799  0.00  0.00     0.004 A 
ATOM      8  C9  AFQ d          17.259  16.816  18.921  0.00  0.00     0.111 A 
ATOM      9  N11 AFQ d          17.358  16.903  17.573  0.00  0.00    -0.062 NA
ATOM     10  C12 AFQ d          18.545  17.200  17.208  0.00  0.00     0.701 A 
ATOM     11  N13 AFQ d          19.344  17.395  18.275  0.00  0.00    -0.188 N 
ATOM     12  C8  AFQ d          18.501  17.170  19.380  0.00  0.00     0.080 A 
ATOM     13  C7  AFQ d          18.875  17.283  20.717  0.00  0.00    -0.037 A 
ATOM     14  C1  AFQ d          17.835  16.982  21.612  0.00  0.00     0.062 A 
ATOM     15  H1  AFQ d          17.084  17.116  24.915  0.00  0.00     0.187 HD
ATOM     16  H4  AFQ d          14.671  16.116  21.829  0.00  0.00     0.184 HD
ATOM     17  H26 AFQ d          20.341  17.650  18.281  0.00  0.00     0.184 HD
ATOM     18  H27 AFQ d          19.869  17.574  21.035  0.00  0.00     0.088 H 
ENDROOT
BRANCH   7  19
ATOM     19  C18 AFQ d          14.933  15.933  19.237  0.00  0.00    -0.014 C 
ATOM     20  H5  AFQ d          14.709  16.448  18.291  0.00  0.00     0.042 H 
ATOM     21  H6  AFQ d          14.125  16.124  19.958  0.00  0.00     0.042 H 
BRANCH  19  22
ATOM     22  C19 AFQ d          14.976  14.391  18.952  0.00  0.00     0.085 C 
ATOM     23  H7  AFQ d          14.861  13.823  19.886  0.00  0.00     0.076 H 
ATOM     24  H8  AFQ d          15.924  14.114  18.468  0.00  0.00     0.076 H 
BRANCH  22  25
ATOM     25  N20 AFQ d          13.827  14.134  18.038  0.00  0.00    -0.074 N 
ATOM     26  H9  AFQ d          13.043  13.853  18.605  0.00  0.00     0.277 HD
ATOM     27  H10 AFQ d          14.088  13.378  17.426  0.00  0.00     0.277 HD
BRANCH  25  28
ATOM     28  C21 AFQ d          13.382  15.277  17.182  0.00  0.00     0.085 C 
ATOM     29  H11 AFQ d          13.744  15.134  16.153  0.00  0.00     0.076 H 
ATOM     30  H12 AFQ d          13.783  16.220  17.583  0.00  0.00     0.076 H 
BRANCH  28  31
ATOM     31  C22 AFQ d          11.824  15.320  17.192  0.00  0.00    -0.031 C 
ATOM     32  C26 AFQ d          11.239  15.631  18.581  0.00  0.00    -0.060 C 
ATOM     33  C25 AFQ d           9.841  14.964  18.566  0.00  0.00    -0.065 C 
ATOM     34  H14 AFQ d          11.151  16.717  18.733  0.00  0.00     0.033 H 
ATOM     35  H15 AFQ d          11.868  15.200  19.374  0.00  0.00     0.033 H 
ATOM     36  C24 AFQ d          10.036  13.656  17.727  0.00  0.00    -0.065 C 
ATOM     37  H16 AFQ d           9.101  15.624  18.090  0.00  0.00     0.033 H 
ATOM     38  H17 AFQ d           9.514  14.725  19.589  0.00  0.00     0.033 H 
ATOM     39  C23 AFQ d          11.232  13.946  16.801  0.00  0.00    -0.060 C 
ATOM     40  H18 AFQ d           9.134  13.439  17.136  0.00  0.00     0.033 H 
ATOM     41  H19 AFQ d          10.257  12.804  18.388  0.00  0.00     0.033 H 
ATOM     42  H20 AFQ d          11.995  13.163  16.923  0.00  0.00     0.033 H 
ATOM     43  H21 AFQ d          10.895  13.970  15.754  0.00  0.00     0.033 H 
ATOM     44  H13 AFQ d          11.494  16.087  16.476  0.00  0.00     0.042 H 
ENDBRANCH  28  31
ENDBRANCH  25  28
ENDBRANCH  22  25
ENDBRANCH  19  22
ENDBRANCH   7  19
BRANCH   4  45
ATOM     45  N17 AFQ d          14.805  16.257  24.270  0.00  0.00    -0.234 N 
ATOM     46  H2  AFQ d          14.900  16.521  25.261  0.00  0.00     0.174 HD
ATOM     47  H3  AFQ d          13.943  15.800  23.939  0.00  0.00     0.174 HD
ENDBRANCH   4  45
BRANCH  10  48
ATOM     48  N14 AFQ d          19.121  17.350  16.014  0.00  0.00    -0.229 N 
ATOM     49  H22 AFQ d          20.096  17.027  15.925  0.00  0.00     0.177 HD
BRANCH  48  50
ATOM     50  C15 AFQ d          18.513  17.920  14.829  0.00  0.00    -0.005 C 
ATOM     51  H23 AFQ d          17.421  17.792  14.879  0.00  0.00     0.057 H 
ATOM     52  H24 AFQ d          18.901  17.410  13.936  0.00  0.00     0.057 H 
ATOM     53  H25 AFQ d          18.754  18.991  14.772  0.00  0.00     0.057 H 
ENDBRANCH  48  50
ENDBRANCH  10  48
TORSDOF 8
ENDMDL
MODEL 2
REMARK VINA RESULT:      -8.2      1.763      2.418
REMARK  8 active torsions:
REMARK  status: ('A' for Active; 'I' for Inactive)
REMARK    1  A    between atoms: C4_4  and  N17_5 
REMARK    2  A    between atoms: C10_8  and  C18_9 
REMARK    3  A    between atoms: C18_9  and  C19_10 
REMARK    4  A    between atoms: C19_10  and  N20_11 
REMARK    5  A    between atoms: N20_11  and  C21_12 
REMARK    6  A    between atoms: C21_12  and  C22_13 
REMARK    7  A    between atoms: C12_20  and  N14_21 
REMARK    8  A    between atoms: N14_21  and  C15_22 
ROOT
ATOM      1  C2  AFQ d          18.585  17.093  20.591  0.00  0.00     0.272 C 
ATOM      2  O16 AFQ d          19.753  17.403  20.741  0.00  0.00    -0.267 OA
ATOM      3  N3  AFQ d          17.725  16.840  21.613  0.00  0.00    -0.156 N 
ATOM      4  C4  AFQ d          16.462  16.420  21.306  0.00  0.00     0.679 C 
ATOM      5  N5  AFQ d          15.999  16.388  20.107  0.00  0.00    -0.190 N 
ATOM      6  C6  AFQ d          16.711  16.709  18.986  0.00  0.00     0.073 A 
ATOM      7  C10 AFQ d          16.105  16.663  17.709  0.00  0.00     0.004 A 
ATOM      8  C9  AFQ d          16.944  17.033  16.656  0.00  0.00     0.111 A 
ATOM      9  N11 AFQ d          16.761  17.205  15.325  0.00  0.00    -0.062 NA
ATOM     10  C12 AFQ d          17.845  17.549  14.743  0.00  0.00     0.701 A 
ATOM     11  N13 AFQ d          18.845  17.695  15.634  0.00  0.00    -0.188 N 
ATOM     12  C8  AFQ d          18.251  17.385  16.871  0.00  0.00     0.080 A 
ATOM     13  C7  AFQ d          18.892  17.422  18.108  0.00  0.00    -0.037 A 
ATOM     14  C1  AFQ d          18.063  17.044  19.176  0.00  0.00     0.062 A 
ATOM     15  H1  AFQ d          18.009  16.958  22.564  0.00  0.00     0.187 HD
ATOM     16  H4  AFQ d          15.018  16.100  19.982  0.00  0.00     0.184 HD
ATOM     17  H26 AFQ d          19.821  17.971  15.451  0.00  0.00     0.184 HD
ATOM     18  H27 AFQ d          19.929  17.713  18.232  0.00  0.00     0.088 H 
ENDROOT
BRANCH   7  19
ATOM     19  C18 AFQ d          14.741  16.083  17.385  0.00  0.00    -0.014 C 
ATOM     20  H5  AFQ d          14.383  15.539  18.271  0.00  0.00     0.042 H 
ATOM     21  H6  AFQ d          14.860  15.381  16.547  0.00  0.00     0.042 H 
BRANCH  19  22
ATOM     22  C19 AFQ d          13.647  17.135  16.986  0.00  0.00     0.085 C 
ATOM     23  H7  AFQ d          14.024  18.158  17.129  0.00  0.00     0.076 H 
ATOM     24  H8  AFQ d          12.736  16.992  17.587  0.00  0.00     0.076 H 
BRANCH  22  25
ATOM     25  N20 AFQ d          13.369  16.876  15.545  0.00  0.00    -0.074 N 
ATOM     26  H9  AFQ d          14.077  17.351  15.008  0.00  0.00     0.277 HD
ATOM     27  H10 AFQ d          12.466  17.269  15.333  0.00  0.00     0.277 HD
BRANCH  25  28
ATOM     28  C21 AFQ d          13.354  15.445  15.111  0.00  0.00     0.085 C 
ATOM     29  H11 AFQ d          14.090  14.872  15.694  0.00  0.00     0.076 H 
ATOM     30  H12 AFQ d          13.602  15.378  14.041  0.00  0.00     0.076 H 
BRANCH  28  31
ATOM     31  C22 AFQ d          11.926  14.872  15.356  0.00  0.00    -0.031 C 
ATOM     32  C26 AFQ d          10.881  15.964  15.647  0.00  0.00    -0.060 C 
ATOM     33  C25 AFQ d           9.811  15.250  16.511  0.00  0.00    -0.065 C 
ATOM     34  H14 AFQ d          10.439  16.339  14.712  0.00  0.00     0.033 H 
ATOM     35  H15 AFQ d          11.334  16.799  16.201  0.00  0.00     0.033 H 
ATOM     36  C24 AFQ d          10.624  14.248  17.398  0.00  0.00    -0.065 C 
ATOM     37  H16 AFQ d           9.094  14.712  15.874  0.00  0.00     0.033 H 
ATOM     38  H17 AFQ d           9.272  15.975  17.138  0.00  0.00     0.033 H 
ATOM     39  C23 AFQ d          11.907  13.951  16.600  0.00  0.00    -0.060 C 
ATOM     40  H18 AFQ d          10.049  13.324  17.562  0.00  0.00     0.033 H 
ATOM     41  H19 AFQ d          10.870  14.704  18.369  0.00  0.00     0.033 H 
ATOM     42  H20 AFQ d          12.789  14.152  17.225  0.00  0.00     0.033 H 
ATOM     43  H21 AFQ d          11.914  12.898  16.284  0.00  0.00     0.033 H 
ATOM     44  H13 AFQ d          11.622  14.303  14.465  0.00  0.00     0.042 H 
ENDBRANCH  28  31
ENDBRANCH  25  28
ENDBRANCH  22  25
ENDBRANCH  19  22
ENDBRANCH   7  19
BRANCH   4  45
ATOM     45  N17 AFQ d          15.653  16.091  22.348  0.00  0.00    -0.234 N 
ATOM     46  H2  AFQ d          16.062  15.862  23.265  0.00  0.00     0.174 HD
ATOM     47  H3  AFQ d          14.631  16.071  22.220  0.00  0.00     0.174 HD
ENDBRANCH   4  45
BRANCH  10  48
ATOM     48  N14 AFQ d          18.161  17.785  13.469  0.00  0.00    -0.229 N 
ATOM     49  H22 AFQ d          17.389  17.759  12.787  0.00  0.00     0.177 HD
BRANCH  48  50
ATOM     50  C15 AFQ d          19.481  18.075  12.948  0.00  0.00    -0.005 C 
ATOM     51  H23 AFQ d          19.404  18.346  11.884  0.00  0.00     0.057 H 
ATOM     52  H24 AFQ d          20.120  17.186  13.054  0.00  0.00     0.057 H 
ATOM     53  H25 AFQ d          19.921  18.912  13.508  0.00  0.00     0.057 H 
ENDBRANCH  48  50
ENDBRANCH  10  48
TORSDOF 8
ENDMDL
MODEL 3
REMARK VINA RESULT:      -8.2      2.477      5.168
REMARK  8 active torsions:
REMARK  status: ('A' for Active; 'I' for Inactive)
REMARK    1  A    between atoms: C4_4  and  N17_5 
REMARK    2  A    between atoms: C10_8  and  C18_9 
REMARK    3  A    between atoms: C18_9  and  C19_10 
REMARK    4  A    between atoms: C19_10  and  N20_11 
REMARK    5  A    between atoms: N20_11  and  C21_12 
REMARK    6  A    between atoms: C21_12  and  C22_13 
REMARK    7  A    between atoms: C12_20  and  N14_21 
REMARK    8  A    between atoms: N14_21  and  C15_22 
ROOT
ATOM      1  C2  AFQ d          18.072  17.670  14.757  0.00  0.00     0.272 C 
ATOM      2  O16 AFQ d          19.165  18.135  14.485  0.00  0.00    -0.267 OA
ATOM      3  N3  AFQ d          17.126  17.354  13.833  0.00  0.00    -0.156 N 
ATOM      4  C4  AFQ d          15.910  16.917  14.277  0.00  0.00     0.679 C 
ATOM      5  N5  AFQ d          15.660  16.653  15.509  0.00  0.00    -0.190 N 
ATOM      6  C6  AFQ d          16.542  16.825  16.539  0.00  0.00     0.073 A 
ATOM      7  C10 AFQ d          16.179  16.486  17.863  0.00  0.00     0.004 A 
ATOM      8  C9  AFQ d          17.182  16.696  18.811  0.00  0.00     0.111 A 
ATOM      9  N11 AFQ d          17.291  16.440  20.137  0.00  0.00    -0.062 NA
ATOM     10  C12 AFQ d          18.419  16.823  20.597  0.00  0.00     0.701 A 
ATOM     11  N13 AFQ d          19.197  17.321  19.616  0.00  0.00    -0.188 N 
ATOM     12  C8  AFQ d          18.402  17.213  18.460  0.00  0.00     0.080 A 
ATOM     13  C7  AFQ d          18.792  17.581  17.174  0.00  0.00    -0.037 A 
ATOM     14  C1  AFQ d          17.789  17.382  16.211  0.00  0.00     0.062 A 
ATOM     15  H1  AFQ d          17.315  17.438  12.855  0.00  0.00     0.187 HD
ATOM     16  H4  AFQ d          14.726  16.285  15.738  0.00  0.00     0.184 HD
ATOM     17  H26 AFQ d          20.153  17.695  19.695  0.00  0.00     0.184 HD
ATOM     18  H27 AFQ d          19.772  17.981  16.941  0.00  0.00     0.088 H 
ENDROOT
BRANCH   7  19
ATOM     19  C18 AFQ d          14.789  16.114  18.344  0.00  0.00    -0.014 C 
ATOM     20  H5  AFQ d          14.067  16.434  17.579  0.00  0.00     0.042 H 
ATOM     21  H6  AFQ d          14.595  16.657  19.280  0.00  0.00     0.042 H 
BRANCH  19  22
ATOM     22  C19 AFQ d          14.563  14.585  18.615  0.00  0.00     0.085 C 
ATOM     23  H7  AFQ d          14.354  14.408  19.680  0.00  0.00     0.076 H 
ATOM     24  H8  AFQ d          15.447  14.004  18.313  0.00  0.00     0.076 H 
BRANCH  22  25
ATOM     25  N20 AFQ d          13.385  14.214  17.781  0.00  0.00    -0.074 N 
ATOM     26  H9  AFQ d          12.664  13.881  18.402  0.00  0.00     0.277 HD
ATOM     27  H10 AFQ d          13.669  13.469  17.166  0.00  0.00     0.277 HD
BRANCH  25  28
ATOM     28  C21 AFQ d          12.791  15.297  16.938  0.00  0.00     0.085 C 
ATOM     29  H11 AFQ d          13.013  15.106  15.878  0.00  0.00     0.076 H 
ATOM     30  H12 AFQ d          13.214  16.270  17.231  0.00  0.00     0.076 H 
BRANCH  28  31
ATOM     31  C22 AFQ d          11.249  15.305  17.161  0.00  0.00    -0.031 C 
ATOM     32  C26 AFQ d          10.852  15.612  18.615  0.00  0.00    -0.060 C 
ATOM     33  C25 AFQ d           9.481  14.914  18.795  0.00  0.00    -0.065 C 
ATOM     34  H14 AFQ d          10.760  16.698  18.773  0.00  0.00     0.033 H 
ATOM     35  H15 AFQ d          11.593  15.202  19.316  0.00  0.00     0.033 H 
ATOM     36  C24 AFQ d           9.592  13.604  17.943  0.00  0.00    -0.065 C 
ATOM     37  H16 AFQ d           8.668  15.552  18.421  0.00  0.00     0.033 H 
ATOM     38  H17 AFQ d           9.303  14.675  19.854  0.00  0.00     0.033 H 
ATOM     39  C23 AFQ d          10.642  13.913  16.860  0.00  0.00    -0.060 C 
ATOM     40  H18 AFQ d           8.623  13.361  17.482  0.00  0.00     0.033 H 
ATOM     41  H19 AFQ d           9.921  12.762  18.571  0.00  0.00     0.033 H 
ATOM     42  H20 AFQ d          11.433  13.150  16.880  0.00  0.00     0.033 H 
ATOM     43  H21 AFQ d          10.164  13.921  15.870  0.00  0.00     0.033 H 
ATOM     44  H13 AFQ d          10.806  16.058  16.493  0.00  0.00     0.042 H 
ENDBRANCH  28  31
ENDBRANCH  25  28
ENDBRANCH  22  25
ENDBRANCH  19  22
ENDBRANCH   7  19
BRANCH   4  45
ATOM     45  N17 AFQ d          14.958  16.692  13.334  0.00  0.00    -0.234 N 
ATOM     46  H2  AFQ d          14.619  17.468  12.748  0.00  0.00     0.174 HD
ATOM     47  H3  AFQ d          14.573  15.744  13.207  0.00  0.00     0.174 HD
ENDBRANCH   4  45
BRANCH  10  48
ATOM     48  N14 AFQ d          18.954  16.820  21.820  0.00  0.00    -0.229 N 
ATOM     49  H22 AFQ d          19.943  16.541  21.893  0.00  0.00     0.177 HD
BRANCH  48  50
ATOM     50  C15 AFQ d          18.282  17.172  23.055  0.00  0.00    -0.005 C 
ATOM     51  H23 AFQ d          19.002  17.139  23.886  0.00  0.00     0.057 H 
ATOM     52  H24 AFQ d          17.468  16.457  23.246  0.00  0.00     0.057 H 
ATOM     53  H25 AFQ d          17.866  18.186  22.970  0.00  0.00     0.057 H 
ENDBRANCH  48  50
ENDBRANCH  10  48
TORSDOF 8
ENDMDL
MODEL 4
REMARK VINA RESULT:      -7.6      3.307      6.971
REMARK  8 active torsions:
REMARK  status: ('A' for Active; 'I' for Inactive)
REMARK    1  A    between atoms: C4_4  and  N17_5 
REMARK    2  A    between atoms: C10_8  and  C18_9 
REMARK    3  A    between atoms: C18_9  and  C19_10 
REMARK    4  A    between atoms: C19_10  and  N20_11 
REMARK    5  A    between atoms: N20_11  and  C21_12 
REMARK    6  A    between atoms: C21_12  and  C22_13 
REMARK    7  A    between atoms: C12_20  and  N14_21 
REMARK    8  A    between atoms: N14_21  and  C15_22 
ROOT
ATOM      1  C2  AFQ d          10.185  15.781  15.897  0.00  0.00     0.272 C 
ATOM      2  O16 AFQ d           9.580  16.310  14.982  0.00  0.00    -0.267 OA
ATOM      3  N3  AFQ d           9.644  14.857  16.736  0.00  0.00    -0.156 N 
ATOM      4  C4  AFQ d          10.407  14.402  17.774  0.00  0.00     0.679 C 
ATOM      5  N5  AFQ d          11.651  14.691  17.917  0.00  0.00    -0.190 N 
ATOM      6  C6  AFQ d          12.359  15.526  17.098  0.00  0.00     0.073 A 
ATOM      7  C10 AFQ d          13.733  15.766  17.327  0.00  0.00     0.004 A 
ATOM      8  C9  AFQ d          14.333  16.624  16.404  0.00  0.00     0.111 A 
ATOM      9  N11 AFQ d          15.604  17.049  16.202  0.00  0.00    -0.062 NA
ATOM     10  C12 AFQ d          15.678  17.856  15.216  0.00  0.00     0.701 A 
ATOM     11  N13 AFQ d          14.476  18.010  14.626  0.00  0.00    -0.188 N 
ATOM     12  C8  AFQ d          13.616  17.191  15.383  0.00  0.00     0.080 A 
ATOM     13  C7  AFQ d          12.259  16.999  15.135  0.00  0.00    -0.037 A 
ATOM     14  C1  AFQ d          11.640  16.144  16.061  0.00  0.00     0.062 A 
ATOM     15  H1  AFQ d           8.714  14.519  16.597  0.00  0.00     0.187 HD
ATOM     16  H4  AFQ d          12.153  14.262  18.707  0.00  0.00     0.184 HD
ATOM     17  H26 AFQ d          14.242  18.592  13.810  0.00  0.00     0.184 HD
ATOM     18  H27 AFQ d          11.733  17.465  14.309  0.00  0.00     0.088 H 
ENDROOT
BRANCH   7  19
ATOM     19  C18 AFQ d          14.525  15.342  18.550  0.00  0.00    -0.014 C 
ATOM     20  H5  AFQ d          14.299  14.286  18.754  0.00  0.00     0.042 H 
ATOM     21  H6  AFQ d          14.195  15.958  19.400  0.00  0.00     0.042 H 
BRANCH  19  22
ATOM     22  C19 AFQ d          16.082  15.489  18.421  0.00  0.00     0.085 C 
ATOM     23  H7  AFQ d          16.370  15.633  17.369  0.00  0.00     0.076 H 
ATOM     24  H8  AFQ d          16.588  14.598  18.821  0.00  0.00     0.076 H 
BRANCH  22  25
ATOM     25  N20 AFQ d          16.426  16.693  19.228  0.00  0.00    -0.074 N 
ATOM     26  H9  AFQ d          15.722  16.793  19.942  0.00  0.00     0.277 HD
ATOM     27  H10 AFQ d          16.396  17.491  18.614  0.00  0.00     0.277 HD
BRANCH  25  28
ATOM     28  C21 AFQ d          17.760  16.690  19.904  0.00  0.00     0.085 C 
ATOM     29  H11 AFQ d          18.231  17.679  19.801  0.00  0.00     0.076 H 
ATOM     30  H12 AFQ d          18.407  15.927  19.445  0.00  0.00     0.076 H 
BRANCH  28  31
ATOM     31  C22 AFQ d          17.546  16.362  21.412  0.00  0.00    -0.031 C 
ATOM     32  C26 AFQ d          16.070  16.436  21.841  0.00  0.00    -0.060 C 
ATOM     33  C25 AFQ d          16.127  16.784  23.350  0.00  0.00    -0.065 C 
ATOM     34  H14 AFQ d          15.570  15.469  21.683  0.00  0.00     0.033 H 
ATOM     35  H15 AFQ d          15.540  17.220  21.280  0.00  0.00     0.033 H 
ATOM     36  C24 AFQ d          17.357  17.744  23.488  0.00  0.00    -0.065 C 
ATOM     37  H16 AFQ d          16.272  15.877  23.953  0.00  0.00     0.033 H 
ATOM     38  H17 AFQ d          15.202  17.290  23.666  0.00  0.00     0.033 H 
ATOM     39  C23 AFQ d          18.281  17.387  22.309  0.00  0.00    -0.060 C 
ATOM     40  H18 AFQ d          17.871  17.576  24.446  0.00  0.00     0.033 H 
ATOM     41  H19 AFQ d          17.036  18.795  23.423  0.00  0.00     0.033 H 
ATOM     42  H20 AFQ d          18.510  18.293  21.729  0.00  0.00     0.033 H 
ATOM     43  H21 AFQ d          19.215  16.948  22.688  0.00  0.00     0.033 H 
ATOM     44  H13 AFQ d          17.934  15.351  21.605  0.00  0.00     0.042 H 
ENDBRANCH  28  31
ENDBRANCH  25  28
ENDBRANCH  22  25
ENDBRANCH  19  22
ENDBRANCH   7  19
BRANCH   4  45
ATOM     45  N17 AFQ d           9.811  13.546  18.645  0.00  0.00    -0.234 N 
ATOM     46  H2  AFQ d           9.086  12.894  18.312  0.00  0.00     0.174 HD
ATOM     47  H3  AFQ d          10.084  13.550  19.638  0.00  0.00     0.174 HD
ENDBRANCH   4  45
BRANCH  10  48
ATOM     48  N14 AFQ d          16.683  18.549  14.679  0.00  0.00    -0.229 N 
ATOM     49  H22 AFQ d          16.448  19.463  14.264  0.00  0.00     0.177 HD
BRANCH  48  50
ATOM     50  C15 AFQ d          18.074  18.146  14.620  0.00  0.00    -0.005 C 
ATOM     51  H23 AFQ d          18.625  18.825  13.953  0.00  0.00     0.057 H 
ATOM     52  H24 AFQ d          18.141  17.118  14.233  0.00  0.00     0.057 H 
ATOM     53  H25 AFQ d          18.511  18.187  15.628  0.00  0.00     0.057 H 
ENDBRANCH  48  50
ENDBRANCH  10  48
TORSDOF 8
ENDMDL
