MODEL 1
REMARK VINA RESULT:     -11.0      0.000      0.000
REMARK  9 active torsions:
REMARK  status: ('A' for Active; 'I' for Inactive)
REMARK    1  A    between atoms: C9_2  and  O37_1 
REMARK    2  A    between atoms: C7_6  and  C6_7 
REMARK    3  A    between atoms: N3_14  and  C25_28 
REMARK    4  A    between atoms: N2_17  and  C21_26 
REMARK    5  A    between atoms: C21_26  and  C26_36 
REMARK    6  A    between atoms: C23_30  and  N4_31 
REMARK    7  A    between atoms: N4_31  and  C28_32 
REMARK    8  A    between atoms: C22_33  and  O6_34 
REMARK    9  A    between atoms: O6_34  and  C27_35 
ROOT
ATOM      1  C21 UCN d           5.725   4.306  13.578  0.00  0.00     0.168 C 
ATOM      2  O4  UCN d           6.117   3.571  14.722  0.00  0.00    -0.333 OA
ATOM      3  C25 UCN d           5.785   3.860  16.086  0.00  0.00     0.115 C 
ATOM      4  C24 UCN d           4.256   4.247  16.184  0.00  0.00     0.005 C 
ATOM      5  C23 UCN d           3.538   4.205  14.805  0.00  0.00     0.134 C 
ATOM      6  C22 UCN d           4.319   5.055  13.732  0.00  0.00     0.113 C 
ATOM      7  H12 UCN d           5.992   2.980  16.712  0.00  0.00     0.118 H 
ATOM      8  H13 UCN d           4.177   5.265  16.591  0.00  0.00     0.042 H 
ATOM      9  H14 UCN d           3.757   3.541  16.863  0.00  0.00     0.042 H 
ATOM     10  H15 UCN d           3.497   3.165  14.448  0.00  0.00     0.088 H 
ATOM     11  H21 UCN d           3.784   5.114  12.773  0.00  0.00     0.094 H 
ENDROOT
BRANCH   5  12
ATOM     12  N4  UCN d           2.064   4.719  15.058  0.00  0.00    -0.072 N 
ATOM     13  H16 UCN d           1.562   4.725  14.184  0.00  0.00     0.277 HD
ATOM     14  H17 UCN d           2.100   5.654  15.431  0.00  0.00     0.277 HD
BRANCH  12  15
ATOM     15  C28 UCN d           1.347   3.828  16.030  0.00  0.00     0.065 C 
ATOM     16  H18 UCN d           0.756   3.084  15.478  0.00  0.00     0.067 H 
ATOM     17  H19 UCN d           0.679   4.435  16.658  0.00  0.00     0.067 H 
ATOM     18  H20 UCN d           2.082   3.314  16.666  0.00  0.00     0.067 H 
ENDBRANCH  12  15
ENDBRANCH   5  12
BRANCH   6  19
ATOM     19  O6  UCN d           4.506   6.375  14.312  0.00  0.00    -0.384 OA
BRANCH  19  20
ATOM     20  C27 UCN d           5.123   7.281  13.411  0.00  0.00     0.005 C 
ATOM     21  H22 UCN d           4.571   8.233  13.411  0.00  0.00     0.066 H 
ATOM     22  H23 UCN d           5.115   6.853  12.397  0.00  0.00     0.066 H 
ATOM     23  H24 UCN d           6.162   7.461  13.725  0.00  0.00     0.066 H 
ENDBRANCH  19  20
ENDBRANCH   6  19
BRANCH   3  24
ATOM     24  N3  UCN d           6.578   5.018  16.561  0.00  0.00    -0.316 N 
ATOM     25  C20 UCN d           7.871   5.254  16.185  0.00  0.00     0.048 A 
ATOM     26  C5  UCN d           8.226   6.605  16.574  0.00  0.00     0.004 A 
ATOM     27  C1  UCN d           8.801   4.384  15.514  0.00  0.00    -0.056 A 
ATOM     28  C6  UCN d           7.090   7.160  17.206  0.00  0.00     0.022 A 
ATOM     29  C4  UCN d           9.532   7.048  16.267  0.00  0.00    -0.070 A 
ATOM     30  C19 UCN d           6.031   6.171  17.214  0.00  0.00     0.077 A 
ATOM     31  C18 UCN d           4.791   6.412  17.783  0.00  0.00     0.077 A 
ATOM     32  N2  UCN d           3.606   5.598  17.941  0.00  0.00    -0.308 N 
ATOM     33  C11 UCN d           4.472   7.699  18.407  0.00  0.00     0.017 A 
ATOM     34  C17 UCN d           2.583   6.334  18.618  0.00  0.00     0.049 A 
ATOM     35  C12 UCN d           3.137   7.645  18.904  0.00  0.00     0.004 A 
ATOM     36  C16 UCN d           1.276   6.039  19.027  0.00  0.00    -0.056 A 
ATOM     37  C13 UCN d           2.334   8.585  19.585  0.00  0.00    -0.070 A 
ATOM     38  C14 UCN d           1.024   8.296  19.990  0.00  0.00    -0.082 A 
ATOM     39  H8  UCN d           2.745   9.565  19.802  0.00  0.00     0.084 H 
ATOM     40  C15 UCN d           0.502   6.979  19.693  0.00  0.00    -0.081 A 
ATOM     41  H9  UCN d           0.423   9.034  20.509  0.00  0.00     0.083 H 
ATOM     42  H10 UCN d          -0.508   6.724  19.994  0.00  0.00     0.083 H 
ATOM     43  H11 UCN d           0.861   5.059  18.819  0.00  0.00     0.087 H 
ATOM     44  C10 UCN d           5.523   8.691  18.394  0.00  0.00     0.020 A 
ATOM     45  C9  UCN d           5.459  10.108  18.980  0.00  0.00     0.131 A 
ATOM     46  C7  UCN d           6.721   8.465  17.858  0.00  0.00     0.057 A 
ATOM     47  N1  UCN d           6.801  10.541  18.660  0.00  0.00    -0.326 N 
ATOM     48  H2  UCN d           4.691  10.730  18.498  0.00  0.00     0.126 H 
ATOM     49  C8  UCN d           7.594   9.667  18.019  0.00  0.00     0.255 A 
ATOM     50  H3  UCN d           7.125  11.455  18.906  0.00  0.00     0.165 HD
ATOM     51  O5  UCN d           8.753   9.823  17.663  0.00  0.00    -0.268 OA
ATOM     52  C3  UCN d          10.440   6.225  15.621  0.00  0.00    -0.082 A 
ATOM     53  H7  UCN d           9.830   8.053  16.543  0.00  0.00     0.084 H 
ATOM     54  C2  UCN d          10.083   4.883  15.238  0.00  0.00    -0.081 A 
ATOM     55  H6  UCN d          11.434   6.596  15.400  0.00  0.00     0.083 H 
ATOM     56  H5  UCN d          10.809   4.255  14.735  0.00  0.00     0.083 H 
ATOM     57  H4  UCN d           8.519   3.377  15.230  0.00  0.00     0.087 H 
BRANCH  45  58
ATOM     58  O37 UCN d           5.243  10.066  20.387  0.00  0.00    -0.372 OA
ATOM     59  H1  UCN d           6.076  10.146  20.837  0.00  0.00     0.212 HD
ENDBRANCH  45  58
ENDBRANCH   3  24
BRANCH   1  60
ATOM     60  C26 UCN d           5.588   3.246  12.489  0.00  0.00    -0.028 C 
ATOM     61  H25 UCN d           6.185   2.363  12.760  0.00  0.00     0.034 H 
ATOM     62  H26 UCN d           5.949   3.653  11.533  0.00  0.00     0.034 H 
ATOM     63  H27 UCN d           4.531   2.958  12.389  0.00  0.00     0.034 H 
ENDBRANCH   1  60
TORSDOF 9
ENDMDL
MODEL 2
REMARK VINA RESULT:     -10.8      1.062      5.294
REMARK  9 active torsions:
REMARK  status: ('A' for Active; 'I' for Inactive)
REMARK    1  A    between atoms: C9_2  and  O37_1 
REMARK    2  A    between atoms: C7_6  and  C6_7 
REMARK    3  A    between atoms: N3_14  and  C25_28 
REMARK    4  A    between atoms: N2_17  and  C21_26 
REMARK    5  A    between atoms: C21_26  and  C26_36 
REMARK    6  A    between atoms: C23_30  and  N4_31 
REMARK    7  A    between atoms: N4_31  and  C28_32 
REMARK    8  A    between atoms: C22_33  and  O6_34 
REMARK    9  A    between atoms: O6_34  and  C27_35 
ROOT
ATOM      1  C21 UCN d           4.637   4.188  14.687  0.00  0.00     0.168 C 
ATOM      2  O4  UCN d           4.947   3.836  16.023  0.00  0.00    -0.333 OA
ATOM      3  C25 UCN d           4.125   4.040  17.179  0.00  0.00     0.115 C 
ATOM      4  C24 UCN d           2.634   3.641  16.841  0.00  0.00     0.005 C 
ATOM      5  C23 UCN d           2.465   3.139  15.379  0.00  0.00     0.134 C 
ATOM      6  C22 UCN d           3.073   4.168  14.352  0.00  0.00     0.113 C 
ATOM      7  H12 UCN d           4.500   3.428  18.012  0.00  0.00     0.118 H 
ATOM      8  H13 UCN d           1.992   4.522  16.988  0.00  0.00     0.042 H 
ATOM      9  H14 UCN d           2.320   2.841  17.528  0.00  0.00     0.042 H 
ATOM     10  H15 UCN d           2.999   2.184  15.258  0.00  0.00     0.088 H 
ATOM     11  H21 UCN d           2.886   3.879  13.307  0.00  0.00     0.094 H 
ENDROOT
BRANCH   5  12
ATOM     12  N4  UCN d           0.917   2.889  15.173  0.00  0.00    -0.072 N 
ATOM     13  H16 UCN d           0.758   2.563  14.233  0.00  0.00     0.277 HD
ATOM     14  H17 UCN d           0.421   3.754  15.316  0.00  0.00     0.277 HD
BRANCH  12  15
ATOM     15  C28 UCN d           0.408   1.864  16.143  0.00  0.00     0.065 C 
ATOM     16  H18 UCN d          -0.673   2.005  16.291  0.00  0.00     0.067 H 
ATOM     17  H19 UCN d           0.928   1.979  17.105  0.00  0.00     0.067 H 
ATOM     18  H20 UCN d           0.595   0.856  15.743  0.00  0.00     0.067 H 
ENDBRANCH  12  15
ENDBRANCH   5  12
BRANCH   6  19
ATOM     19  O6  UCN d           2.469   5.456  14.656  0.00  0.00    -0.384 OA
BRANCH  19  20
ATOM     20  C27 UCN d           3.373   6.535  14.473  0.00  0.00     0.005 C 
ATOM     21  H22 UCN d           2.953   7.446  14.924  0.00  0.00     0.066 H 
ATOM     22  H23 UCN d           3.534   6.699  13.396  0.00  0.00     0.066 H 
ATOM     23  H24 UCN d           4.332   6.296  14.955  0.00  0.00     0.066 H 
ENDBRANCH  19  20
ENDBRANCH   6  19
BRANCH   3  24
ATOM     24  N3  UCN d           4.138   5.473  17.557  0.00  0.00    -0.316 N 
ATOM     25  C20 UCN d           3.106   6.094  18.202  0.00  0.00     0.048 A 
ATOM     26  C5  UCN d           3.569   7.380  18.687  0.00  0.00     0.004 A 
ATOM     27  C1  UCN d           1.758   5.638  18.419  0.00  0.00    -0.056 A 
ATOM     28  C6  UCN d           4.922   7.500  18.294  0.00  0.00     0.022 A 
ATOM     29  C4  UCN d           2.644   8.181  19.392  0.00  0.00    -0.070 A 
ATOM     30  C19 UCN d           5.306   6.304  17.572  0.00  0.00     0.077 A 
ATOM     31  C18 UCN d           6.574   6.131  17.041  0.00  0.00     0.077 A 
ATOM     32  N2  UCN d           7.182   5.066  16.273  0.00  0.00    -0.308 N 
ATOM     33  C11 UCN d           7.614   7.152  17.190  0.00  0.00     0.017 A 
ATOM     34  C17 UCN d           8.540   5.389  15.961  0.00  0.00     0.049 A 
ATOM     35  C12 UCN d           8.797   6.695  16.541  0.00  0.00     0.004 A 
ATOM     36  C16 UCN d           9.561   4.740  15.255  0.00  0.00    -0.056 A 
ATOM     37  C13 UCN d          10.076   7.269  16.374  0.00  0.00    -0.070 A 
ATOM     38  C14 UCN d          11.101   6.620  15.674  0.00  0.00    -0.082 A 
ATOM     39  H8  UCN d          10.271   8.245  16.804  0.00  0.00     0.084 H 
ATOM     40  C15 UCN d          10.812   5.321  15.106  0.00  0.00    -0.081 A 
ATOM     41  H9  UCN d          12.078   7.077  15.560  0.00  0.00     0.083 H 
ATOM     42  H10 UCN d          11.585   4.794  14.556  0.00  0.00     0.083 H 
ATOM     43  H11 UCN d           9.370   3.766  14.817  0.00  0.00     0.087 H 
ATOM     44  C10 UCN d           7.237   8.343  17.917  0.00  0.00     0.020 A 
ATOM     45  C9  UCN d           8.121   9.562  18.210  0.00  0.00     0.131 A 
ATOM     46  C7  UCN d           6.018   8.523  18.422  0.00  0.00     0.057 A 
ATOM     47  N1  UCN d           7.158  10.369  18.926  0.00  0.00    -0.326 N 
ATOM     48  H2  UCN d           8.998   9.310  18.825  0.00  0.00     0.126 H 
ATOM     49  C8  UCN d           5.928   9.855  19.094  0.00  0.00     0.255 A 
ATOM     50  H3  UCN d           7.398  11.273  19.281  0.00  0.00     0.165 HD
ATOM     51  O5  UCN d           4.971  10.365  19.657  0.00  0.00    -0.268 OA
ATOM     52  C3  UCN d           1.343   7.758  19.611  0.00  0.00    -0.082 A 
ATOM     53  H7  UCN d           2.957   9.148  19.769  0.00  0.00     0.084 H 
ATOM     54  C2  UCN d           0.886   6.480  19.125  0.00  0.00    -0.081 A 
ATOM     55  H6  UCN d           0.658   8.397  20.156  0.00  0.00     0.083 H 
ATOM     56  H5  UCN d          -0.136   6.169  19.306  0.00  0.00     0.083 H 
ATOM     57  H4  UCN d           1.427   4.675  18.050  0.00  0.00     0.087 H 
BRANCH  45  58
ATOM     58  O37 UCN d           8.536  10.190  17.002  0.00  0.00    -0.372 OA
ATOM     59  H1  UCN d           9.206  10.836  17.195  0.00  0.00     0.212 HD
ENDBRANCH  45  58
ENDBRANCH   3  24
BRANCH   1  60
ATOM     60  C26 UCN d           5.321   3.108  13.855  0.00  0.00    -0.028 C 
ATOM     61  H25 UCN d           4.642   2.251  13.737  0.00  0.00     0.034 H 
ATOM     62  H26 UCN d           6.240   2.780  14.363  0.00  0.00     0.034 H 
ATOM     63  H27 UCN d           5.575   3.515  12.865  0.00  0.00     0.034 H 
ENDBRANCH   1  60
TORSDOF 9
ENDMDL
MODEL 3
REMARK VINA RESULT:      -9.0      2.131      5.447
REMARK  9 active torsions:
REMARK  status: ('A' for Active; 'I' for Inactive)
REMARK    1  A    between atoms: C9_2  and  O37_1 
REMARK    2  A    between atoms: C7_6  and  C6_7 
REMARK    3  A    between atoms: N3_14  and  C25_28 
REMARK    4  A    between atoms: N2_17  and  C21_26 
REMARK    5  A    between atoms: C21_26  and  C26_36 
REMARK    6  A    between atoms: C23_30  and  N4_31 
REMARK    7  A    between atoms: N4_31  and  C28_32 
REMARK    8  A    between atoms: C22_33  and  O6_34 
REMARK    9  A    between atoms: O6_34  and  C27_35 
ROOT
ATOM      1  C21 UCN d           6.239   4.711  14.746  0.00  0.00     0.168 C 
ATOM      2  O4  UCN d           6.043   4.049  15.981  0.00  0.00    -0.333 OA
ATOM      3  C25 UCN d           4.992   3.132  16.308  0.00  0.00     0.115 C 
ATOM      4  C24 UCN d           4.781   2.124  15.109  0.00  0.00     0.005 C 
ATOM      5  C23 UCN d           5.755   2.390  13.926  0.00  0.00     0.134 C 
ATOM      6  C22 UCN d           5.703   3.899  13.476  0.00  0.00     0.113 C 
ATOM      7  H12 UCN d           5.253   2.580  17.223  0.00  0.00     0.118 H 
ATOM      8  H13 UCN d           3.748   2.222  14.745  0.00  0.00     0.042 H 
ATOM      9  H14 UCN d           4.944   1.100  15.477  0.00  0.00     0.042 H 
ATOM     10  H15 UCN d           6.784   2.167  14.245  0.00  0.00     0.088 H 
ATOM     11  H21 UCN d           6.315   4.093  12.583  0.00  0.00     0.094 H 
ENDROOT
BRANCH   5  12
ATOM     12  N4  UCN d           5.344   1.381  12.780  0.00  0.00    -0.072 N 
ATOM     13  H16 UCN d           4.444   1.647  12.413  0.00  0.00     0.277 HD
ATOM     14  H17 UCN d           5.289   0.450  13.163  0.00  0.00     0.277 HD
BRANCH  12  15
ATOM     15  C28 UCN d           6.352   1.395  11.668  0.00  0.00     0.065 C 
ATOM     16  H18 UCN d           6.169   0.544  10.996  0.00  0.00     0.067 H 
ATOM     17  H19 UCN d           7.365   1.317  12.091  0.00  0.00     0.067 H 
ATOM     18  H20 UCN d           6.262   2.335  11.104  0.00  0.00     0.067 H 
ENDBRANCH  12  15
ENDBRANCH   5  12
BRANCH   6  19
ATOM     19  O6  UCN d           4.303   4.205  13.229  0.00  0.00    -0.384 OA
BRANCH  19  20
ATOM     20  C27 UCN d           3.980   5.553  13.533  0.00  0.00     0.005 C 
ATOM     21  H22 UCN d           3.782   6.102  12.600  0.00  0.00     0.066 H 
ATOM     22  H23 UCN d           4.824   6.021  14.063  0.00  0.00     0.066 H 
ATOM     23  H24 UCN d           3.085   5.581  14.171  0.00  0.00     0.066 H 
ENDBRANCH  19  20
ENDBRANCH   6  19
BRANCH   3  24
ATOM     24  N3  UCN d           3.724   3.872  16.508  0.00  0.00    -0.316 N 
ATOM     25  C20 UCN d           2.488   3.317  16.327  0.00  0.00     0.048 A 
ATOM     26  C5  UCN d           1.494   4.204  16.901  0.00  0.00     0.004 A 
ATOM     27  C1  UCN d           2.127   2.075  15.695  0.00  0.00    -0.056 A 
ATOM     28  C6  UCN d           2.193   5.316  17.423  0.00  0.00     0.022 A 
ATOM     29  C4  UCN d           0.142   3.805  16.820  0.00  0.00    -0.070 A 
ATOM     30  C19 UCN d           3.610   5.132  17.183  0.00  0.00     0.077 A 
ATOM     31  C18 UCN d           4.558   6.067  17.567  0.00  0.00     0.077 A 
ATOM     32  N2  UCN d           5.996   6.127  17.419  0.00  0.00    -0.308 N 
ATOM     33  C11 UCN d           4.179   7.305  18.254  0.00  0.00     0.017 A 
ATOM     34  C17 UCN d           6.505   7.334  17.994  0.00  0.00     0.049 A 
ATOM     35  C12 UCN d           5.360   8.060  18.512  0.00  0.00     0.004 A 
ATOM     36  C16 UCN d           7.785   7.891  18.121  0.00  0.00    -0.056 A 
ATOM     37  C13 UCN d           5.576   9.309  19.133  0.00  0.00    -0.070 A 
ATOM     38  C14 UCN d           6.853   9.867  19.267  0.00  0.00    -0.082 A 
ATOM     39  H8  UCN d           4.722   9.856  19.519  0.00  0.00     0.084 H 
ATOM     40  C15 UCN d           7.975   9.119  18.738  0.00  0.00    -0.081 A 
ATOM     41  H9  UCN d           6.998  10.827  19.751  0.00  0.00     0.083 H 
ATOM     42  H10 UCN d           8.976   9.525  18.826  0.00  0.00     0.083 H 
ATOM     43  H11 UCN d           8.641   7.352  17.731  0.00  0.00     0.087 H 
ATOM     44  C10 UCN d           2.768   7.489  18.502  0.00  0.00     0.020 A 
ATOM     45  C9  UCN d           2.103   8.688  19.190  0.00  0.00     0.131 A 
ATOM     46  C7  UCN d           1.849   6.600  18.128  0.00  0.00     0.057 A 
ATOM     47  N1  UCN d           0.724   8.262  19.095  0.00  0.00    -0.326 N 
ATOM     48  H2  UCN d           2.432   8.812  20.232  0.00  0.00     0.126 H 
ATOM     49  C8  UCN d           0.483   7.081  18.502  0.00  0.00     0.255 A 
ATOM     50  H3  UCN d          -0.020   8.825  19.455  0.00  0.00     0.165 HD
ATOM     51  O5  UCN d          -0.596   6.541  18.311  0.00  0.00    -0.268 OA
ATOM     52  C3  UCN d          -0.224   2.612  16.216  0.00  0.00    -0.082 A 
ATOM     53  H7  UCN d          -0.627   4.444  17.239  0.00  0.00     0.084 H 
ATOM     54  C2  UCN d           0.767   1.735  15.646  0.00  0.00    -0.081 A 
ATOM     55  H6  UCN d          -1.271   2.335  16.171  0.00  0.00     0.083 H 
ATOM     56  H5  UCN d           0.460   0.808  15.177  0.00  0.00     0.083 H 
ATOM     57  H4  UCN d           2.882   1.424  15.271  0.00  0.00     0.087 H 
BRANCH  45  58
ATOM     58  O37 UCN d           2.333   9.886  18.458  0.00  0.00    -0.372 OA
ATOM     59  H1  UCN d           2.613   9.669  17.576  0.00  0.00     0.212 HD
ENDBRANCH  45  58
ENDBRANCH   3  24
BRANCH   1  60
ATOM     60  C26 UCN d           7.755   4.836  14.632  0.00  0.00    -0.028 C 
ATOM     61  H25 UCN d           8.015   5.849  14.292  0.00  0.00     0.034 H 
ATOM     62  H26 UCN d           8.130   4.098  13.907  0.00  0.00     0.034 H 
ATOM     63  H27 UCN d           8.213   4.649  15.615  0.00  0.00     0.034 H 
ENDBRANCH   1  60
TORSDOF 9
ENDMDL
