MODEL 1
REMARK VINA RESULT:      -5.9      0.000      0.000
REMARK  15 active torsions:
REMARK  status: ('A' for Active; 'I' for Inactive)
REMARK    1  A    between atoms: C27_27  and  C15_15 
REMARK    2  A    between atoms: C16_16  and  C28_28 
REMARK    3  A    between atoms: C35_35  and  C17_17 
REMARK    4  A    between atoms: C35_35  and  C18_18 
REMARK    5  A    between atoms: C19_19  and  C32_32 
REMARK    6  A    between atoms: C33_33  and  C20_20 
REMARK    7  A    between atoms: C23_23  and  O43_43 
REMARK    8  A    between atoms: C24_24  and  O44_44 
REMARK    9  A    between atoms: C34_34  and  C26_26 
REMARK       I    between atoms: N36_36  and  C27_27 
REMARK   10  A    between atoms: O43_43  and  C30_30 
REMARK   11  A    between atoms: O44_44  and  C31_31 
REMARK   12  A    between atoms: C32_32  and  N37_37 
REMARK   13  A    between atoms: N37_37  and  C33_33 
REMARK   14  A    between atoms: N37_37  and  C34_34 
REMARK   15  A    between atoms: C35_35  and  N36_36 
ROOT
ATOM      1  C1  O2N d         -12.377  50.008   3.427  0.00  0.00    -0.082 A 
ATOM      2  C2  O2N d         -11.386  50.896   3.782  0.00  0.00    -0.082 A 
ATOM      3  C3  O2N d         -12.212  49.298   2.244  0.00  0.00    -0.067 A 
ATOM      4  C4  O2N d         -10.251  51.081   3.008  0.00  0.00    -0.074 A 
ATOM      5  C15 O2N d         -11.088  49.471   1.456  0.00  0.00     0.040 A 
ATOM      6  C19 O2N d         -10.093  50.370   1.835  0.00  0.00    -0.017 A 
ATOM      7  H1  O2N d         -13.254  49.869   4.048  0.00  0.00     0.083 H 
ATOM      8  H2  O2N d         -11.497  51.468   4.696  0.00  0.00     0.083 H 
ATOM      9  H3  O2N d         -12.977  48.596   1.934  0.00  0.00     0.085 H 
ATOM     10  H4  O2N d          -9.488  51.785   3.323  0.00  0.00     0.084 H 
ENDROOT
BRANCH   5  11
ATOM     11  C27 O2N d         -10.952  48.665   0.223  0.00  0.00     0.253 C 
ATOM     12  N36 O2N d         -10.614  47.318   0.353  0.00  0.00    -0.344 N 
ATOM     13  H33 O2N d         -10.439  46.950   1.267  0.00  0.00     0.163 HD
ATOM     14  O39 O2N d         -11.121  49.240  -0.856  0.00  0.00    -0.268 OA
BRANCH  12  15
ATOM     15  C35 O2N d         -10.506  46.433  -0.792  0.00  0.00     0.063 C 
ATOM     16  H32 O2N d         -10.091  47.006  -1.635  0.00  0.00     0.088 H 
BRANCH  15  17
ATOM     17  C17 O2N d         -11.916  45.984  -1.212  0.00  0.00    -0.031 A 
ATOM     18  C6  O2N d         -12.982  46.088  -0.326  0.00  0.00    -0.072 A 
ATOM     19  C11 O2N d         -14.275  45.670  -0.665  0.00  0.00    -0.050 A 
ATOM     20  H6  O2N d         -12.806  46.506   0.659  0.00  0.00     0.084 H 
ATOM     21  C23 O2N d         -14.471  45.175  -1.980  0.00  0.00     0.068 A 
ATOM     22  H11 O2N d         -15.091  45.722   0.047  0.00  0.00     0.087 H 
ATOM     23  C12 O2N d         -13.427  45.019  -2.877  0.00  0.00    -0.050 A 
ATOM     24  C7  O2N d         -12.153  45.438  -2.463  0.00  0.00    -0.072 A 
ATOM     25  H12 O2N d         -13.588  44.591  -3.860  0.00  0.00     0.087 H 
ATOM     26  H7  O2N d         -11.321  45.329  -3.148  0.00  0.00     0.084 H 
BRANCH  21  27
ATOM     27  O43 O2N d         -15.772  44.765  -2.314  0.00  0.00    -0.356 OA
BRANCH  27  28
ATOM     28  C30 O2N d         -16.085  44.377  -3.669  0.00  0.00     0.010 C 
ATOM     29  H20 O2N d         -15.454  43.525  -3.961  0.00  0.00     0.066 H 
ATOM     30  H21 O2N d         -15.894  45.222  -4.346  0.00  0.00     0.066 H 
ATOM     31  H22 O2N d         -17.144  44.088  -3.733  0.00  0.00     0.066 H 
ENDBRANCH  27  28
ENDBRANCH  21  27
ENDBRANCH  15  17
BRANCH  15  32
ATOM     32  C18 O2N d          -9.496  45.334  -0.469  0.00  0.00    -0.031 A 
ATOM     33  C8  O2N d          -8.935  45.347   0.802  0.00  0.00    -0.072 A 
ATOM     34  C13 O2N d          -8.038  44.342   1.159  0.00  0.00    -0.050 A 
ATOM     35  H8  O2N d          -9.192  46.129   1.507  0.00  0.00     0.084 H 
ATOM     36  C24 O2N d          -7.676  43.334   0.272  0.00  0.00     0.068 A 
ATOM     37  H13 O2N d          -7.610  44.347   2.155  0.00  0.00     0.087 H 
ATOM     38  C14 O2N d          -8.198  43.275  -1.006  0.00  0.00    -0.050 A 
ATOM     39  C9  O2N d          -9.134  44.291  -1.315  0.00  0.00    -0.072 A 
ATOM     40  H14 O2N d          -7.911  42.509  -1.717  0.00  0.00     0.087 H 
ATOM     41  H9  O2N d          -9.607  44.254  -2.290  0.00  0.00     0.084 H 
BRANCH  36  42
ATOM     42  O44 O2N d          -6.750  42.410   0.758  0.00  0.00    -0.356 OA
BRANCH  42  43
ATOM     43  C31 O2N d          -5.995  42.924   1.854  0.00  0.00     0.010 C 
ATOM     44  H23 O2N d          -6.674  43.403   2.575  0.00  0.00     0.066 H 
ATOM     45  H24 O2N d          -5.270  43.665   1.485  0.00  0.00     0.066 H 
ATOM     46  H25 O2N d          -5.458  42.101   2.348  0.00  0.00     0.066 H 
ENDBRANCH  42  43
ENDBRANCH  36  42
ENDBRANCH  15  32
ENDBRANCH  12  15
ENDBRANCH   5  11
BRANCH   6  47
ATOM     47  C32 O2N d          -8.846  50.586   1.041  0.00  0.00     0.109 C 
ATOM     48  H26 O2N d          -8.441  51.574   1.307  0.00  0.00     0.083 H 
ATOM     49  H27 O2N d          -9.116  50.575  -0.025  0.00  0.00     0.083 H 
BRANCH  47  50
ATOM     50  N37 O2N d          -7.749  49.555   1.258  0.00  0.00    -0.060 N 
ATOM     51  H34 O2N d          -8.211  48.673   1.418  0.00  0.00     0.281 HD
BRANCH  50  52
ATOM     52  C33 O2N d          -6.807  49.781   2.488  0.00  0.00     0.109 C 
ATOM     53  H28 O2N d          -5.959  50.417   2.193  0.00  0.00     0.083 H 
ATOM     54  H29 O2N d          -7.368  50.270   3.298  0.00  0.00     0.083 H 
BRANCH  52  55
ATOM     55  C20 O2N d          -6.291  48.431   2.967  0.00  0.00    -0.013 A 
ATOM     56  C5  O2N d          -5.135  47.797   2.434  0.00  0.00    -0.071 A 
ATOM     57  C10 O2N d          -4.661  46.533   2.913  0.00  0.00    -0.047 A 
ATOM     58  H5  O2N d          -4.591  48.289   1.635  0.00  0.00     0.084 H 
ATOM     59  C21 O2N d          -5.423  45.952   3.898  0.00  0.00     0.106 A 
ATOM     60  H10 O2N d          -3.764  46.067   2.524  0.00  0.00     0.087 H 
ATOM     61  C22 O2N d          -6.541  46.570   4.430  0.00  0.00     0.122 A 
ATOM     62  O41 O2N d          -5.196  44.753   4.503  0.00  0.00    -0.323 OA
ATOM     63  C16 O2N d          -7.022  47.806   3.996  0.00  0.00     0.085 A 
ATOM     64  O42 O2N d          -7.156  45.798   5.425  0.00  0.00    -0.322 OA
ATOM     65  C29 O2N d          -6.244  44.681   5.489  0.00  0.00     0.115 A 
ATOM     66  H18 O2N d          -5.784  44.661   6.487  0.00  0.00     0.118 H 
ATOM     67  H19 O2N d          -6.814  43.754   5.328  0.00  0.00     0.118 H 
BRANCH  63  68
ATOM     68  C28 O2N d          -8.223  48.396   4.700  0.00  0.00     0.212 C 
ATOM     69  O38 O2N d          -9.347  47.988   4.264  0.00  0.00    -0.644 OA
ATOM     70  O40 O2N d          -8.181  49.127   5.741  0.00  0.00    -0.644 OA
ENDBRANCH  63  68
ENDBRANCH  52  55
ENDBRANCH  50  52
BRANCH  50  71
ATOM     71  C34 O2N d          -6.958  49.431  -0.008  0.00  0.00     0.099 C 
ATOM     72  H30 O2N d          -7.144  50.336  -0.603  0.00  0.00     0.082 H 
ATOM     73  H31 O2N d          -5.895  49.387   0.270  0.00  0.00     0.082 H 
BRANCH  71  74
ATOM     74  C26 O2N d          -7.243  48.245  -0.889  0.00  0.00    -0.087 C 
ATOM     75  C25 O2N d          -6.255  47.415  -1.266  0.00  0.00    -0.123 C 
ATOM     76  H15 O2N d          -6.476  46.560  -1.904  0.00  0.00     0.066 H 
ATOM     77  H16 O2N d          -5.234  47.596  -0.933  0.00  0.00     0.066 H 
ATOM     78  H17 O2N d          -8.262  48.057  -1.225  0.00  0.00     0.078 H 
ENDBRANCH  71  74
ENDBRANCH  50  71
ENDBRANCH  47  50
ENDBRANCH   6  47
TORSDOF 15
ENDMDL
MODEL 2
REMARK VINA RESULT:      -5.8      1.908      6.096
REMARK  15 active torsions:
REMARK  status: ('A' for Active; 'I' for Inactive)
REMARK    1  A    between atoms: C27_27  and  C15_15 
REMARK    2  A    between atoms: C16_16  and  C28_28 
REMARK    3  A    between atoms: C35_35  and  C17_17 
REMARK    4  A    between atoms: C35_35  and  C18_18 
REMARK    5  A    between atoms: C19_19  and  C32_32 
REMARK    6  A    between atoms: C33_33  and  C20_20 
REMARK    7  A    between atoms: C23_23  and  O43_43 
REMARK    8  A    between atoms: C24_24  and  O44_44 
REMARK    9  A    between atoms: C34_34  and  C26_26 
REMARK       I    between atoms: N36_36  and  C27_27 
REMARK   10  A    between atoms: O43_43  and  C30_30 
REMARK   11  A    between atoms: O44_44  and  C31_31 
REMARK   12  A    between atoms: C32_32  and  N37_37 
REMARK   13  A    between atoms: N37_37  and  C33_33 
REMARK   14  A    between atoms: N37_37  and  C34_34 
REMARK   15  A    between atoms: C35_35  and  N36_36 
ROOT
ATOM      1  C1  O2N d          -5.988  50.672  -2.157  0.00  0.00    -0.082 A 
ATOM      2  C2  O2N d          -4.915  50.102  -1.509  0.00  0.00    -0.082 A 
ATOM      3  C3  O2N d          -7.236  50.560  -1.558  0.00  0.00    -0.067 A 
ATOM      4  C4  O2N d          -5.052  49.446  -0.296  0.00  0.00    -0.074 A 
ATOM      5  C15 O2N d          -7.395  49.907  -0.349  0.00  0.00     0.040 A 
ATOM      6  C19 O2N d          -6.295  49.341   0.296  0.00  0.00    -0.017 A 
ATOM      7  H1  O2N d          -5.864  51.189  -3.102  0.00  0.00     0.083 H 
ATOM      8  H2  O2N d          -3.933  50.169  -1.962  0.00  0.00     0.083 H 
ATOM      9  H3  O2N d          -8.102  50.993  -2.046  0.00  0.00     0.085 H 
ATOM     10  H4  O2N d          -4.182  49.015   0.189  0.00  0.00     0.084 H 
ENDROOT
BRANCH   5  11
ATOM     11  C27 O2N d          -8.742  49.845   0.258  0.00  0.00     0.253 C 
ATOM     12  N36 O2N d          -9.421  48.626   0.227  0.00  0.00    -0.344 N 
ATOM     13  H33 O2N d          -8.994  47.848  -0.233  0.00  0.00     0.163 HD
ATOM     14  O39 O2N d          -9.201  50.886   0.737  0.00  0.00    -0.268 OA
BRANCH  12  15
ATOM     15  C35 O2N d         -10.725  48.451   0.839  0.00  0.00     0.063 C 
ATOM     16  H32 O2N d         -11.369  49.285   0.526  0.00  0.00     0.088 H 
BRANCH  15  17
ATOM     17  C17 O2N d         -10.578  48.554   2.368  0.00  0.00    -0.031 A 
ATOM     18  C6  O2N d          -9.464  48.022   3.006  0.00  0.00    -0.072 A 
ATOM     19  C11 O2N d          -9.305  48.077   4.396  0.00  0.00    -0.050 A 
ATOM     20  H6  O2N d          -8.693  47.549   2.408  0.00  0.00     0.084 H 
ATOM     21  C23 O2N d         -10.313  48.748   5.135  0.00  0.00     0.068 A 
ATOM     22  H11 O2N d          -8.449  47.626   4.886  0.00  0.00     0.087 H 
ATOM     23  C12 O2N d         -11.457  49.255   4.540  0.00  0.00    -0.050 A 
ATOM     24  C7  O2N d         -11.560  49.144   3.145  0.00  0.00    -0.072 A 
ATOM     25  H12 O2N d         -12.240  49.719   5.129  0.00  0.00     0.087 H 
ATOM     26  H7  O2N d         -12.443  49.537   2.656  0.00  0.00     0.084 H 
BRANCH  21  27
ATOM     27  O43 O2N d         -10.143  48.805   6.529  0.00  0.00    -0.356 OA
BRANCH  27  28
ATOM     28  C30 O2N d          -8.863  49.168   7.089  0.00  0.00     0.010 C 
ATOM     29  H20 O2N d          -8.443  50.014   6.526  0.00  0.00     0.066 H 
ATOM     30  H21 O2N d          -8.178  48.310   7.025  0.00  0.00     0.066 H 
ATOM     31  H22 O2N d          -8.991  49.456   8.142  0.00  0.00     0.066 H 
ENDBRANCH  27  28
ENDBRANCH  21  27
ENDBRANCH  15  17
BRANCH  15  32
ATOM     32  C18 O2N d         -11.357  47.175   0.288  0.00  0.00    -0.031 A 
ATOM     33  C8  O2N d         -11.859  47.228  -1.006  0.00  0.00    -0.072 A 
ATOM     34  C13 O2N d         -12.412  46.080  -1.569  0.00  0.00    -0.050 A 
ATOM     35  H8  O2N d         -11.821  48.152  -1.571  0.00  0.00     0.084 H 
ATOM     36  C24 O2N d         -12.490  44.883  -0.864  0.00  0.00     0.068 A 
ATOM     37  H13 O2N d         -12.791  46.120  -2.583  0.00  0.00     0.087 H 
ATOM     38  C14 O2N d         -12.012  44.775   0.428  0.00  0.00    -0.050 A 
ATOM     39  C9  O2N d         -11.424  45.953   0.948  0.00  0.00    -0.072 A 
ATOM     40  H14 O2N d         -12.083  43.856   1.000  0.00  0.00     0.087 H 
ATOM     41  H9  O2N d         -10.991  45.898   1.940  0.00  0.00     0.084 H 
BRANCH  36  42
ATOM     42  O44 O2N d         -13.089  43.823  -1.544  0.00  0.00    -0.356 OA
BRANCH  42  43
ATOM     43  C31 O2N d         -12.175  42.756  -1.798  0.00  0.00     0.010 C 
ATOM     44  H23 O2N d         -12.632  41.802  -1.493  0.00  0.00     0.066 H 
ATOM     45  H24 O2N d         -11.252  42.920  -1.224  0.00  0.00     0.066 H 
ATOM     46  H25 O2N d         -11.939  42.723  -2.872  0.00  0.00     0.066 H 
ENDBRANCH  42  43
ENDBRANCH  36  42
ENDBRANCH  15  32
ENDBRANCH  12  15
ENDBRANCH   5  11
BRANCH   6  47
ATOM     47  C32 O2N d          -6.394  48.643   1.612  0.00  0.00     0.109 C 
ATOM     48  H26 O2N d          -7.458  48.583   1.886  0.00  0.00     0.083 H 
ATOM     49  H27 O2N d          -5.857  49.247   2.358  0.00  0.00     0.083 H 
BRANCH  47  50
ATOM     50  N37 O2N d          -5.819  47.235   1.648  0.00  0.00    -0.060 N 
ATOM     51  H34 O2N d          -5.745  46.930   0.690  0.00  0.00     0.281 HD
BRANCH  50  52
ATOM     52  C33 O2N d          -6.671  46.148   2.385  0.00  0.00     0.109 C 
ATOM     53  H28 O2N d          -6.027  45.573   3.067  0.00  0.00     0.083 H 
ATOM     54  H29 O2N d          -7.473  46.634   2.960  0.00  0.00     0.083 H 
BRANCH  52  55
ATOM     55  C20 O2N d          -7.280  45.215   1.348  0.00  0.00    -0.013 A 
ATOM     56  C5  O2N d          -7.787  45.655   0.093  0.00  0.00    -0.071 A 
ATOM     57  C10 O2N d          -8.341  44.754  -0.871  0.00  0.00    -0.047 A 
ATOM     58  H5  O2N d          -7.753  46.713  -0.140  0.00  0.00     0.084 H 
ATOM     59  C21 O2N d          -8.387  43.435  -0.489  0.00  0.00     0.106 A 
ATOM     60  H10 O2N d          -8.700  45.089  -1.837  0.00  0.00     0.087 H 
ATOM     61  C22 O2N d          -7.883  42.997   0.723  0.00  0.00     0.122 A 
ATOM     62  O41 O2N d          -8.879  42.393  -1.214  0.00  0.00    -0.323 OA
ATOM     63  C16 O2N d          -7.326  43.847   1.680  0.00  0.00     0.085 A 
ATOM     64  O42 O2N d          -8.032  41.615   0.897  0.00  0.00    -0.322 OA
ATOM     65  C29 O2N d          -8.611  41.254  -0.374  0.00  0.00     0.115 A 
ATOM     66  H18 O2N d          -7.912  40.587  -0.901  0.00  0.00     0.118 H 
ATOM     67  H19 O2N d          -9.556  40.722  -0.190  0.00  0.00     0.118 H 
BRANCH  63  68
ATOM     68  C28 O2N d          -6.761  43.234   2.942  0.00  0.00     0.212 C 
ATOM     69  O38 O2N d          -5.518  42.961   2.889  0.00  0.00    -0.644 OA
ATOM     70  O40 O2N d          -7.385  43.111   4.045  0.00  0.00    -0.644 OA
ENDBRANCH  63  68
ENDBRANCH  52  55
ENDBRANCH  50  52
BRANCH  50  71
ATOM     71  C34 O2N d          -4.433  47.304   2.212  0.00  0.00     0.099 C 
ATOM     72  H30 O2N d          -3.803  47.826   1.477  0.00  0.00     0.082 H 
ATOM     73  H31 O2N d          -4.482  47.895   3.138  0.00  0.00     0.082 H 
BRANCH  71  74
ATOM     74  C26 O2N d          -3.755  46.002   2.543  0.00  0.00    -0.087 C 
ATOM     75  C25 O2N d          -3.340  45.742   3.795  0.00  0.00    -0.123 C 
ATOM     76  H15 O2N d          -2.851  44.795   4.021  0.00  0.00     0.066 H 
ATOM     77  H16 O2N d          -3.493  46.478   4.584  0.00  0.00     0.066 H 
ATOM     78  H17 O2N d          -3.599  45.262   1.760  0.00  0.00     0.078 H 
ENDBRANCH  71  74
ENDBRANCH  50  71
ENDBRANCH  47  50
ENDBRANCH   6  47
TORSDOF 15
ENDMDL
MODEL 3
REMARK VINA RESULT:      -5.8      2.227      7.919
REMARK  15 active torsions:
REMARK  status: ('A' for Active; 'I' for Inactive)
REMARK    1  A    between atoms: C27_27  and  C15_15 
REMARK    2  A    between atoms: C16_16  and  C28_28 
REMARK    3  A    between atoms: C35_35  and  C17_17 
REMARK    4  A    between atoms: C35_35  and  C18_18 
REMARK    5  A    between atoms: C19_19  and  C32_32 
REMARK    6  A    between atoms: C33_33  and  C20_20 
REMARK    7  A    between atoms: C23_23  and  O43_43 
REMARK    8  A    between atoms: C24_24  and  O44_44 
REMARK    9  A    between atoms: C34_34  and  C26_26 
REMARK       I    between atoms: N36_36  and  C27_27 
REMARK   10  A    between atoms: O43_43  and  C30_30 
REMARK   11  A    between atoms: O44_44  and  C31_31 
REMARK   12  A    between atoms: C32_32  and  N37_37 
REMARK   13  A    between atoms: N37_37  and  C33_33 
REMARK   14  A    between atoms: N37_37  and  C34_34 
REMARK   15  A    between atoms: C35_35  and  N36_36 
ROOT
ATOM      1  C1  O2N d          -9.060  40.961  -0.711  0.00  0.00    -0.082 A 
ATOM      2  C2  O2N d         -10.360  41.198  -1.100  0.00  0.00    -0.082 A 
ATOM      3  C3  O2N d          -8.339  42.028  -0.190  0.00  0.00    -0.067 A 
ATOM      4  C4  O2N d         -10.949  42.446  -0.975  0.00  0.00    -0.074 A 
ATOM      5  C15 O2N d          -8.908  43.282  -0.060  0.00  0.00     0.040 A 
ATOM      6  C19 O2N d         -10.227  43.502  -0.454  0.00  0.00    -0.017 A 
ATOM      7  H1  O2N d          -8.616  39.977  -0.808  0.00  0.00     0.083 H 
ATOM      8  H2  O2N d         -10.940  40.383  -1.517  0.00  0.00     0.083 H 
ATOM      9  H3  O2N d          -7.311  41.874   0.119  0.00  0.00     0.085 H 
ATOM     10  H4  O2N d         -11.978  42.594  -1.286  0.00  0.00     0.084 H 
ENDROOT
BRANCH   5  11
ATOM     11  C27 O2N d          -8.101  44.373   0.530  0.00  0.00     0.253 C 
ATOM     12  N36 O2N d          -8.558  44.964   1.708  0.00  0.00    -0.344 N 
ATOM     13  H33 O2N d          -9.428  44.659   2.096  0.00  0.00     0.163 HD
ATOM     14  O39 O2N d          -7.079  44.716  -0.071  0.00  0.00    -0.268 OA
BRANCH  12  15
ATOM     15  C35 O2N d          -7.814  46.006   2.390  0.00  0.00     0.063 C 
ATOM     16  H32 O2N d          -7.029  46.372   1.712  0.00  0.00     0.088 H 
BRANCH  15  17
ATOM     17  C17 O2N d          -7.097  45.394   3.607  0.00  0.00    -0.031 A 
ATOM     18  C6  O2N d          -7.197  45.992   4.858  0.00  0.00    -0.072 A 
ATOM     19  C11 O2N d          -6.542  45.477   5.984  0.00  0.00    -0.050 A 
ATOM     20  H6  O2N d          -7.802  46.885   4.965  0.00  0.00     0.084 H 
ATOM     21  C23 O2N d          -5.802  44.279   5.809  0.00  0.00     0.068 A 
ATOM     22  H11 O2N d          -6.598  45.972   6.946  0.00  0.00     0.087 H 
ATOM     23  C12 O2N d          -5.646  43.676   4.572  0.00  0.00    -0.050 A 
ATOM     24  C7  O2N d          -6.312  44.260   3.483  0.00  0.00    -0.072 A 
ATOM     25  H12 O2N d          -5.034  42.790   4.450  0.00  0.00     0.087 H 
ATOM     26  H7  O2N d          -6.208  43.804   2.505  0.00  0.00     0.084 H 
BRANCH  21  27
ATOM     27  O43 O2N d          -5.154  43.765   6.945  0.00  0.00    -0.356 OA
BRANCH  27  28
ATOM     28  C30 O2N d          -3.984  42.932   6.798  0.00  0.00     0.010 C 
ATOM     29  H20 O2N d          -3.793  42.398   7.740  0.00  0.00     0.066 H 
ATOM     30  H21 O2N d          -3.116  43.560   6.550  0.00  0.00     0.066 H 
ATOM     31  H22 O2N d          -4.151  42.204   5.990  0.00  0.00     0.066 H 
ENDBRANCH  27  28
ENDBRANCH  21  27
ENDBRANCH  15  17
BRANCH  15  32
ATOM     32  C18 O2N d          -8.749  47.182   2.658  0.00  0.00    -0.031 A 
ATOM     33  C8  O2N d          -8.157  48.405   2.950  0.00  0.00    -0.072 A 
ATOM     34  C13 O2N d          -8.966  49.519   3.163  0.00  0.00    -0.050 A 
ATOM     35  H8  O2N d          -7.078  48.490   3.012  0.00  0.00     0.084 H 
ATOM     36  C24 O2N d         -10.353  49.438   3.107  0.00  0.00     0.068 A 
ATOM     37  H13 O2N d          -8.501  50.474   3.380  0.00  0.00     0.087 H 
ATOM     38  C14 O2N d         -10.996  48.248   2.827  0.00  0.00    -0.050 A 
ATOM     39  C9  O2N d         -10.137  47.149   2.578  0.00  0.00    -0.072 A 
ATOM     40  H14 O2N d         -12.076  48.161   2.799  0.00  0.00     0.087 H 
ATOM     41  H9  O2N d         -10.598  46.208   2.304  0.00  0.00     0.084 H 
BRANCH  36  42
ATOM     42  O44 O2N d         -11.035  50.627   3.365  0.00  0.00    -0.356 OA
BRANCH  42  43
ATOM     43  C31 O2N d         -10.488  51.336   4.477  0.00  0.00     0.010 C 
ATOM     44  H23 O2N d          -9.507  51.750   4.200  0.00  0.00     0.066 H 
ATOM     45  H24 O2N d         -10.370  50.649   5.327  0.00  0.00     0.066 H 
ATOM     46  H25 O2N d         -11.166  52.156   4.758  0.00  0.00     0.066 H 
ENDBRANCH  42  43
ENDBRANCH  36  42
ENDBRANCH  15  32
ENDBRANCH  12  15
ENDBRANCH   5  11
BRANCH   6  47
ATOM     47  C32 O2N d         -10.907  44.824  -0.318  0.00  0.00     0.109 C 
ATOM     48  H26 O2N d         -10.379  45.400   0.456  0.00  0.00     0.083 H 
ATOM     49  H27 O2N d         -11.943  44.642   0.003  0.00  0.00     0.083 H 
BRANCH  47  50
ATOM     50  N37 O2N d         -10.950  45.667  -1.584  0.00  0.00    -0.060 N 
ATOM     51  H34 O2N d         -10.028  45.625  -1.989  0.00  0.00     0.281 HD
BRANCH  50  52
ATOM     52  C33 O2N d         -11.274  47.188  -1.402  0.00  0.00     0.109 C 
ATOM     53  H28 O2N d         -11.702  47.589  -2.334  0.00  0.00     0.083 H 
ATOM     54  H29 O2N d         -11.997  47.317  -0.582  0.00  0.00     0.083 H 
BRANCH  52  55
ATOM     55  C20 O2N d          -9.987  47.929  -1.070  0.00  0.00    -0.013 A 
ATOM     56  C5  O2N d          -8.695  47.337  -1.149  0.00  0.00    -0.071 A 
ATOM     57  C10 O2N d          -7.498  48.061  -0.846  0.00  0.00    -0.047 A 
ATOM     58  H5  O2N d          -8.615  46.299  -1.451  0.00  0.00     0.084 H 
ATOM     59  C21 O2N d          -7.681  49.359  -0.433  0.00  0.00     0.106 A 
ATOM     60  H10 O2N d          -6.514  47.616  -0.935  0.00  0.00     0.087 H 
ATOM     61  C22 O2N d          -8.933  49.945  -0.365  0.00  0.00     0.122 A 
ATOM     62  O41 O2N d          -6.711  50.243  -0.071  0.00  0.00    -0.323 OA
ATOM     63  C16 O2N d         -10.118  49.272  -0.666  0.00  0.00     0.085 A 
ATOM     64  O42 O2N d          -8.879  51.273   0.075  0.00  0.00    -0.322 OA
ATOM     65  C29 O2N d          -7.452  51.450   0.194  0.00  0.00     0.115 A 
ATOM     66  H18 O2N d          -7.133  52.221  -0.523  0.00  0.00     0.118 H 
ATOM     67  H19 O2N d          -7.224  51.785   1.217  0.00  0.00     0.118 H 
BRANCH  63  68
ATOM     68  C28 O2N d         -11.417  50.045  -0.606  0.00  0.00     0.212 C 
ATOM     69  O38 O2N d         -11.646  50.777  -1.622  0.00  0.00    -0.644 OA
ATOM     70  O40 O2N d         -12.316  49.907   0.284  0.00  0.00    -0.644 OA
ENDBRANCH  63  68
ENDBRANCH  52  55
ENDBRANCH  50  52
BRANCH  50  71
ATOM     71  C34 O2N d         -11.902  45.027  -2.547  0.00  0.00     0.099 C 
ATOM     72  H30 O2N d         -11.797  45.549  -3.510  0.00  0.00     0.082 H 
ATOM     73  H31 O2N d         -11.596  43.977  -2.665  0.00  0.00     0.082 H 
BRANCH  71  74
ATOM     74  C26 O2N d         -13.362  45.034  -2.186  0.00  0.00    -0.087 C 
ATOM     75  C25 O2N d         -14.283  44.546  -3.036  0.00  0.00    -0.123 C 
ATOM     76  H15 O2N d         -15.337  44.556  -2.761  0.00  0.00     0.066 H 
ATOM     77  H16 O2N d         -13.976  44.139  -3.998  0.00  0.00     0.066 H 
ATOM     78  H17 O2N d         -13.677  45.439  -1.226  0.00  0.00     0.078 H 
ENDBRANCH  71  74
ENDBRANCH  50  71
ENDBRANCH  47  50
ENDBRANCH   6  47
TORSDOF 15
ENDMDL
MODEL 4
REMARK VINA RESULT:      -5.6      2.146      8.460
REMARK  15 active torsions:
REMARK  status: ('A' for Active; 'I' for Inactive)
REMARK    1  A    between atoms: C27_27  and  C15_15 
REMARK    2  A    between atoms: C16_16  and  C28_28 
REMARK    3  A    between atoms: C35_35  and  C17_17 
REMARK    4  A    between atoms: C35_35  and  C18_18 
REMARK    5  A    between atoms: C19_19  and  C32_32 
REMARK    6  A    between atoms: C33_33  and  C20_20 
REMARK    7  A    between atoms: C23_23  and  O43_43 
REMARK    8  A    between atoms: C24_24  and  O44_44 
REMARK    9  A    between atoms: C34_34  and  C26_26 
REMARK       I    between atoms: N36_36  and  C27_27 
REMARK   10  A    between atoms: O43_43  and  C30_30 
REMARK   11  A    between atoms: O44_44  and  C31_31 
REMARK   12  A    between atoms: C32_32  and  N37_37 
REMARK   13  A    between atoms: N37_37  and  C33_33 
REMARK   14  A    between atoms: N37_37  and  C34_34 
REMARK   15  A    between atoms: C35_35  and  N36_36 
ROOT
ATOM      1  C1  O2N d          -8.500  41.235   0.005  0.00  0.00    -0.082 A 
ATOM      2  C2  O2N d          -9.774  41.757   0.012  0.00  0.00    -0.082 A 
ATOM      3  C3  O2N d          -7.478  42.025   0.516  0.00  0.00    -0.067 A 
ATOM      4  C4  O2N d         -10.051  43.018   0.515  0.00  0.00    -0.074 A 
ATOM      5  C15 O2N d          -7.732  43.288   1.020  0.00  0.00     0.040 A 
ATOM      6  C19 O2N d          -9.030  43.797   1.023  0.00  0.00    -0.017 A 
ATOM      7  H1  O2N d          -8.301  40.243  -0.384  0.00  0.00     0.083 H 
ATOM      8  H2  O2N d         -10.586  41.162  -0.390  0.00  0.00     0.083 H 
ATOM      9  H3  O2N d          -6.462  41.645   0.520  0.00  0.00     0.085 H 
ATOM     10  H4  O2N d         -11.068  43.393   0.509  0.00  0.00     0.084 H 
ENDROOT
BRANCH   5  11
ATOM     11  C27 O2N d          -6.610  44.073   1.579  0.00  0.00     0.253 C 
ATOM     12  N36 O2N d          -6.729  45.463   1.603  0.00  0.00    -0.344 N 
ATOM     13  H33 O2N d          -7.547  45.884   1.212  0.00  0.00     0.163 HD
ATOM     14  O39 O2N d          -5.618  43.451   1.971  0.00  0.00    -0.268 OA
BRANCH  12  15
ATOM     15  C35 O2N d          -5.705  46.317   2.177  0.00  0.00     0.063 C 
ATOM     16  H32 O2N d          -4.826  45.697   2.406  0.00  0.00     0.088 H 
BRANCH  15  17
ATOM     17  C17 O2N d          -6.214  46.877   3.517  0.00  0.00    -0.031 A 
ATOM     18  C6  O2N d          -6.598  46.018   4.540  0.00  0.00    -0.072 A 
ATOM     19  C11 O2N d          -7.086  46.490   5.765  0.00  0.00    -0.050 A 
ATOM     20  H6  O2N d          -6.517  44.948   4.384  0.00  0.00     0.084 H 
ATOM     21  C23 O2N d          -7.129  47.896   5.945  0.00  0.00     0.068 A 
ATOM     22  H11 O2N d          -7.416  45.809   6.542  0.00  0.00     0.087 H 
ATOM     23  C12 O2N d          -6.793  48.784   4.936  0.00  0.00    -0.050 A 
ATOM     24  C7  O2N d          -6.334  48.241   3.727  0.00  0.00    -0.072 A 
ATOM     25  H12 O2N d          -6.881  49.855   5.076  0.00  0.00     0.087 H 
ATOM     26  H7  O2N d          -6.062  48.915   2.924  0.00  0.00     0.084 H 
BRANCH  21  27
ATOM     27  O43 O2N d          -7.612  48.361   7.179  0.00  0.00    -0.356 OA
BRANCH  27  28
ATOM     28  C30 O2N d          -8.459  49.529   7.233  0.00  0.00     0.010 C 
ATOM     29  H20 O2N d          -8.118  50.264   6.489  0.00  0.00     0.066 H 
ATOM     30  H21 O2N d          -8.408  49.973   8.237  0.00  0.00     0.066 H 
ATOM     31  H22 O2N d          -9.498  49.240   7.013  0.00  0.00     0.066 H 
ENDBRANCH  27  28
ENDBRANCH  21  27
ENDBRANCH  15  17
BRANCH  15  32
ATOM     32  C18 O2N d          -5.267  47.332   1.124  0.00  0.00    -0.031 A 
ATOM     33  C8  O2N d          -6.238  47.781   0.238  0.00  0.00    -0.072 A 
ATOM     34  C13 O2N d          -5.897  48.736  -0.717  0.00  0.00    -0.050 A 
ATOM     35  H8  O2N d          -7.248  47.392   0.289  0.00  0.00     0.084 H 
ATOM     36  C24 O2N d          -4.606  49.243  -0.818  0.00  0.00     0.068 A 
ATOM     37  H13 O2N d          -6.659  49.094  -1.400  0.00  0.00     0.087 H 
ATOM     38  C14 O2N d          -3.599  48.828   0.032  0.00  0.00    -0.050 A 
ATOM     39  C9  O2N d          -3.996  47.886   1.012  0.00  0.00    -0.072 A 
ATOM     40  H14 O2N d          -2.583  49.197  -0.045  0.00  0.00     0.087 H 
ATOM     41  H9  O2N d          -3.250  47.572   1.732  0.00  0.00     0.084 H 
BRANCH  36  42
ATOM     42  O44 O2N d          -4.405  50.175  -1.836  0.00  0.00    -0.356 OA
BRANCH  42  43
ATOM     43  C31 O2N d          -5.592  50.903  -2.148  0.00  0.00     0.010 C 
ATOM     44  H23 O2N d          -5.416  51.978  -1.989  0.00  0.00     0.066 H 
ATOM     45  H24 O2N d          -6.411  50.566  -1.495  0.00  0.00     0.066 H 
ATOM     46  H25 O2N d          -5.864  50.728  -3.199  0.00  0.00     0.066 H 
ENDBRANCH  42  43
ENDBRANCH  36  42
ENDBRANCH  15  32
ENDBRANCH  12  15
ENDBRANCH   5  11
BRANCH   6  47
ATOM     47  C32 O2N d          -9.376  45.142   1.573  0.00  0.00     0.109 C 
ATOM     48  H26 O2N d          -8.589  45.847   1.265  0.00  0.00     0.083 H 
ATOM     49  H27 O2N d          -9.391  45.067   2.670  0.00  0.00     0.083 H 
BRANCH  47  50
ATOM     50  N37 O2N d         -10.715  45.705   1.123  0.00  0.00    -0.060 N 
ATOM     51  H34 O2N d         -11.346  44.922   1.047  0.00  0.00     0.281 HD
BRANCH  50  52
ATOM     52  C33 O2N d         -10.743  46.420  -0.270  0.00  0.00     0.109 C 
ATOM     53  H28 O2N d         -11.019  47.477  -0.138  0.00  0.00     0.083 H 
ATOM     54  H29 O2N d          -9.749  46.357  -0.737  0.00  0.00     0.083 H 
BRANCH  52  55
ATOM     55  C20 O2N d         -11.769  45.730  -1.156  0.00  0.00    -0.013 A 
ATOM     56  C5  O2N d         -11.440  44.721  -2.104  0.00  0.00    -0.071 A 
ATOM     57  C10 O2N d         -12.427  44.076  -2.915  0.00  0.00    -0.047 A 
ATOM     58  H5  O2N d         -10.401  44.429  -2.215  0.00  0.00     0.084 H 
ATOM     59  C21 O2N d         -13.715  44.525  -2.747  0.00  0.00     0.106 A 
ATOM     60  H10 O2N d         -12.176  43.288  -3.616  0.00  0.00     0.087 H 
ATOM     61  C22 O2N d         -14.045  45.496  -1.819  0.00  0.00     0.122 A 
ATOM     62  O41 O2N d         -14.823  44.089  -3.408  0.00  0.00    -0.323 OA
ATOM     63  C16 O2N d         -13.109  46.136  -1.003  0.00  0.00     0.085 A 
ATOM     64  O42 O2N d         -15.414  45.792  -1.817  0.00  0.00    -0.322 OA
ATOM     65  C29 O2N d         -15.887  44.840  -2.792  0.00  0.00     0.115 A 
ATOM     66  H18 O2N d         -16.569  44.136  -2.293  0.00  0.00     0.118 H 
ATOM     67  H19 O2N d         -16.433  45.384  -3.577  0.00  0.00     0.118 H 
BRANCH  63  68
ATOM     68  C28 O2N d         -13.609  47.141   0.010  0.00  0.00     0.212 C 
ATOM     69  O38 O2N d         -13.432  48.358  -0.318  0.00  0.00    -0.644 OA
ATOM     70  O40 O2N d         -14.288  46.863   1.050  0.00  0.00    -0.644 OA
ENDBRANCH  63  68
ENDBRANCH  52  55
ENDBRANCH  50  52
BRANCH  50  71
ATOM     71  C34 O2N d         -11.236  46.607   2.200  0.00  0.00     0.099 C 
ATOM     72  H30 O2N d         -12.045  47.210   1.762  0.00  0.00     0.082 H 
ATOM     73  H31 O2N d         -11.644  45.968   2.997  0.00  0.00     0.082 H 
BRANCH  71  74
ATOM     74  C26 O2N d         -10.260  47.558   2.838  0.00  0.00    -0.087 C 
ATOM     75  C25 O2N d          -9.957  48.730   2.252  0.00  0.00    -0.123 C 
ATOM     76  H15 O2N d          -9.250  49.408   2.726  0.00  0.00     0.066 H 
ATOM     77  H16 O2N d         -10.420  49.001   1.304  0.00  0.00     0.066 H 
ATOM     78  H17 O2N d          -9.794  47.294   3.786  0.00  0.00     0.078 H 
ENDBRANCH  71  74
ENDBRANCH  50  71
ENDBRANCH  47  50
ENDBRANCH   6  47
TORSDOF 15
ENDMDL
MODEL 5
REMARK VINA RESULT:      -5.6      2.751      5.734
REMARK  15 active torsions:
REMARK  status: ('A' for Active; 'I' for Inactive)
REMARK    1  A    between atoms: C27_27  and  C15_15 
REMARK    2  A    between atoms: C16_16  and  C28_28 
REMARK    3  A    between atoms: C35_35  and  C17_17 
REMARK    4  A    between atoms: C35_35  and  C18_18 
REMARK    5  A    between atoms: C19_19  and  C32_32 
REMARK    6  A    between atoms: C33_33  and  C20_20 
REMARK    7  A    between atoms: C23_23  and  O43_43 
REMARK    8  A    between atoms: C24_24  and  O44_44 
REMARK    9  A    between atoms: C34_34  and  C26_26 
REMARK       I    between atoms: N36_36  and  C27_27 
REMARK   10  A    between atoms: O43_43  and  C30_30 
REMARK   11  A    between atoms: O44_44  and  C31_31 
REMARK   12  A    between atoms: C32_32  and  N37_37 
REMARK   13  A    between atoms: N37_37  and  C33_33 
REMARK   14  A    between atoms: N37_37  and  C34_34 
REMARK   15  A    between atoms: C35_35  and  N36_36 
ROOT
ATOM      1  C1  O2N d          -8.660  49.444   6.756  0.00  0.00    -0.082 A 
ATOM      2  C2  O2N d          -7.413  48.914   6.506  0.00  0.00    -0.082 A 
ATOM      3  C3  O2N d          -9.682  49.131   5.869  0.00  0.00    -0.067 A 
ATOM      4  C4  O2N d          -7.169  48.087   5.422  0.00  0.00    -0.074 A 
ATOM      5  C15 O2N d          -9.458  48.309   4.779  0.00  0.00     0.040 A 
ATOM      6  C19 O2N d          -8.190  47.777   4.546  0.00  0.00    -0.017 A 
ATOM      7  H1  O2N d          -8.837  50.083   7.613  0.00  0.00     0.083 H 
ATOM      8  H2  O2N d          -6.598  49.152   7.180  0.00  0.00     0.083 H 
ATOM      9  H3  O2N d         -10.673  49.537   6.035  0.00  0.00     0.085 H 
ATOM     10  H4  O2N d          -6.175  47.683   5.261  0.00  0.00     0.084 H 
ENDROOT
BRANCH   5  11
ATOM     11  C27 O2N d         -10.591  47.984   3.885  0.00  0.00     0.253 C 
ATOM     12  N36 O2N d         -10.343  47.168   2.781  0.00  0.00    -0.344 N 
ATOM     13  H33 O2N d          -9.408  46.860   2.608  0.00  0.00     0.163 HD
ATOM     14  O39 O2N d         -11.690  48.476   4.155  0.00  0.00    -0.268 OA
BRANCH  12  15
ATOM     15  C35 O2N d         -11.397  46.752   1.875  0.00  0.00     0.063 C 
ATOM     16  H32 O2N d         -12.267  46.443   2.473  0.00  0.00     0.088 H 
BRANCH  15  17
ATOM     17  C17 O2N d         -10.929  45.507   1.099  0.00  0.00    -0.031 A 
ATOM     18  C6  O2N d         -11.423  45.243  -0.172  0.00  0.00    -0.072 A 
ATOM     19  C11 O2N d         -11.036  44.110  -0.900  0.00  0.00    -0.050 A 
ATOM     20  H6  O2N d         -12.130  45.935  -0.615  0.00  0.00     0.084 H 
ATOM     21  C23 O2N d         -10.072  43.257  -0.304  0.00  0.00     0.068 A 
ATOM     22  H11 O2N d         -11.456  43.894  -1.876  0.00  0.00     0.087 H 
ATOM     23  C12 O2N d          -9.587  43.466   0.977  0.00  0.00    -0.050 A 
ATOM     24  C7  O2N d         -10.035  44.609   1.657  0.00  0.00    -0.072 A 
ATOM     25  H12 O2N d          -8.889  42.774   1.435  0.00  0.00     0.087 H 
ATOM     26  H7  O2N d          -9.666  44.796   2.658  0.00  0.00     0.084 H 
BRANCH  21  27
ATOM     27  O43 O2N d          -9.685  42.127  -1.043  0.00  0.00    -0.356 OA
BRANCH  27  28
ATOM     28  C30 O2N d         -10.670  41.365  -1.773  0.00  0.00     0.010 C 
ATOM     29  H20 O2N d         -11.034  41.957  -2.625  0.00  0.00     0.066 H 
ATOM     30  H21 O2N d         -11.512  41.123  -1.109  0.00  0.00     0.066 H 
ATOM     31  H22 O2N d         -10.215  40.433  -2.141  0.00  0.00     0.066 H 
ENDBRANCH  27  28
ENDBRANCH  21  27
ENDBRANCH  15  17
BRANCH  15  32
ATOM     32  C18 O2N d         -11.838  47.957   1.048  0.00  0.00    -0.031 A 
ATOM     33  C8  O2N d         -13.198  48.241   1.022  0.00  0.00    -0.072 A 
ATOM     34  C13 O2N d         -13.647  49.354   0.314  0.00  0.00    -0.050 A 
ATOM     35  H8  O2N d         -13.900  47.605   1.547  0.00  0.00     0.084 H 
ATOM     36  C24 O2N d         -12.772  50.181  -0.383  0.00  0.00     0.068 A 
ATOM     37  H13 O2N d         -14.707  49.581   0.305  0.00  0.00     0.087 H 
ATOM     38  C14 O2N d         -11.411  49.943  -0.397  0.00  0.00    -0.050 A 
ATOM     39  C9  O2N d         -10.992  48.826   0.366  0.00  0.00    -0.072 A 
ATOM     40  H14 O2N d         -10.717  50.564  -0.951  0.00  0.00     0.087 H 
ATOM     41  H9  O2N d          -9.928  48.633   0.424  0.00  0.00     0.084 H 
BRANCH  36  42
ATOM     42  O44 O2N d         -13.365  51.242  -1.066  0.00  0.00    -0.356 OA
BRANCH  42  43
ATOM     43  C31 O2N d         -14.790  51.162  -1.063  0.00  0.00     0.010 C 
ATOM     44  H23 O2N d         -15.214  52.171  -1.176  0.00  0.00     0.066 H 
ATOM     45  H24 O2N d         -15.130  50.724  -0.113  0.00  0.00     0.066 H 
ATOM     46  H25 O2N d         -15.123  50.528  -1.899  0.00  0.00     0.066 H 
ENDBRANCH  42  43
ENDBRANCH  36  42
ENDBRANCH  15  32
ENDBRANCH  12  15
ENDBRANCH   5  11
BRANCH   6  47
ATOM     47  C32 O2N d          -7.888  46.866   3.402  0.00  0.00     0.109 C 
ATOM     48  H26 O2N d          -7.943  47.455   2.474  0.00  0.00     0.083 H 
ATOM     49  H27 O2N d          -8.655  46.079   3.382  0.00  0.00     0.083 H 
BRANCH  47  50
ATOM     50  N37 O2N d          -6.525  46.192   3.449  0.00  0.00    -0.060 N 
ATOM     51  H34 O2N d          -6.086  46.490   4.307  0.00  0.00     0.281 HD
BRANCH  50  52
ATOM     52  C33 O2N d          -5.524  46.552   2.301  0.00  0.00     0.109 C 
ATOM     53  H28 O2N d          -4.772  47.263   2.676  0.00  0.00     0.083 H 
ATOM     54  H29 O2N d          -5.021  45.639   1.949  0.00  0.00     0.083 H 
BRANCH  52  55
ATOM     55  C20 O2N d          -6.299  47.185   1.154  0.00  0.00    -0.013 A 
ATOM     56  C5  O2N d          -7.119  46.446   0.256  0.00  0.00    -0.071 A 
ATOM     57  C10 O2N d          -7.850  47.067  -0.806  0.00  0.00    -0.047 A 
ATOM     58  H5  O2N d          -7.193  45.371   0.382  0.00  0.00     0.084 H 
ATOM     59  C21 O2N d          -7.676  48.425  -0.927  0.00  0.00     0.106 A 
ATOM     60  H10 O2N d          -8.496  46.505  -1.470  0.00  0.00     0.087 H 
ATOM     61  C22 O2N d          -6.890  49.152  -0.050  0.00  0.00     0.122 A 
ATOM     62  O41 O2N d          -8.243  49.239  -1.861  0.00  0.00    -0.323 OA
ATOM     63  C16 O2N d          -6.175  48.579   1.003  0.00  0.00     0.085 A 
ATOM     64  O42 O2N d          -6.864  50.517  -0.362  0.00  0.00    -0.322 OA
ATOM     65  C29 O2N d          -7.779  50.548  -1.477  0.00  0.00     0.115 A 
ATOM     66  H18 O2N d          -8.650  51.160  -1.199  0.00  0.00     0.118 H 
ATOM     67  H19 O2N d          -7.269  51.006  -2.337  0.00  0.00     0.118 H 
BRANCH  63  68
ATOM     68  C28 O2N d          -5.398  49.494   1.923  0.00  0.00     0.212 C 
ATOM     69  O38 O2N d          -4.196  49.712   1.564  0.00  0.00    -0.644 OA
ATOM     70  O40 O2N d          -5.887  50.140   2.905  0.00  0.00    -0.644 OA
ENDBRANCH  63  68
ENDBRANCH  52  55
ENDBRANCH  50  52
BRANCH  50  71
ATOM     71  C34 O2N d          -6.732  44.710   3.536  0.00  0.00     0.099 C 
ATOM     72  H30 O2N d          -6.764  44.444   4.602  0.00  0.00     0.082 H 
ATOM     73  H31 O2N d          -7.704  44.485   3.072  0.00  0.00     0.082 H 
BRANCH  71  74
ATOM     74  C26 O2N d          -5.705  43.829   2.881  0.00  0.00    -0.087 C 
ATOM     75  C25 O2N d          -6.046  43.005   1.874  0.00  0.00    -0.123 C 
ATOM     76  H15 O2N d          -5.291  42.373   1.408  0.00  0.00     0.066 H 
ATOM     77  H16 O2N d          -7.077  42.972   1.522  0.00  0.00     0.066 H 
ATOM     78  H17 O2N d          -4.672  43.857   3.226  0.00  0.00     0.078 H 
ENDBRANCH  71  74
ENDBRANCH  50  71
ENDBRANCH  47  50
ENDBRANCH   6  47
TORSDOF 15
ENDMDL
MODEL 6
REMARK VINA RESULT:      -5.5      1.961      6.695
REMARK  15 active torsions:
REMARK  status: ('A' for Active; 'I' for Inactive)
REMARK    1  A    between atoms: C27_27  and  C15_15 
REMARK    2  A    between atoms: C16_16  and  C28_28 
REMARK    3  A    between atoms: C35_35  and  C17_17 
REMARK    4  A    between atoms: C35_35  and  C18_18 
REMARK    5  A    between atoms: C19_19  and  C32_32 
REMARK    6  A    between atoms: C33_33  and  C20_20 
REMARK    7  A    between atoms: C23_23  and  O43_43 
REMARK    8  A    between atoms: C24_24  and  O44_44 
REMARK    9  A    between atoms: C34_34  and  C26_26 
REMARK       I    between atoms: N36_36  and  C27_27 
REMARK   10  A    between atoms: O43_43  and  C30_30 
REMARK   11  A    between atoms: O44_44  and  C31_31 
REMARK   12  A    between atoms: C32_32  and  N37_37 
REMARK   13  A    between atoms: N37_37  and  C33_33 
REMARK   14  A    between atoms: N37_37  and  C34_34 
REMARK   15  A    between atoms: C35_35  and  N36_36 
ROOT
ATOM      1  C1  O2N d         -13.031  44.360  -1.749  0.00  0.00    -0.082 A 
ATOM      2  C2  O2N d         -12.149  43.302  -1.730  0.00  0.00    -0.082 A 
ATOM      3  C3  O2N d         -12.526  45.625  -1.476  0.00  0.00    -0.067 A 
ATOM      4  C4  O2N d         -10.800  43.474  -1.462  0.00  0.00    -0.074 A 
ATOM      5  C15 O2N d         -11.184  45.817  -1.204  0.00  0.00     0.040 A 
ATOM      6  C19 O2N d         -10.304  44.735  -1.195  0.00  0.00    -0.017 A 
ATOM      7  H1  O2N d         -14.082  44.210  -1.967  0.00  0.00     0.083 H 
ATOM      8  H2  O2N d         -12.522  42.305  -1.931  0.00  0.00     0.083 H 
ATOM      9  H3  O2N d         -13.197  46.477  -1.477  0.00  0.00     0.085 H 
ATOM     10  H4  O2N d         -10.134  42.618  -1.463  0.00  0.00     0.084 H 
ENDROOT
BRANCH   5  11
ATOM     11  C27 O2N d         -10.696  47.191  -0.952  0.00  0.00     0.253 C 
ATOM     12  N36 O2N d         -10.207  47.490   0.320  0.00  0.00    -0.344 N 
ATOM     13  H33 O2N d         -10.234  46.783   1.027  0.00  0.00     0.163 HD
ATOM     14  O39 O2N d         -10.774  48.003  -1.877  0.00  0.00    -0.268 OA
BRANCH  12  15
ATOM     15  C35 O2N d          -9.660  48.793   0.652  0.00  0.00     0.063 C 
ATOM     16  H32 O2N d         -10.066  49.529  -0.057  0.00  0.00     0.088 H 
BRANCH  15  17
ATOM     17  C17 O2N d          -8.136  48.765   0.440  0.00  0.00    -0.031 A 
ATOM     18  C6  O2N d          -7.281  49.274   1.410  0.00  0.00    -0.072 A 
ATOM     19  C11 O2N d          -5.890  49.285   1.244  0.00  0.00    -0.050 A 
ATOM     20  H6  O2N d          -7.704  49.674   2.324  0.00  0.00     0.084 H 
ATOM     21  C23 O2N d          -5.376  48.707   0.055  0.00  0.00     0.068 A 
ATOM     22  H11 O2N d          -5.235  49.718   1.991  0.00  0.00     0.087 H 
ATOM     23  C12 O2N d          -6.198  48.226  -0.952  0.00  0.00    -0.050 A 
ATOM     24  C7  O2N d          -7.582  48.267  -0.727  0.00  0.00    -0.072 A 
ATOM     25  H12 O2N d          -5.787  47.834  -1.875  0.00  0.00     0.087 H 
ATOM     26  H7  O2N d          -8.245  47.893  -1.498  0.00  0.00     0.084 H 
BRANCH  21  27
ATOM     27  O43 O2N d          -3.980  48.716  -0.100  0.00  0.00    -0.356 OA
BRANCH  27  28
ATOM     28  C30 O2N d          -3.351  49.708  -0.940  0.00  0.00     0.010 C 
ATOM     29  H20 O2N d          -2.312  49.410  -1.144  0.00  0.00     0.066 H 
ATOM     30  H21 O2N d          -3.359  50.680  -0.427  0.00  0.00     0.066 H 
ATOM     31  H22 O2N d          -3.902  49.789  -1.888  0.00  0.00     0.066 H 
ENDBRANCH  27  28
ENDBRANCH  21  27
ENDBRANCH  15  17
BRANCH  15  32
ATOM     32  C18 O2N d         -10.159  49.195   2.038  0.00  0.00    -0.031 A 
ATOM     33  C8  O2N d         -10.616  48.176   2.864  0.00  0.00    -0.072 A 
ATOM     34  C13 O2N d         -11.045  48.487   4.153  0.00  0.00    -0.050 A 
ATOM     35  H8  O2N d         -10.638  47.152   2.511  0.00  0.00     0.084 H 
ATOM     36  C24 O2N d         -11.045  49.793   4.630  0.00  0.00     0.068 A 
ATOM     37  H13 O2N d         -11.390  47.689   4.801  0.00  0.00     0.087 H 
ATOM     38  C14 O2N d         -10.608  50.846   3.850  0.00  0.00    -0.050 A 
ATOM     39  C9  O2N d         -10.144  50.483   2.563  0.00  0.00    -0.072 A 
ATOM     40  H14 O2N d         -10.619  51.873   4.198  0.00  0.00     0.087 H 
ATOM     41  H9  O2N d          -9.744  51.272   1.936  0.00  0.00     0.084 H 
BRANCH  36  42
ATOM     42  O44 O2N d         -11.524  49.958   5.930  0.00  0.00    -0.356 OA
BRANCH  42  43
ATOM     43  C31 O2N d         -12.906  50.316   5.957  0.00  0.00     0.010 C 
ATOM     44  H23 O2N d         -13.453  49.618   6.608  0.00  0.00     0.066 H 
ATOM     45  H24 O2N d         -13.317  50.266   4.938  0.00  0.00     0.066 H 
ATOM     46  H25 O2N d         -13.012  51.340   6.345  0.00  0.00     0.066 H 
ENDBRANCH  42  43
ENDBRANCH  36  42
ENDBRANCH  15  32
ENDBRANCH  12  15
ENDBRANCH   5  11
BRANCH   6  47
ATOM     47  C32 O2N d          -8.841  44.878  -0.932  0.00  0.00     0.109 C 
ATOM     48  H26 O2N d          -8.526  45.868  -1.292  0.00  0.00     0.083 H 
ATOM     49  H27 O2N d          -8.316  44.097  -1.501  0.00  0.00     0.083 H 
BRANCH  47  50
ATOM     50  N37 O2N d          -8.427  44.754   0.526  0.00  0.00    -0.060 N 
ATOM     51  H34 O2N d          -9.005  45.396   1.045  0.00  0.00     0.281 HD
BRANCH  50  52
ATOM     52  C33 O2N d          -6.946  45.129   0.868  0.00  0.00     0.109 C 
ATOM     53  H28 O2N d          -6.287  44.278   0.640  0.00  0.00     0.083 H 
ATOM     54  H29 O2N d          -6.638  46.001   0.273  0.00  0.00     0.083 H 
BRANCH  52  55
ATOM     55  C20 O2N d          -6.853  45.463   2.350  0.00  0.00    -0.013 A 
ATOM     56  C5  O2N d          -7.769  46.319   3.023  0.00  0.00    -0.071 A 
ATOM     57  C10 O2N d          -7.669  46.606   4.422  0.00  0.00    -0.047 A 
ATOM     58  H5  O2N d          -8.574  46.772   2.454  0.00  0.00     0.084 H 
ATOM     59  C21 O2N d          -6.602  46.029   5.068  0.00  0.00     0.106 A 
ATOM     60  H10 O2N d          -8.385  47.236   4.936  0.00  0.00     0.087 H 
ATOM     61  C22 O2N d          -5.714  45.185   4.423  0.00  0.00     0.122 A 
ATOM     62  O41 O2N d          -6.278  46.161   6.384  0.00  0.00    -0.323 OA
ATOM     63  C16 O2N d          -5.791  44.875   3.065  0.00  0.00     0.085 A 
ATOM     64  O42 O2N d          -4.711  44.710   5.278  0.00  0.00    -0.322 OA
ATOM     65  C29 O2N d          -5.133  45.298   6.526  0.00  0.00     0.115 A 
ATOM     66  H18 O2N d          -5.388  44.490   7.226  0.00  0.00     0.118 H 
ATOM     67  H19 O2N d          -4.299  45.887   6.935  0.00  0.00     0.118 H 
BRANCH  63  68
ATOM     68  C28 O2N d          -4.791  43.894   2.495  0.00  0.00     0.212 C 
ATOM     69  O38 O2N d          -5.230  42.707   2.359  0.00  0.00    -0.644 OA
ATOM     70  O40 O2N d          -3.643  44.196   2.035  0.00  0.00    -0.644 OA
ENDBRANCH  63  68
ENDBRANCH  52  55
ENDBRANCH  50  52
BRANCH  50  71
ATOM     71  C34 O2N d          -8.752  43.368   0.995  0.00  0.00     0.099 C 
ATOM     72  H30 O2N d          -8.578  43.339   2.081  0.00  0.00     0.082 H 
ATOM     73  H31 O2N d          -9.818  43.192   0.790  0.00  0.00     0.082 H 
BRANCH  71  74
ATOM     74  C26 O2N d          -7.981  42.232   0.383  0.00  0.00    -0.087 C 
ATOM     75  C25 O2N d          -8.563  41.037   0.177  0.00  0.00    -0.123 C 
ATOM     76  H15 O2N d          -7.993  40.223  -0.267  0.00  0.00     0.066 H 
ATOM     77  H16 O2N d          -9.605  40.884   0.455  0.00  0.00     0.066 H 
ATOM     78  H17 O2N d          -6.938  42.377   0.103  0.00  0.00     0.078 H 
ENDBRANCH  71  74
ENDBRANCH  50  71
ENDBRANCH  47  50
ENDBRANCH   6  47
TORSDOF 15
ENDMDL
MODEL 7
REMARK VINA RESULT:      -5.3      2.173      6.221
REMARK  15 active torsions:
REMARK  status: ('A' for Active; 'I' for Inactive)
REMARK    1  A    between atoms: C27_27  and  C15_15 
REMARK    2  A    between atoms: C16_16  and  C28_28 
REMARK    3  A    between atoms: C35_35  and  C17_17 
REMARK    4  A    between atoms: C35_35  and  C18_18 
REMARK    5  A    between atoms: C19_19  and  C32_32 
REMARK    6  A    between atoms: C33_33  and  C20_20 
REMARK    7  A    between atoms: C23_23  and  O43_43 
REMARK    8  A    between atoms: C24_24  and  O44_44 
REMARK    9  A    between atoms: C34_34  and  C26_26 
REMARK       I    between atoms: N36_36  and  C27_27 
REMARK   10  A    between atoms: O43_43  and  C30_30 
REMARK   11  A    between atoms: O44_44  and  C31_31 
REMARK   12  A    between atoms: C32_32  and  N37_37 
REMARK   13  A    between atoms: N37_37  and  C33_33 
REMARK   14  A    between atoms: N37_37  and  C34_34 
REMARK   15  A    between atoms: C35_35  and  N36_36 
ROOT
ATOM      1  C1  O2N d         -12.643  42.776  -1.817  0.00  0.00    -0.082 A 
ATOM      2  C2  O2N d         -11.494  42.053  -1.587  0.00  0.00    -0.082 A 
ATOM      3  C3  O2N d         -12.584  44.153  -1.643  0.00  0.00    -0.067 A 
ATOM      4  C4  O2N d         -10.307  42.659  -1.206  0.00  0.00    -0.074 A 
ATOM      5  C15 O2N d         -11.410  44.776  -1.260  0.00  0.00     0.040 A 
ATOM      6  C19 O2N d         -10.254  44.028  -1.038  0.00  0.00    -0.017 A 
ATOM      7  H1  O2N d         -13.562  42.288  -2.122  0.00  0.00     0.083 H 
ATOM      8  H2  O2N d         -11.519  40.976  -1.708  0.00  0.00     0.083 H 
ATOM      9  H3  O2N d         -13.474  44.749  -1.810  0.00  0.00     0.085 H 
ATOM     10  H4  O2N d          -9.420  42.057  -1.041  0.00  0.00     0.084 H 
ENDROOT
BRANCH   5  11
ATOM     11  C27 O2N d         -11.397  46.249  -1.119  0.00  0.00     0.253 C 
ATOM     12  N36 O2N d         -11.197  46.785   0.153  0.00  0.00    -0.344 N 
ATOM     13  H33 O2N d         -11.105  46.162   0.931  0.00  0.00     0.163 HD
ATOM     14  O39 O2N d         -11.590  46.921  -2.136  0.00  0.00    -0.268 OA
BRANCH  12  15
ATOM     15  C35 O2N d         -11.118  48.215   0.387  0.00  0.00     0.063 C 
ATOM     16  H32 O2N d         -11.972  48.695  -0.113  0.00  0.00     0.088 H 
BRANCH  15  17
ATOM     17  C17 O2N d          -9.846  48.762  -0.286  0.00  0.00    -0.031 A 
ATOM     18  C6  O2N d          -8.616  48.153  -0.068  0.00  0.00    -0.072 A 
ATOM     19  C11 O2N d          -7.434  48.635  -0.646  0.00  0.00    -0.050 A 
ATOM     20  H6  O2N d          -8.570  47.277   0.569  0.00  0.00     0.084 H 
ATOM     21  C23 O2N d          -7.547  49.752  -1.512  0.00  0.00     0.068 A 
ATOM     22  H11 O2N d          -6.475  48.173  -0.439  0.00  0.00     0.087 H 
ATOM     23  C12 O2N d          -8.748  50.410  -1.722  0.00  0.00    -0.050 A 
ATOM     24  C7  O2N d          -9.888  49.886  -1.093  0.00  0.00    -0.072 A 
ATOM     25  H12 O2N d          -8.805  51.294  -2.347  0.00  0.00     0.087 H 
ATOM     26  H7  O2N d         -10.839  50.382  -1.246  0.00  0.00     0.084 H 
BRANCH  21  27
ATOM     27  O43 O2N d          -6.358  50.225  -2.092  0.00  0.00    -0.356 OA
BRANCH  27  28
ATOM     28  C30 O2N d          -5.094  49.612  -1.758  0.00  0.00     0.010 C 
ATOM     29  H20 O2N d          -5.172  48.521  -1.880  0.00  0.00     0.066 H 
ATOM     30  H21 O2N d          -4.837  49.847  -0.716  0.00  0.00     0.066 H 
ATOM     31  H22 O2N d          -4.311  50.000  -2.425  0.00  0.00     0.066 H 
ENDBRANCH  27  28
ENDBRANCH  21  27
ENDBRANCH  15  17
BRANCH  15  32
ATOM     32  C18 O2N d         -11.277  48.477   1.882  0.00  0.00    -0.031 A 
ATOM     33  C8  O2N d         -10.384  47.839   2.733  0.00  0.00    -0.072 A 
ATOM     34  C13 O2N d         -10.463  48.076   4.104  0.00  0.00    -0.050 A 
ATOM     35  H8  O2N d          -9.635  47.165   2.336  0.00  0.00     0.084 H 
ATOM     36  C24 O2N d         -11.423  48.923   4.646  0.00  0.00     0.068 A 
ATOM     37  H13 O2N d          -9.757  47.587   4.765  0.00  0.00     0.087 H 
ATOM     38  C14 O2N d         -12.340  49.580   3.848  0.00  0.00    -0.050 A 
ATOM     39  C9  O2N d         -12.201  49.342   2.459  0.00  0.00    -0.072 A 
ATOM     40  H14 O2N d         -13.108  50.227   4.255  0.00  0.00     0.087 H 
ATOM     41  H9  O2N d         -12.868  49.876   1.793  0.00  0.00     0.084 H 
BRANCH  36  42
ATOM     42  O44 O2N d         -11.399  49.048   6.035  0.00  0.00    -0.356 OA
BRANCH  42  43
ATOM     43  C31 O2N d         -10.085  49.295   6.536  0.00  0.00     0.010 C 
ATOM     44  H23 O2N d          -9.628  48.345   6.851  0.00  0.00     0.066 H 
ATOM     45  H24 O2N d         -10.143  49.977   7.397  0.00  0.00     0.066 H 
ATOM     46  H25 O2N d          -9.472  49.753   5.745  0.00  0.00     0.066 H 
ENDBRANCH  42  43
ENDBRANCH  36  42
ENDBRANCH  15  32
ENDBRANCH  12  15
ENDBRANCH   5  11
BRANCH   6  47
ATOM     47  C32 O2N d          -8.951  44.642  -0.646  0.00  0.00     0.109 C 
ATOM     48  H26 O2N d          -9.081  45.734  -0.627  0.00  0.00     0.083 H 
ATOM     49  H27 O2N d          -8.206  44.374  -1.410  0.00  0.00     0.083 H 
BRANCH  47  50
ATOM     50  N37 O2N d          -8.408  44.210   0.708  0.00  0.00    -0.060 N 
ATOM     51  H34 O2N d          -9.055  43.527   1.073  0.00  0.00     0.281 HD
BRANCH  50  52
ATOM     52  C33 O2N d          -8.289  45.323   1.803  0.00  0.00     0.109 C 
ATOM     53  H28 O2N d          -7.914  46.251   1.347  0.00  0.00     0.083 H 
ATOM     54  H29 O2N d          -9.277  45.507   2.251  0.00  0.00     0.083 H 
BRANCH  52  55
ATOM     55  C20 O2N d          -7.320  44.853   2.878  0.00  0.00    -0.013 A 
ATOM     56  C5  O2N d          -7.463  43.627   3.586  0.00  0.00    -0.071 A 
ATOM     57  C10 O2N d          -6.528  43.201   4.582  0.00  0.00    -0.047 A 
ATOM     58  H5  O2N d          -8.312  42.991   3.362  0.00  0.00     0.084 H 
ATOM     59  C21 O2N d          -5.500  44.075   4.840  0.00  0.00     0.106 A 
ATOM     60  H10 O2N d          -6.624  42.253   5.099  0.00  0.00     0.087 H 
ATOM     61  C22 O2N d          -5.347  45.263   4.147  0.00  0.00     0.122 A 
ATOM     62  O41 O2N d          -4.499  43.911   5.749  0.00  0.00    -0.323 OA
ATOM     63  C16 O2N d          -6.232  45.702   3.162  0.00  0.00     0.085 A 
ATOM     64  O42 O2N d          -4.228  45.991   4.573  0.00  0.00    -0.322 OA
ATOM     65  C29 O2N d          -3.679  45.078   5.546  0.00  0.00     0.115 A 
ATOM     66  H18 O2N d          -2.687  44.753   5.200  0.00  0.00     0.118 H 
ATOM     67  H19 O2N d          -3.577  45.607   6.505  0.00  0.00     0.118 H 
BRANCH  63  68
ATOM     68  C28 O2N d          -5.920  46.994   2.440  0.00  0.00     0.212 C 
ATOM     69  O38 O2N d          -5.216  46.858   1.388  0.00  0.00    -0.644 OA
ATOM     70  O40 O2N d          -6.410  48.134   2.725  0.00  0.00    -0.644 OA
ENDBRANCH  63  68
ENDBRANCH  52  55
ENDBRANCH  50  52
BRANCH  50  71
ATOM     71  C34 O2N d          -7.094  43.524   0.495  0.00  0.00     0.099 C 
ATOM     72  H30 O2N d          -6.705  43.852  -0.480  0.00  0.00     0.082 H 
ATOM     73  H31 O2N d          -6.414  43.858   1.293  0.00  0.00     0.082 H 
BRANCH  71  74
ATOM     74  C26 O2N d          -7.089  42.019   0.500  0.00  0.00    -0.087 C 
ATOM     75  C25 O2N d          -8.210  41.329   0.777  0.00  0.00    -0.123 C 
ATOM     76  H15 O2N d          -8.192  40.240   0.776  0.00  0.00     0.066 H 
ATOM     77  H16 O2N d          -9.135  41.859   1.001  0.00  0.00     0.066 H 
ATOM     78  H17 O2N d          -6.168  41.483   0.277  0.00  0.00     0.078 H 
ENDBRANCH  71  74
ENDBRANCH  50  71
ENDBRANCH  47  50
ENDBRANCH   6  47
TORSDOF 15
ENDMDL
MODEL 8
REMARK VINA RESULT:      -5.1      2.210      7.461
REMARK  15 active torsions:
REMARK  status: ('A' for Active; 'I' for Inactive)
REMARK    1  A    between atoms: C27_27  and  C15_15 
REMARK    2  A    between atoms: C16_16  and  C28_28 
REMARK    3  A    between atoms: C35_35  and  C17_17 
REMARK    4  A    between atoms: C35_35  and  C18_18 
REMARK    5  A    between atoms: C19_19  and  C32_32 
REMARK    6  A    between atoms: C33_33  and  C20_20 
REMARK    7  A    between atoms: C23_23  and  O43_43 
REMARK    8  A    between atoms: C24_24  and  O44_44 
REMARK    9  A    between atoms: C34_34  and  C26_26 
REMARK       I    between atoms: N36_36  and  C27_27 
REMARK   10  A    between atoms: O43_43  and  C30_30 
REMARK   11  A    between atoms: O44_44  and  C31_31 
REMARK   12  A    between atoms: C32_32  and  N37_37 
REMARK   13  A    between atoms: N37_37  and  C33_33 
REMARK   14  A    between atoms: N37_37  and  C34_34 
REMARK   15  A    between atoms: C35_35  and  N36_36 
ROOT
ATOM      1  C1  O2N d          -7.969  41.334   0.491  0.00  0.00    -0.082 A 
ATOM      2  C2  O2N d          -9.236  41.261  -0.044  0.00  0.00    -0.082 A 
ATOM      3  C3  O2N d          -7.533  42.571   0.948  0.00  0.00    -0.067 A 
ATOM      4  C4  O2N d         -10.066  42.368  -0.123  0.00  0.00    -0.074 A 
ATOM      5  C15 O2N d          -8.345  43.689   0.875  0.00  0.00     0.040 A 
ATOM      6  C19 O2N d          -9.627  43.595   0.336  0.00  0.00    -0.017 A 
ATOM      7  H1  O2N d          -7.335  40.457   0.554  0.00  0.00     0.083 H 
ATOM      8  H2  O2N d          -9.595  40.308  -0.414  0.00  0.00     0.083 H 
ATOM      9  H3  O2N d          -6.538  42.662   1.369  0.00  0.00     0.085 H 
ATOM     10  H4  O2N d         -11.061  42.271  -0.545  0.00  0.00     0.084 H 
ENDROOT
BRANCH   5  11
ATOM     11  C27 O2N d          -7.839  44.974   1.405  0.00  0.00     0.253 C 
ATOM     12  N36 O2N d          -6.462  45.111   1.591  0.00  0.00    -0.344 N 
ATOM     13  H33 O2N d          -5.869  44.330   1.396  0.00  0.00     0.163 HD
ATOM     14  O39 O2N d          -8.668  45.846   1.676  0.00  0.00    -0.268 OA
BRANCH  12  15
ATOM     15  C35 O2N d          -5.864  46.348   2.057  0.00  0.00     0.063 C 
ATOM     16  H32 O2N d          -4.850  46.126   2.422  0.00  0.00     0.088 H 
BRANCH  15  17
ATOM     17  C17 O2N d          -6.666  46.868   3.263  0.00  0.00    -0.031 A 
ATOM     18  C6  O2N d          -6.727  46.130   4.439  0.00  0.00    -0.072 A 
ATOM     19  C11 O2N d          -7.463  46.561   5.550  0.00  0.00    -0.050 A 
ATOM     20  H6  O2N d          -6.189  45.191   4.498  0.00  0.00     0.084 H 
ATOM     21  C23 O2N d          -8.112  47.818   5.448  0.00  0.00     0.068 A 
ATOM     22  H11 O2N d          -7.534  45.959   6.449  0.00  0.00     0.087 H 
ATOM     23  C12 O2N d          -8.107  48.563   4.280  0.00  0.00    -0.050 A 
ATOM     24  C7  O2N d          -7.367  48.060   3.199  0.00  0.00    -0.072 A 
ATOM     25  H12 O2N d          -8.652  49.498   4.205  0.00  0.00     0.087 H 
ATOM     26  H7  O2N d          -7.345  48.627   2.275  0.00  0.00     0.084 H 
BRANCH  21  27
ATOM     27  O43 O2N d          -8.842  48.246   6.569  0.00  0.00    -0.356 OA
BRANCH  27  28
ATOM     28  C30 O2N d          -9.469  49.547   6.573  0.00  0.00     0.010 C 
ATOM     29  H20 O2N d          -8.740  50.306   6.253  0.00  0.00     0.066 H 
ATOM     30  H21 O2N d          -9.819  49.781   7.589  0.00  0.00     0.066 H 
ATOM     31  H22 O2N d         -10.324  49.545   5.882  0.00  0.00     0.066 H 
ENDBRANCH  27  28
ENDBRANCH  21  27
ENDBRANCH  15  17
BRANCH  15  32
ATOM     32  C18 O2N d          -5.707  47.295   0.869  0.00  0.00    -0.031 A 
ATOM     33  C8  O2N d          -6.587  47.126  -0.193  0.00  0.00    -0.072 A 
ATOM     34  C13 O2N d          -6.510  47.990  -1.283  0.00  0.00    -0.050 A 
ATOM     35  H8  O2N d          -7.325  46.332  -0.172  0.00  0.00     0.084 H 
ATOM     36  C24 O2N d          -5.565  49.008  -1.346  0.00  0.00     0.068 A 
ATOM     37  H13 O2N d          -7.206  47.864  -2.105  0.00  0.00     0.087 H 
ATOM     38  C14 O2N d          -4.661  49.218  -0.322  0.00  0.00    -0.050 A 
ATOM     39  C9  O2N d          -4.798  48.344   0.783  0.00  0.00    -0.072 A 
ATOM     40  H14 O2N d          -3.904  49.993  -0.363  0.00  0.00     0.087 H 
ATOM     41  H9  O2N d          -4.142  48.506   1.631  0.00  0.00     0.084 H 
BRANCH  36  42
ATOM     42  O44 O2N d          -5.589  49.779  -2.508  0.00  0.00    -0.356 OA
BRANCH  42  43
ATOM     43  C31 O2N d          -5.941  51.138  -2.249  0.00  0.00     0.010 C 
ATOM     44  H23 O2N d          -5.741  51.374  -1.193  0.00  0.00     0.066 H 
ATOM     45  H24 O2N d          -7.009  51.287  -2.463  0.00  0.00     0.066 H 
ATOM     46  H25 O2N d          -5.342  51.801  -2.892  0.00  0.00     0.066 H 
ENDBRANCH  42  43
ENDBRANCH  36  42
ENDBRANCH  15  32
ENDBRANCH  12  15
ENDBRANCH   5  11
BRANCH   6  47
ATOM     47  C32 O2N d         -10.561  44.757   0.249  0.00  0.00     0.109 C 
ATOM     48  H26 O2N d         -10.369  45.411   1.113  0.00  0.00     0.083 H 
ATOM     49  H27 O2N d         -11.589  44.371   0.303  0.00  0.00     0.083 H 
BRANCH  47  50
ATOM     50  N37 O2N d         -10.441  45.597  -1.013  0.00  0.00    -0.060 N 
ATOM     51  H34 O2N d          -9.521  46.009  -0.998  0.00  0.00     0.281 HD
BRANCH  50  52
ATOM     52  C33 O2N d         -11.447  46.787  -1.162  0.00  0.00     0.109 C 
ATOM     53  H28 O2N d         -11.330  47.248  -2.154  0.00  0.00     0.083 H 
ATOM     54  H29 O2N d         -12.477  46.416  -1.049  0.00  0.00     0.083 H 
BRANCH  52  55
ATOM     55  C20 O2N d         -11.154  47.817  -0.081  0.00  0.00    -0.013 A 
ATOM     56  C5  O2N d          -9.962  48.593  -0.036  0.00  0.00    -0.071 A 
ATOM     57  C10 O2N d          -9.716  49.567   0.984  0.00  0.00    -0.047 A 
ATOM     58  H5  O2N d          -9.211  48.440  -0.803  0.00  0.00     0.084 H 
ATOM     59  C21 O2N d         -10.694  49.677   1.943  0.00  0.00     0.106 A 
ATOM     60  H10 O2N d          -8.820  50.176   0.999  0.00  0.00     0.087 H 
ATOM     61  C22 O2N d         -11.861  48.936   1.898  0.00  0.00     0.122 A 
ATOM     62  O41 O2N d         -10.689  50.511   3.019  0.00  0.00    -0.323 OA
ATOM     63  C16 O2N d         -12.138  47.987   0.912  0.00  0.00     0.085 A 
ATOM     64  O42 O2N d         -12.715  49.216   2.973  0.00  0.00    -0.322 OA
ATOM     65  C29 O2N d         -11.970  50.262   3.631  0.00  0.00     0.115 A 
ATOM     66  H18 O2N d         -12.561  51.189   3.596  0.00  0.00     0.118 H 
ATOM     67  H19 O2N d         -11.807  49.971   4.679  0.00  0.00     0.118 H 
BRANCH  63  68
ATOM     68  C28 O2N d         -13.476  47.285   0.947  0.00  0.00     0.212 C 
ATOM     69  O38 O2N d         -13.490  46.202   1.616  0.00  0.00    -0.644 OA
ATOM     70  O40 O2N d         -14.568  47.757   0.493  0.00  0.00    -0.644 OA
ENDBRANCH  63  68
ENDBRANCH  52  55
ENDBRANCH  50  52
BRANCH  50  71
ATOM     71  C34 O2N d         -10.510  44.683  -2.199  0.00  0.00     0.099 C 
ATOM     72  H30 O2N d          -9.795  45.057  -2.945  0.00  0.00     0.082 H 
ATOM     73  H31 O2N d         -10.200  43.682  -1.863  0.00  0.00     0.082 H 
BRANCH  71  74
ATOM     74  C26 O2N d         -11.842  44.537  -2.883  0.00  0.00    -0.087 C 
ATOM     75  C25 O2N d         -12.706  43.577  -2.509  0.00  0.00    -0.123 C 
ATOM     76  H15 O2N d         -13.667  43.483  -3.012  0.00  0.00     0.066 H 
ATOM     77  H16 O2N d         -12.445  42.893  -1.701  0.00  0.00     0.066 H 
ATOM     78  H17 O2N d         -12.109  45.217  -3.690  0.00  0.00     0.078 H 
ENDBRANCH  71  74
ENDBRANCH  50  71
ENDBRANCH  47  50
ENDBRANCH   6  47
TORSDOF 15
ENDMDL
MODEL 9
REMARK VINA RESULT:      -5.1      2.344      7.638
REMARK  15 active torsions:
REMARK  status: ('A' for Active; 'I' for Inactive)
REMARK    1  A    between atoms: C27_27  and  C15_15 
REMARK    2  A    between atoms: C16_16  and  C28_28 
REMARK    3  A    between atoms: C35_35  and  C17_17 
REMARK    4  A    between atoms: C35_35  and  C18_18 
REMARK    5  A    between atoms: C19_19  and  C32_32 
REMARK    6  A    between atoms: C33_33  and  C20_20 
REMARK    7  A    between atoms: C23_23  and  O43_43 
REMARK    8  A    between atoms: C24_24  and  O44_44 
REMARK    9  A    between atoms: C34_34  and  C26_26 
REMARK       I    between atoms: N36_36  and  C27_27 
REMARK   10  A    between atoms: O43_43  and  C30_30 
REMARK   11  A    between atoms: O44_44  and  C31_31 
REMARK   12  A    between atoms: C32_32  and  N37_37 
REMARK   13  A    between atoms: N37_37  and  C33_33 
REMARK   14  A    between atoms: N37_37  and  C34_34 
REMARK   15  A    between atoms: C35_35  and  N36_36 
ROOT
ATOM      1  C1  O2N d          -5.625  43.430   2.324  0.00  0.00    -0.082 A 
ATOM      2  C2  O2N d          -6.451  42.393   1.953  0.00  0.00    -0.082 A 
ATOM      3  C3  O2N d          -6.182  44.701   2.401  0.00  0.00    -0.067 A 
ATOM      4  C4  O2N d          -7.794  42.585   1.674  0.00  0.00    -0.074 A 
ATOM      5  C15 O2N d          -7.520  44.915   2.123  0.00  0.00     0.040 A 
ATOM      6  C19 O2N d          -8.342  43.851   1.755  0.00  0.00    -0.017 A 
ATOM      7  H1  O2N d          -4.578  43.262   2.548  0.00  0.00     0.083 H 
ATOM      8  H2  O2N d          -6.036  41.394   1.878  0.00  0.00     0.083 H 
ATOM      9  H3  O2N d          -5.556  45.540   2.684  0.00  0.00     0.085 H 
ATOM     10  H4  O2N d          -8.416  41.742   1.391  0.00  0.00     0.084 H 
ENDROOT
BRANCH   5  11
ATOM     11  C27 O2N d          -8.065  46.284   2.251  0.00  0.00     0.253 C 
ATOM     12  N36 O2N d          -7.208  47.293   2.690  0.00  0.00    -0.344 N 
ATOM     13  H33 O2N d          -6.269  47.055   2.938  0.00  0.00     0.163 HD
ATOM     14  O39 O2N d          -9.259  46.450   1.984  0.00  0.00    -0.268 OA
BRANCH  12  15
ATOM     15  C35 O2N d          -7.634  48.676   2.800  0.00  0.00     0.063 C 
ATOM     16  H32 O2N d          -6.863  49.233   3.353  0.00  0.00     0.088 H 
BRANCH  15  17
ATOM     17  C17 O2N d          -8.918  48.739   3.646  0.00  0.00    -0.031 A 
ATOM     18  C6  O2N d         -10.109  49.183   3.085  0.00  0.00    -0.072 A 
ATOM     19  C11 O2N d         -11.293  49.275   3.827  0.00  0.00    -0.050 A 
ATOM     20  H6  O2N d         -10.123  49.468   2.039  0.00  0.00     0.084 H 
ATOM     21  C23 O2N d         -11.244  48.845   5.178  0.00  0.00     0.068 A 
ATOM     22  H11 O2N d         -12.208  49.657   3.389  0.00  0.00     0.087 H 
ATOM     23  C12 O2N d         -10.067  48.435   5.784  0.00  0.00    -0.050 A 
ATOM     24  C7  O2N d          -8.914  48.389   4.985  0.00  0.00    -0.072 A 
ATOM     25  H12 O2N d         -10.039  48.159   6.832  0.00  0.00     0.087 H 
ATOM     26  H7  O2N d          -7.982  48.068   5.435  0.00  0.00     0.084 H 
BRANCH  21  27
ATOM     27  O43 O2N d         -12.437  48.933   5.914  0.00  0.00    -0.356 OA
BRANCH  27  28
ATOM     28  C30 O2N d         -12.769  50.152   6.614  0.00  0.00     0.010 C 
ATOM     29  H20 O2N d         -11.944  50.425   7.288  0.00  0.00     0.066 H 
ATOM     30  H21 O2N d         -13.686  49.999   7.201  0.00  0.00     0.066 H 
ATOM     31  H22 O2N d         -12.931  50.961   5.886  0.00  0.00     0.066 H 
ENDBRANCH  27  28
ENDBRANCH  21  27
ENDBRANCH  15  17
BRANCH  15  32
ATOM     32  C18 O2N d          -7.696  49.283   1.400  0.00  0.00    -0.031 A 
ATOM     33  C8  O2N d          -6.969  48.644   0.403  0.00  0.00    -0.072 A 
ATOM     34  C13 O2N d          -7.024  49.135  -0.899  0.00  0.00    -0.050 A 
ATOM     35  H8  O2N d          -6.367  47.773   0.636  0.00  0.00     0.084 H 
ATOM     36  C24 O2N d          -7.774  50.259  -1.227  0.00  0.00     0.068 A 
ATOM     37  H13 O2N d          -6.466  48.628  -1.678  0.00  0.00     0.087 H 
ATOM     38  C14 O2N d          -8.511  50.938  -0.275  0.00  0.00    -0.050 A 
ATOM     39  C9  O2N d          -8.459  50.383   1.027  0.00  0.00    -0.072 A 
ATOM     40  H14 O2N d          -9.085  51.827  -0.508  0.00  0.00     0.087 H 
ATOM     41  H9  O2N d          -9.063  50.854   1.794  0.00  0.00     0.084 H 
BRANCH  36  42
ATOM     42  O44 O2N d          -7.716  50.651  -2.564  0.00  0.00    -0.356 OA
BRANCH  42  43
ATOM     43  C31 O2N d          -8.838  51.448  -2.945  0.00  0.00     0.010 C 
ATOM     44  H23 O2N d          -9.750  51.041  -2.483  0.00  0.00     0.066 H 
ATOM     45  H24 O2N d          -8.944  51.432  -4.040  0.00  0.00     0.066 H 
ATOM     46  H25 O2N d          -8.685  52.483  -2.606  0.00  0.00     0.066 H 
ENDBRANCH  42  43
ENDBRANCH  36  42
ENDBRANCH  15  32
ENDBRANCH  12  15
ENDBRANCH   5  11
BRANCH   6  47
ATOM     47  C32 O2N d          -9.798  44.009   1.464  0.00  0.00     0.109 C 
ATOM     48  H26 O2N d         -10.216  44.715   2.198  0.00  0.00     0.083 H 
ATOM     49  H27 O2N d         -10.278  43.027   1.585  0.00  0.00     0.083 H 
BRANCH  47  50
ATOM     50  N37 O2N d         -10.132  44.526   0.073  0.00  0.00    -0.060 N 
ATOM     51  H34 O2N d          -9.651  45.406  -0.030  0.00  0.00     0.281 HD
BRANCH  50  52
ATOM     52  C33 O2N d         -11.641  44.820  -0.222  0.00  0.00     0.109 C 
ATOM     53  H28 O2N d         -11.944  44.308  -1.148  0.00  0.00     0.083 H 
ATOM     54  H29 O2N d         -12.258  44.460   0.615  0.00  0.00     0.083 H 
BRANCH  52  55
ATOM     55  C20 O2N d         -11.827  46.322  -0.384  0.00  0.00    -0.013 A 
ATOM     56  C5  O2N d         -10.807  47.195  -0.856  0.00  0.00    -0.071 A 
ATOM     57  C10 O2N d         -11.012  48.603  -1.014  0.00  0.00    -0.047 A 
ATOM     58  H5  O2N d          -9.838  46.778  -1.105  0.00  0.00     0.084 H 
ATOM     59  C21 O2N d         -12.252  49.064  -0.642  0.00  0.00     0.106 A 
ATOM     60  H10 O2N d         -10.242  49.260  -1.401  0.00  0.00     0.087 H 
ATOM     61  C22 O2N d         -13.253  48.220  -0.195  0.00  0.00     0.122 A 
ATOM     62  O41 O2N d         -12.686  50.354  -0.680  0.00  0.00    -0.323 OA
ATOM     63  C16 O2N d         -13.090  46.842  -0.041  0.00  0.00     0.085 A 
ATOM     64  O42 O2N d         -14.431  48.908   0.121  0.00  0.00    -0.322 OA
ATOM     65  C29 O2N d         -14.059  50.250  -0.255  0.00  0.00     0.115 A 
ATOM     66  H18 O2N d         -14.707  50.575  -1.081  0.00  0.00     0.118 H 
ATOM     67  H19 O2N d         -14.210  50.911   0.611  0.00  0.00     0.118 H 
BRANCH  63  68
ATOM     68  C28 O2N d         -14.282  46.024   0.403  0.00  0.00     0.212 C 
ATOM     69  O38 O2N d         -14.919  45.458  -0.542  0.00  0.00    -0.644 OA
ATOM     70  O40 O2N d         -14.587  45.764   1.612  0.00  0.00    -0.644 OA
ENDBRANCH  63  68
ENDBRANCH  52  55
ENDBRANCH  50  52
BRANCH  50  71
ATOM     71  C34 O2N d          -9.564  43.575  -0.935  0.00  0.00     0.099 C 
ATOM     72  H30 O2N d          -9.432  42.604  -0.435  0.00  0.00     0.082 H 
ATOM     73  H31 O2N d         -10.301  43.473  -1.745  0.00  0.00     0.082 H 
BRANCH  71  74
ATOM     74  C26 O2N d          -8.248  43.940  -1.565  0.00  0.00    -0.087 C 
ATOM     75  C25 O2N d          -7.721  45.166  -1.398  0.00  0.00    -0.123 C 
ATOM     76  H15 O2N d          -6.767  45.416  -1.860  0.00  0.00     0.066 H 
ATOM     77  H16 O2N d          -8.248  45.909  -0.801  0.00  0.00     0.066 H 
ATOM     78  H17 O2N d          -7.715  43.202  -2.164  0.00  0.00     0.078 H 
ENDBRANCH  71  74
ENDBRANCH  50  71
ENDBRANCH  47  50
ENDBRANCH   6  47
TORSDOF 15
ENDMDL
MODEL 10
REMARK VINA RESULT:      -4.8      2.537      7.527
REMARK  15 active torsions:
REMARK  status: ('A' for Active; 'I' for Inactive)
REMARK    1  A    between atoms: C27_27  and  C15_15 
REMARK    2  A    between atoms: C16_16  and  C28_28 
REMARK    3  A    between atoms: C35_35  and  C17_17 
REMARK    4  A    between atoms: C35_35  and  C18_18 
REMARK    5  A    between atoms: C19_19  and  C32_32 
REMARK    6  A    between atoms: C33_33  and  C20_20 
REMARK    7  A    between atoms: C23_23  and  O43_43 
REMARK    8  A    between atoms: C24_24  and  O44_44 
REMARK    9  A    between atoms: C34_34  and  C26_26 
REMARK       I    between atoms: N36_36  and  C27_27 
REMARK   10  A    between atoms: O43_43  and  C30_30 
REMARK   11  A    between atoms: O44_44  and  C31_31 
REMARK   12  A    between atoms: C32_32  and  N37_37 
REMARK   13  A    between atoms: N37_37  and  C33_33 
REMARK   14  A    between atoms: N37_37  and  C34_34 
REMARK   15  A    between atoms: C35_35  and  N36_36 
ROOT
ATOM      1  C1  O2N d          -7.486  41.646   0.610  0.00  0.00    -0.082 A 
ATOM      2  C2  O2N d          -8.698  41.366   0.019  0.00  0.00    -0.082 A 
ATOM      3  C3  O2N d          -7.282  42.938   1.080  0.00  0.00    -0.067 A 
ATOM      4  C4  O2N d          -9.696  42.320  -0.103  0.00  0.00    -0.074 A 
ATOM      5  C15 O2N d          -8.264  43.905   0.965  0.00  0.00     0.040 A 
ATOM      6  C19 O2N d          -9.487  43.602   0.369  0.00  0.00    -0.017 A 
ATOM      7  H1  O2N d          -6.719  40.887   0.705  0.00  0.00     0.083 H 
ATOM      8  H2  O2N d          -8.877  40.368  -0.363  0.00  0.00     0.083 H 
ATOM      9  H3  O2N d          -6.336  43.191   1.545  0.00  0.00     0.085 H 
ATOM     10  H4  O2N d         -10.640  42.061  -0.569  0.00  0.00     0.084 H 
ENDROOT
BRANCH   5  11
ATOM     11  C27 O2N d          -8.002  45.255   1.511  0.00  0.00     0.253 C 
ATOM     12  N36 O2N d          -7.823  45.383   2.889  0.00  0.00    -0.344 N 
ATOM     13  H33 O2N d          -7.913  44.570   3.465  0.00  0.00     0.163 HD
ATOM     14  O39 O2N d          -7.981  46.199   0.715  0.00  0.00    -0.268 OA
BRANCH  12  15
ATOM     15  C35 O2N d          -7.512  46.655   3.514  0.00  0.00     0.063 C 
ATOM     16  H32 O2N d          -7.066  46.456   4.500  0.00  0.00     0.088 H 
BRANCH  15  17
ATOM     17  C17 O2N d          -8.822  47.422   3.767  0.00  0.00    -0.031 A 
ATOM     18  C6  O2N d          -9.868  47.351   2.854  0.00  0.00    -0.072 A 
ATOM     19  C11 O2N d         -11.066  48.051   3.039  0.00  0.00    -0.050 A 
ATOM     20  H6  O2N d          -9.752  46.733   1.971  0.00  0.00     0.084 H 
ATOM     21  C23 O2N d         -11.195  48.808   4.232  0.00  0.00     0.068 A 
ATOM     22  H11 O2N d         -11.861  48.017   2.303  0.00  0.00     0.087 H 
ATOM     23  C12 O2N d         -10.161  48.935   5.146  0.00  0.00    -0.050 A 
ATOM     24  C7  O2N d          -8.980  48.224   4.885  0.00  0.00    -0.072 A 
ATOM     25  H12 O2N d         -10.261  49.560   6.026  0.00  0.00     0.087 H 
ATOM     26  H7  O2N d          -8.159  48.305   5.587  0.00  0.00     0.084 H 
BRANCH  21  27
ATOM     27  O43 O2N d         -12.403  49.502   4.414  0.00  0.00    -0.356 OA
BRANCH  27  28
ATOM     28  C30 O2N d         -12.772  49.985   5.723  0.00  0.00     0.010 C 
ATOM     29  H20 O2N d         -12.269  49.381   6.493  0.00  0.00     0.066 H 
ATOM     30  H21 O2N d         -13.861  49.906   5.850  0.00  0.00     0.066 H 
ATOM     31  H22 O2N d         -12.466  51.037   5.826  0.00  0.00     0.066 H 
ENDBRANCH  27  28
ENDBRANCH  21  27
ENDBRANCH  15  17
BRANCH  15  32
ATOM     32  C18 O2N d          -6.445  47.362   2.682  0.00  0.00    -0.031 A 
ATOM     33  C8  O2N d          -5.243  46.691   2.496  0.00  0.00    -0.072 A 
ATOM     34  C13 O2N d          -4.251  47.277   1.712  0.00  0.00    -0.050 A 
ATOM     35  H8  O2N d          -5.079  45.723   2.954  0.00  0.00     0.084 H 
ATOM     36  C24 O2N d          -4.425  48.524   1.123  0.00  0.00     0.068 A 
ATOM     37  H13 O2N d          -3.319  46.746   1.557  0.00  0.00     0.087 H 
ATOM     38  C14 O2N d          -5.597  49.240   1.279  0.00  0.00    -0.050 A 
ATOM     39  C9  O2N d          -6.593  48.592   2.050  0.00  0.00    -0.072 A 
ATOM     40  H14 O2N d          -5.742  50.222   0.845  0.00  0.00     0.087 H 
ATOM     41  H9  O2N d          -7.547  49.096   2.156  0.00  0.00     0.084 H 
BRANCH  36  42
ATOM     42  O44 O2N d          -3.340  48.997   0.386  0.00  0.00    -0.356 OA
BRANCH  42  43
ATOM     43  C31 O2N d          -3.464  48.712  -1.008  0.00  0.00     0.010 C 
ATOM     44  H23 O2N d          -4.131  49.452  -1.475  0.00  0.00     0.066 H 
ATOM     45  H24 O2N d          -3.884  47.704  -1.139  0.00  0.00     0.066 H 
ATOM     46  H25 O2N d          -2.473  48.761  -1.482  0.00  0.00     0.066 H 
ENDBRANCH  42  43
ENDBRANCH  36  42
ENDBRANCH  15  32
ENDBRANCH  12  15
ENDBRANCH   5  11
BRANCH   6  47
ATOM     47  C32 O2N d         -10.595  44.592   0.235  0.00  0.00     0.109 C 
ATOM     48  H26 O2N d         -10.242  45.554   0.636  0.00  0.00     0.083 H 
ATOM     49  H27 O2N d         -11.445  44.235   0.835  0.00  0.00     0.083 H 
BRANCH  47  50
ATOM     50  N37 O2N d         -11.090  44.828  -1.184  0.00  0.00    -0.060 N 
ATOM     51  H34 O2N d         -10.551  44.221  -1.782  0.00  0.00     0.281 HD
BRANCH  50  52
ATOM     52  C33 O2N d         -10.909  46.274  -1.759  0.00  0.00     0.109 C 
ATOM     53  H28 O2N d          -9.852  46.570  -1.687  0.00  0.00     0.083 H 
ATOM     54  H29 O2N d         -11.225  46.295  -2.812  0.00  0.00     0.083 H 
BRANCH  52  55
ATOM     55  C20 O2N d         -11.766  47.236  -0.948  0.00  0.00    -0.013 A 
ATOM     56  C5  O2N d         -13.002  46.872  -0.345  0.00  0.00    -0.071 A 
ATOM     57  C10 O2N d         -13.782  47.793   0.425  0.00  0.00    -0.047 A 
ATOM     58  H5  O2N d         -13.368  45.859  -0.475  0.00  0.00     0.084 H 
ATOM     59  C21 O2N d         -13.276  49.067   0.512  0.00  0.00     0.106 A 
ATOM     60  H10 O2N d         -14.709  47.504   0.907  0.00  0.00     0.087 H 
ATOM     61  C22 O2N d         -12.068  49.424  -0.060  0.00  0.00     0.122 A 
ATOM     62  O41 O2N d         -13.834  50.122   1.167  0.00  0.00    -0.323 OA
ATOM     63  C16 O2N d         -11.278  48.549  -0.806  0.00  0.00     0.085 A 
ATOM     64  O42 O2N d         -11.749  50.770   0.161  0.00  0.00    -0.322 OA
ATOM     65  C29 O2N d         -12.858  51.168   0.993  0.00  0.00     0.115 A 
ATOM     66  H18 O2N d         -12.470  51.453   1.982  0.00  0.00     0.118 H 
ATOM     67  H19 O2N d         -13.352  52.035   0.529  0.00  0.00     0.118 H 
BRANCH  63  68
ATOM     68  C28 O2N d          -9.951  49.051  -1.331  0.00  0.00     0.212 C 
ATOM     69  O38 O2N d          -8.981  48.940  -0.514  0.00  0.00    -0.644 OA
ATOM     70  O40 O2N d          -9.726  49.426  -2.527  0.00  0.00    -0.644 OA
ENDBRANCH  63  68
ENDBRANCH  52  55
ENDBRANCH  50  52
BRANCH  50  71
ATOM     71  C34 O2N d         -12.522  44.394  -1.266  0.00  0.00     0.099 C 
ATOM     72  H30 O2N d         -12.614  43.457  -0.698  0.00  0.00     0.082 H 
ATOM     73  H31 O2N d         -13.131  45.175  -0.788  0.00  0.00     0.082 H 
BRANCH  71  74
ATOM     74  C26 O2N d         -13.094  44.150  -2.635  0.00  0.00    -0.087 C 
ATOM     75  C25 O2N d         -14.411  44.295  -2.866  0.00  0.00    -0.123 C 
ATOM     76  H15 O2N d         -14.812  44.116  -3.863  0.00  0.00     0.066 H 
ATOM     77  H16 O2N d         -15.077  44.593  -2.057  0.00  0.00     0.066 H 
ATOM     78  H17 O2N d         -12.435  43.853  -3.449  0.00  0.00     0.078 H 
ENDBRANCH  71  74
ENDBRANCH  50  71
ENDBRANCH  47  50
ENDBRANCH   6  47
TORSDOF 15
ENDMDL
