REMARK  5 active torsions:
REMARK  status: ('A' for Active; 'I' for Inactive)
REMARK       I    between atoms: N3_3  and  C14_6 
REMARK    1  A    between atoms: C14_6  and  C15_7 
REMARK    2  A    between atoms: C15_7  and  C16_8 
REMARK    3  A    between atoms: C15_7  and  N19_11 
REMARK    4  A    between atoms: C16_8  and  C17_9 
REMARK    5  A    between atoms: C16_8  and  C26_12 
ROOT
ATOM      1  C15 A3M d          80.420  74.385  97.448  0.00  0.00     0.169 C 
ATOM      2  H9  A3M d          80.292  75.375  96.987  0.00  0.00     0.092 H 
ENDROOT
BRANCH   1   3
ATOM      3  C14 A3M d          81.800  74.363  97.953  0.00  0.00     0.384 C 
ATOM      4  N3  A3M d          82.662  75.516  98.209  0.00  0.00     0.134 N 
ATOM      5  C2  A3M d          82.854  76.381  97.032  0.00  0.00     0.117 C 
ATOM      6  C4  A3M d          84.034  75.234  98.692  0.00  0.00     0.117 C 
ATOM      7  C1  A3M d          84.189  77.213  97.348  0.00  0.00    -0.038 C 
ATOM      8  H3  A3M d          82.981  75.775  96.123  0.00  0.00     0.080 H 
ATOM      9  H4  A3M d          81.996  77.058  96.905  0.00  0.00     0.080 H 
ATOM     10  C5  A3M d          84.632  76.660  98.776  0.00  0.00    -0.038 C 
ATOM     11  H1  A3M d          83.981  78.292  97.390  0.00  0.00     0.035 H 
ATOM     12  H2  A3M d          84.964  77.018  96.592  0.00  0.00     0.035 H 
ATOM     13  H7  A3M d          84.190  77.243  99.597  0.00  0.00     0.035 H 
ATOM     14  H8  A3M d          85.726  76.641  98.888  0.00  0.00     0.035 H 
ATOM     15  H5  A3M d          84.590  74.607  97.979  0.00  0.00     0.080 H 
ATOM     16  H6  A3M d          84.020  74.746  99.677  0.00  0.00     0.080 H 
ATOM     17  O18 A3M d          82.322  73.115  98.201  0.00  0.00    -0.186 OA
ENDBRANCH   1   3
BRANCH   1  18
ATOM     18  C16 A3M d          79.296  74.230  98.432  0.00  0.00    -0.029 C 
ATOM     19  H10 A3M d          79.416  73.256  98.930  0.00  0.00     0.042 H 
BRANCH  18  20
ATOM     20  C17 A3M d          79.221  75.282  99.458  0.00  0.00    -0.071 C 
ATOM     21  H11 A3M d          78.371  75.082 100.127  0.00  0.00     0.028 H 
ATOM     22  H12 A3M d          79.083  76.259  98.972  0.00  0.00     0.028 H 
ATOM     23  H13 A3M d          80.153  75.292 100.042  0.00  0.00     0.028 H 
ENDBRANCH  18  20
BRANCH  18  24
ATOM     24  C26 A3M d          77.805  74.286  97.634  0.00  0.00    -0.071 C 
ATOM     25  H17 A3M d          77.783  73.521  96.844  0.00  0.00     0.028 H 
ATOM     26  H18 A3M d          77.666  75.281  97.185  0.00  0.00     0.028 H 
ATOM     27  H19 A3M d          76.996  74.093  98.354  0.00  0.00     0.028 H 
ENDBRANCH  18  24
ENDBRANCH   1  18
BRANCH   1  28
ATOM     28  N19 A3M d          80.215  73.353  96.379  0.00  0.00    -0.070 N 
ATOM     29  H14 A3M d          80.953  73.425  95.696  0.00  0.00     0.274 HD
ATOM     30  H15 A3M d          79.326  73.506  95.930  0.00  0.00     0.274 HD
ATOM     31  H16 A3M d          80.229  72.434  96.792  0.00  0.00     0.274 HD
ENDBRANCH   1  28
TORSDOF 5
