MODEL 1
REMARK VINA RESULT:      -5.7      0.000      0.000
REMARK  5 active torsions:
REMARK  status: ('A' for Active; 'I' for Inactive)
REMARK       I    between atoms: N3_3  and  C14_6 
REMARK    1  A    between atoms: C14_6  and  C15_7 
REMARK    2  A    between atoms: C15_7  and  C16_8 
REMARK    3  A    between atoms: C15_7  and  N19_11 
REMARK    4  A    between atoms: C16_8  and  C17_9 
REMARK    5  A    between atoms: C16_8  and  C26_12 
ROOT
ATOM      1  C15 A3M d          82.630  75.068  98.656  0.00  0.00     0.169 C 
ATOM      2  H9  A3M d          82.420  75.341  99.700  0.00  0.00     0.092 H 
ENDROOT
BRANCH   1   3
ATOM      3  C14 A3M d          81.495  74.237  98.232  0.00  0.00     0.384 C 
ATOM      4  N3  A3M d          80.154  74.697  97.874  0.00  0.00     0.134 N 
ATOM      5  C2  A3M d          79.494  75.475  98.937  0.00  0.00     0.117 C 
ATOM      6  C4  A3M d          79.164  73.658  97.504  0.00  0.00     0.117 C 
ATOM      7  C1  A3M d          77.930  75.405  98.586  0.00  0.00    -0.038 C 
ATOM      8  H3  A3M d          79.691  75.029  99.922  0.00  0.00     0.080 H 
ATOM      9  H4  A3M d          79.847  76.517  98.929  0.00  0.00     0.080 H 
ATOM     10  C5  A3M d          77.893  74.510  97.267  0.00  0.00    -0.038 C 
ATOM     11  H1  A3M d          77.524  76.409  98.393  0.00  0.00     0.035 H 
ATOM     12  H2  A3M d          77.363  74.931  99.400  0.00  0.00     0.035 H 
ATOM     13  H7  A3M d          77.972  75.120  96.355  0.00  0.00     0.035 H 
ATOM     14  H8  A3M d          76.986  73.890  97.216  0.00  0.00     0.035 H 
ATOM     15  H5  A3M d          79.016  72.936  98.321  0.00  0.00     0.080 H 
ATOM     16  H6  A3M d          79.465  73.123  96.592  0.00  0.00     0.080 H 
ATOM     17  O18 A3M d          81.736  72.884  98.176  0.00  0.00    -0.186 OA
ENDBRANCH   1   3
BRANCH   1  18
ATOM     18  C16 A3M d          82.886  76.356  97.927  0.00  0.00    -0.029 C 
ATOM     19  H10 A3M d          82.398  76.289  96.943  0.00  0.00     0.042 H 
BRANCH  18  20
ATOM     20  C17 A3M d          82.404  77.564  98.615  0.00  0.00    -0.071 C 
ATOM     21  H11 A3M d          81.334  77.704  98.404  0.00  0.00     0.028 H 
ATOM     22  H12 A3M d          82.966  78.439  98.258  0.00  0.00     0.028 H 
ATOM     23  H13 A3M d          82.552  77.452  99.700  0.00  0.00     0.028 H 
ENDBRANCH  18  20
BRANCH  18  24
ATOM     24  C26 A3M d          84.549  76.597  97.727  0.00  0.00    -0.071 C 
ATOM     25  H17 A3M d          85.096  76.043  98.505  0.00  0.00     0.028 H 
ATOM     26  H18 A3M d          84.777  77.670  97.812  0.00  0.00     0.028 H 
ATOM     27  H19 A3M d          84.856  76.235  96.735  0.00  0.00     0.028 H 
ENDBRANCH  18  24
ENDBRANCH   1  18
BRANCH   1  28
ATOM     28  N19 A3M d          83.912  74.288  98.637  0.00  0.00    -0.070 N 
ATOM     29  H14 A3M d          84.600  74.758  99.204  0.00  0.00     0.274 HD
ATOM     30  H15 A3M d          84.249  74.219  97.689  0.00  0.00     0.274 HD
ATOM     31  H16 A3M d          83.749  73.364  99.004  0.00  0.00     0.274 HD
ENDBRANCH   1  28
TORSDOF 5
ENDMDL
MODEL 2
REMARK VINA RESULT:      -5.5      1.266      4.657
REMARK  5 active torsions:
REMARK  status: ('A' for Active; 'I' for Inactive)
REMARK       I    between atoms: N3_3  and  C14_6 
REMARK    1  A    between atoms: C14_6  and  C15_7 
REMARK    2  A    between atoms: C15_7  and  C16_8 
REMARK    3  A    between atoms: C15_7  and  N19_11 
REMARK    4  A    between atoms: C16_8  and  C17_9 
REMARK    5  A    between atoms: C16_8  and  C26_12 
ROOT
ATOM      1  C15 A3M d          80.184  74.643  97.853  0.00  0.00     0.169 C 
ATOM      2  H9  A3M d          80.040  75.583  97.301  0.00  0.00     0.092 H 
ENDROOT
BRANCH   1   3
ATOM      3  C14 A3M d          81.628  74.557  98.111  0.00  0.00     0.384 C 
ATOM      4  N3  A3M d          82.564  75.671  98.256  0.00  0.00     0.134 N 
ATOM      5  C2  A3M d          82.585  76.578  97.095  0.00  0.00     0.117 C 
ATOM      6  C4  A3M d          83.987  75.326  98.484  0.00  0.00     0.117 C 
ATOM      7  C1  A3M d          83.985  77.354  97.205  0.00  0.00    -0.038 C 
ATOM      8  H3  A3M d          82.531  76.007  96.156  0.00  0.00     0.080 H 
ATOM      9  H4  A3M d          81.744  77.286  97.142  0.00  0.00     0.080 H 
ATOM     10  C5  A3M d          84.644  76.728  98.515  0.00  0.00    -0.038 C 
ATOM     11  H1  A3M d          83.828  78.436  97.321  0.00  0.00     0.035 H 
ATOM     12  H2  A3M d          84.611  77.166  96.321  0.00  0.00     0.035 H 
ATOM     13  H7  A3M d          84.371  77.290  99.420  0.00  0.00     0.035 H 
ATOM     14  H8  A3M d          85.739  76.671  98.436  0.00  0.00     0.035 H 
ATOM     15  H5  A3M d          84.389  74.713  97.664  0.00  0.00     0.080 H 
ATOM     16  H6  A3M d          84.123  74.798  99.439  0.00  0.00     0.080 H 
ATOM     17  O18 A3M d          82.137  73.284  98.221  0.00  0.00    -0.186 OA
ENDBRANCH   1   3
BRANCH   1  18
ATOM     18  C16 A3M d          79.249  74.697  99.027  0.00  0.00    -0.029 C 
ATOM     19  H10 A3M d          79.797  75.138  99.873  0.00  0.00     0.042 H 
BRANCH  18  20
ATOM     20  C17 A3M d          78.017  75.469  98.804  0.00  0.00    -0.071 C 
ATOM     21  H11 A3M d          77.726  75.974  99.737  0.00  0.00     0.028 H 
ATOM     22  H12 A3M d          77.211  74.791  98.487  0.00  0.00     0.028 H 
ATOM     23  H13 A3M d          78.192  76.221  98.020  0.00  0.00     0.028 H 
ENDBRANCH  18  20
BRANCH  18  24
ATOM     24  C26 A3M d          78.725  73.140  99.432  0.00  0.00    -0.071 C 
ATOM     25  H17 A3M d          78.103  72.739  98.619  0.00  0.00     0.028 H 
ATOM     26  H18 A3M d          78.134  73.181 100.360  0.00  0.00     0.028 H 
ATOM     27  H19 A3M d          79.598  72.487  99.583  0.00  0.00     0.028 H 
ENDBRANCH  18  24
ENDBRANCH   1  18
BRANCH   1  28
ATOM     28  N19 A3M d          79.721  73.520  96.972  0.00  0.00    -0.070 N 
ATOM     29  H14 A3M d          79.097  72.922  97.491  0.00  0.00     0.274 HD
ATOM     30  H15 A3M d          80.517  72.987  96.661  0.00  0.00     0.274 HD
ATOM     31  H16 A3M d          79.236  73.898  96.173  0.00  0.00     0.274 HD
ENDBRANCH   1  28
TORSDOF 5
ENDMDL
MODEL 3
REMARK VINA RESULT:      -5.3      1.907      5.014
REMARK  5 active torsions:
REMARK  status: ('A' for Active; 'I' for Inactive)
REMARK       I    between atoms: N3_3  and  C14_6 
REMARK    1  A    between atoms: C14_6  and  C15_7 
REMARK    2  A    between atoms: C15_7  and  C16_8 
REMARK    3  A    between atoms: C15_7  and  N19_11 
REMARK    4  A    between atoms: C16_8  and  C17_9 
REMARK    5  A    between atoms: C16_8  and  C26_12 
ROOT
ATOM      1  C15 A3M d          80.194  75.005  98.700  0.00  0.00     0.169 C 
ATOM      2  H9  A3M d          80.818  74.183  98.321  0.00  0.00     0.092 H 
ENDROOT
BRANCH   1   3
ATOM      3  C14 A3M d          81.015  76.216  98.564  0.00  0.00     0.384 C 
ATOM      4  N3  A3M d          82.316  76.328  97.906  0.00  0.00     0.134 N 
ATOM      5  C2  A3M d          83.333  75.412  98.452  0.00  0.00     0.117 C 
ATOM      6  C4  A3M d          82.965  77.660  97.926  0.00  0.00     0.117 C 
ATOM      7  C1  A3M d          84.738  76.048  98.008  0.00  0.00    -0.038 C 
ATOM      8  H3  A3M d          83.260  75.361  99.548  0.00  0.00     0.080 H 
ATOM      9  H4  A3M d          83.212  74.404  98.028  0.00  0.00     0.080 H 
ATOM     10  C5  A3M d          84.307  77.361  97.213  0.00  0.00    -0.038 C 
ATOM     11  H1  A3M d          85.295  75.358  97.357  0.00  0.00     0.035 H 
ATOM     12  H2  A3M d          85.351  76.301  98.885  0.00  0.00     0.035 H 
ATOM     13  H7  A3M d          84.167  77.164  96.140  0.00  0.00     0.035 H 
ATOM     14  H8  A3M d          85.033  78.177  97.344  0.00  0.00     0.035 H 
ATOM     15  H5  A3M d          83.128  78.012  98.956  0.00  0.00     0.080 H 
ATOM     16  H6  A3M d          82.373  78.403  97.373  0.00  0.00     0.080 H 
ATOM     17  O18 A3M d          80.490  77.356  99.127  0.00  0.00    -0.186 OA
ENDBRANCH   1   3
BRANCH   1  18
ATOM     18  C16 A3M d          78.898  74.932  97.945  0.00  0.00    -0.029 C 
ATOM     19  H10 A3M d          78.976  75.601  97.075  0.00  0.00     0.042 H 
BRANCH  18  20
ATOM     20  C17 A3M d          78.528  73.586  97.477  0.00  0.00    -0.071 C 
ATOM     21  H11 A3M d          79.409  72.929  97.517  0.00  0.00     0.028 H 
ATOM     22  H12 A3M d          78.161  73.646  96.442  0.00  0.00     0.028 H 
ATOM     23  H13 A3M d          77.736  73.179  98.123  0.00  0.00     0.028 H 
ENDBRANCH  18  20
BRANCH  18  24
ATOM     24  C26 A3M d          77.614  75.423  98.932  0.00  0.00    -0.071 C 
ATOM     25  H17 A3M d          77.571  76.522  98.957  0.00  0.00     0.028 H 
ATOM     26  H18 A3M d          77.768  75.039  99.952  0.00  0.00     0.028 H 
ATOM     27  H19 A3M d          76.670  75.028  98.530  0.00  0.00     0.028 H 
ENDBRANCH  18  24
ENDBRANCH   1  18
BRANCH   1  28
ATOM     28  N19 A3M d          79.882  74.716 100.138  0.00  0.00    -0.070 N 
ATOM     29  H14 A3M d          80.741  74.557 100.643  0.00  0.00     0.274 HD
ATOM     30  H15 A3M d          79.301  73.896 100.198  0.00  0.00     0.274 HD
ATOM     31  H16 A3M d          79.398  75.502 100.541  0.00  0.00     0.274 HD
ENDBRANCH   1  28
TORSDOF 5
ENDMDL
MODEL 4
REMARK VINA RESULT:      -5.1      1.799      2.093
REMARK  5 active torsions:
REMARK  status: ('A' for Active; 'I' for Inactive)
REMARK       I    between atoms: N3_3  and  C14_6 
REMARK    1  A    between atoms: C14_6  and  C15_7 
REMARK    2  A    between atoms: C15_7  and  C16_8 
REMARK    3  A    between atoms: C15_7  and  N19_11 
REMARK    4  A    between atoms: C16_8  and  C17_9 
REMARK    5  A    between atoms: C16_8  and  C26_12 
ROOT
ATOM      1  C15 A3M d          82.539  76.115  99.049  0.00  0.00     0.169 C 
ATOM      2  H9  A3M d          82.877  76.819  99.823  0.00  0.00     0.092 H 
ENDROOT
BRANCH   1   3
ATOM      3  C14 A3M d          81.080  76.275  98.984  0.00  0.00     0.384 C 
ATOM      4  N3  A3M d          80.089  75.226  98.749  0.00  0.00     0.134 N 
ATOM      5  C2  A3M d          80.302  74.485  97.493  0.00  0.00     0.117 C 
ATOM      6  C4  A3M d          78.668  75.643  98.698  0.00  0.00     0.117 C 
ATOM      7  C1  A3M d          78.884  73.809  97.169  0.00  0.00    -0.038 C 
ATOM      8  H3  A3M d          80.599  75.170  96.685  0.00  0.00     0.080 H 
ATOM      9  H4  A3M d          81.077  73.715  97.625  0.00  0.00     0.080 H 
ATOM     10  C5  A3M d          77.963  74.304  98.373  0.00  0.00    -0.038 C 
ATOM     11  H1  A3M d          78.962  72.712  97.158  0.00  0.00     0.035 H 
ATOM     12  H2  A3M d          78.491  74.159  96.203  0.00  0.00     0.035 H 
ATOM     13  H7  A3M d          77.991  73.608  99.224  0.00  0.00     0.035 H 
ATOM     14  H8  A3M d          76.920  74.454  98.058  0.00  0.00     0.035 H 
ATOM     15  H5  A3M d          78.497  76.389  97.907  0.00  0.00     0.080 H 
ATOM     16  H6  A3M d          78.335  76.049  99.664  0.00  0.00     0.080 H 
ATOM     17  O18 A3M d          80.614  77.557  99.162  0.00  0.00    -0.186 OA
ENDBRANCH   1   3
BRANCH   1  18
ATOM     18  C16 A3M d          83.347  76.418  97.820  0.00  0.00    -0.029 C 
ATOM     19  H10 A3M d          82.920  75.842  96.986  0.00  0.00     0.042 H 
BRANCH  18  20
ATOM     20  C17 A3M d          83.391  77.840  97.443  0.00  0.00    -0.071 C 
ATOM     21  H11 A3M d          84.387  78.084  97.046  0.00  0.00     0.028 H 
ATOM     22  H12 A3M d          83.187  78.461  98.328  0.00  0.00     0.028 H 
ATOM     23  H13 A3M d          82.630  78.039  96.673  0.00  0.00     0.028 H 
ENDBRANCH  18  20
BRANCH  18  24
ATOM     24  C26 A3M d          84.963  75.976  98.056  0.00  0.00    -0.071 C 
ATOM     25  H17 A3M d          85.609  76.853  97.906  0.00  0.00     0.028 H 
ATOM     26  H18 A3M d          85.237  75.190  97.335  0.00  0.00     0.028 H 
ATOM     27  H19 A3M d          85.094  75.595  99.079  0.00  0.00     0.028 H 
ENDBRANCH  18  24
ENDBRANCH   1  18
BRANCH   1  28
ATOM     28  N19 A3M d          82.916  74.732  99.494  0.00  0.00    -0.070 N 
ATOM     29  H14 A3M d          83.340  74.236  98.726  0.00  0.00     0.274 HD
ATOM     30  H15 A3M d          82.091  74.240  99.797  0.00  0.00     0.274 HD
ATOM     31  H16 A3M d          83.571  74.792 100.257  0.00  0.00     0.274 HD
ENDBRANCH   1  28
TORSDOF 5
ENDMDL
MODEL 5
REMARK VINA RESULT:      -5.1      1.468      1.480
REMARK  5 active torsions:
REMARK  status: ('A' for Active; 'I' for Inactive)
REMARK       I    between atoms: N3_3  and  C14_6 
REMARK    1  A    between atoms: C14_6  and  C15_7 
REMARK    2  A    between atoms: C15_7  and  C16_8 
REMARK    3  A    between atoms: C15_7  and  N19_11 
REMARK    4  A    between atoms: C16_8  and  C17_9 
REMARK    5  A    between atoms: C16_8  and  C26_12 
ROOT
ATOM      1  C15 A3M d          81.638  76.289  98.789  0.00  0.00     0.169 C 
ATOM      2  H9  A3M d          80.934  77.086  98.508  0.00  0.00     0.092 H 
ENDROOT
BRANCH   1   3
ATOM      3  C14 A3M d          80.838  75.058  98.840  0.00  0.00     0.384 C 
ATOM      4  N3  A3M d          79.502  74.853  98.283  0.00  0.00     0.134 N 
ATOM      5  C2  A3M d          78.500  75.807  98.789  0.00  0.00     0.117 C 
ATOM      6  C4  A3M d          78.885  73.522  98.490  0.00  0.00     0.117 C 
ATOM      7  C1  A3M d          77.085  75.105  98.509  0.00  0.00    -0.038 C 
ATOM      8  H3  A3M d          78.640  75.980  99.866  0.00  0.00     0.080 H 
ATOM      9  H4  A3M d          78.571  76.765  98.252  0.00  0.00     0.080 H 
ATOM     10  C5  A3M d          77.495  73.719  97.836  0.00  0.00    -0.038 C 
ATOM     11  H1  A3M d          76.473  75.709  97.824  0.00  0.00     0.035 H 
ATOM     12  H2  A3M d          76.533  74.940  99.446  0.00  0.00     0.035 H 
ATOM     13  H7  A3M d          77.564  73.798  96.741  0.00  0.00     0.035 H 
ATOM     14  H8  A3M d          76.798  72.911  98.102  0.00  0.00     0.035 H 
ATOM     15  H5  A3M d          78.795  73.282  99.560  0.00  0.00     0.080 H 
ATOM     16  H6  A3M d          79.458  72.732  97.984  0.00  0.00     0.080 H 
ATOM     17  O18 A3M d          81.423  73.996  99.489  0.00  0.00    -0.186 OA
ENDBRANCH   1   3
BRANCH   1  18
ATOM     18  C16 A3M d          82.773  76.365  97.809  0.00  0.00    -0.029 C 
ATOM     19  H10 A3M d          82.418  75.957  96.850  0.00  0.00     0.042 H 
BRANCH  18  20
ATOM     20  C17 A3M d          83.307  77.717  97.581  0.00  0.00    -0.071 C 
ATOM     21  H11 A3M d          83.402  78.241  98.544  0.00  0.00     0.028 H 
ATOM     22  H12 A3M d          82.623  78.276  96.926  0.00  0.00     0.028 H 
ATOM     23  H13 A3M d          84.295  77.646  97.103  0.00  0.00     0.028 H 
ENDBRANCH  18  20
BRANCH  18  24
ATOM     24  C26 A3M d          84.090  75.459  98.365  0.00  0.00    -0.071 C 
ATOM     25  H17 A3M d          84.961  75.643  97.718  0.00  0.00     0.028 H 
ATOM     26  H18 A3M d          83.836  74.389  98.342  0.00  0.00     0.028 H 
ATOM     27  H19 A3M d          84.331  75.757  99.396  0.00  0.00     0.028 H 
ENDBRANCH  18  24
ENDBRANCH   1  18
BRANCH   1  28
ATOM     28  N19 A3M d          82.198  76.631 100.138  0.00  0.00    -0.070 N 
ATOM     29  H14 A3M d          81.533  76.378 100.852  0.00  0.00     0.274 HD
ATOM     30  H15 A3M d          82.382  77.620 100.186  0.00  0.00     0.274 HD
ATOM     31  H16 A3M d          83.056  76.122 100.285  0.00  0.00     0.274 HD
ENDBRANCH   1  28
TORSDOF 5
ENDMDL
MODEL 6
REMARK VINA RESULT:      -4.8      1.349      4.582
REMARK  5 active torsions:
REMARK  status: ('A' for Active; 'I' for Inactive)
REMARK       I    between atoms: N3_3  and  C14_6 
REMARK    1  A    between atoms: C14_6  and  C15_7 
REMARK    2  A    between atoms: C15_7  and  C16_8 
REMARK    3  A    between atoms: C15_7  and  N19_11 
REMARK    4  A    between atoms: C16_8  and  C17_9 
REMARK    5  A    between atoms: C16_8  and  C26_12 
ROOT
ATOM      1  C15 A3M d          80.028  74.060  99.468  0.00  0.00     0.169 C 
ATOM      2  H9  A3M d          79.891  73.299 100.250  0.00  0.00     0.092 H 
ENDROOT
BRANCH   1   3
ATOM      3  C14 A3M d          81.460  74.032  99.139  0.00  0.00     0.384 C 
ATOM      4  N3  A3M d          82.320  75.180  98.857  0.00  0.00     0.134 N 
ATOM      5  C2  A3M d          81.838  76.020  97.747  0.00  0.00     0.117 C 
ATOM      6  C4  A3M d          83.734  74.892  98.519  0.00  0.00     0.117 C 
ATOM      7  C1  A3M d          83.128  76.843  97.264  0.00  0.00    -0.038 C 
ATOM      8  H3  A3M d          81.449  75.395  96.930  0.00  0.00     0.080 H 
ATOM      9  H4  A3M d          81.049  76.704  98.094  0.00  0.00     0.080 H 
ATOM     10  C5  A3M d          84.280  76.312  98.231  0.00  0.00    -0.038 C 
ATOM     11  H1  A3M d          82.976  77.925  97.389  0.00  0.00     0.035 H 
ATOM     12  H2  A3M d          83.365  76.624  96.213  0.00  0.00     0.035 H 
ATOM     13  H7  A3M d          84.357  76.916  99.147  0.00  0.00     0.035 H 
ATOM     14  H8  A3M d          85.257  76.283  97.729  0.00  0.00     0.035 H 
ATOM     15  H5  A3M d          83.811  74.245  97.632  0.00  0.00     0.080 H 
ATOM     16  H6  A3M d          84.260  74.423  99.363  0.00  0.00     0.080 H 
ATOM     17  O18 A3M d          82.033  72.784  99.089  0.00  0.00    -0.186 OA
ENDBRANCH   1   3
BRANCH   1  18
ATOM     18  C16 A3M d          79.038  73.735  98.386  0.00  0.00    -0.029 C 
ATOM     19  H10 A3M d          79.602  73.387  97.507  0.00  0.00     0.042 H 
BRANCH  18  20
ATOM     20  C17 A3M d          78.041  72.714  98.745  0.00  0.00    -0.071 C 
ATOM     21  H11 A3M d          77.117  73.206  99.083  0.00  0.00     0.028 H 
ATOM     22  H12 A3M d          78.437  72.083  99.553  0.00  0.00     0.028 H 
ATOM     23  H13 A3M d          77.823  72.089  97.866  0.00  0.00     0.028 H 
ENDBRANCH  18  20
BRANCH  18  24
ATOM     24  C26 A3M d          78.137  75.108  97.982  0.00  0.00    -0.071 C 
ATOM     25  H17 A3M d          78.004  75.152  96.891  0.00  0.00     0.028 H 
ATOM     26  H18 A3M d          78.668  76.010  98.323  0.00  0.00     0.028 H 
ATOM     27  H19 A3M d          77.152  75.058  98.470  0.00  0.00     0.028 H 
ENDBRANCH  18  24
ENDBRANCH   1  18
BRANCH   1  28
ATOM     28  N19 A3M d          79.628  75.386 100.046  0.00  0.00    -0.070 N 
ATOM     29  H14 A3M d          79.803  76.114  99.371  0.00  0.00     0.274 HD
ATOM     30  H15 A3M d          80.165  75.565 100.879  0.00  0.00     0.274 HD
ATOM     31  H16 A3M d          78.647  75.370 100.276  0.00  0.00     0.274 HD
ENDBRANCH   1  28
TORSDOF 5
ENDMDL
MODEL 7
REMARK VINA RESULT:      -4.2      1.878      2.654
REMARK  5 active torsions:
REMARK  status: ('A' for Active; 'I' for Inactive)
REMARK       I    between atoms: N3_3  and  C14_6 
REMARK    1  A    between atoms: C14_6  and  C15_7 
REMARK    2  A    between atoms: C15_7  and  C16_8 
REMARK    3  A    between atoms: C15_7  and  N19_11 
REMARK    4  A    between atoms: C16_8  and  C17_9 
REMARK    5  A    between atoms: C16_8  and  C26_12 
ROOT
ATOM      1  C15 A3M d          81.316  74.658  98.230  0.00  0.00     0.169 C 
ATOM      2  H9  A3M d          81.483  73.611  98.519  0.00  0.00     0.092 H 
ENDROOT
BRANCH   1   3
ATOM      3  C14 A3M d          80.053  75.046  98.874  0.00  0.00     0.384 C 
ATOM      4  N3  A3M d          78.970  74.158  99.295  0.00  0.00     0.134 N 
ATOM      5  C2  A3M d          78.434  73.326  98.204  0.00  0.00     0.117 C 
ATOM      6  C4  A3M d          77.776  74.795  99.899  0.00  0.00     0.117 C 
ATOM      7  C1  A3M d          76.982  72.870  98.712  0.00  0.00    -0.038 C 
ATOM      8  H3  A3M d          78.354  73.909  97.275  0.00  0.00     0.080 H 
ATOM      9  H4  A3M d          79.078  72.450  98.033  0.00  0.00     0.080 H 
ATOM     10  C5  A3M d          76.860  73.570 100.139  0.00  0.00    -0.038 C 
ATOM     11  H1  A3M d          76.922  71.775  98.803  0.00  0.00     0.035 H 
ATOM     12  H2  A3M d          76.195  73.225  98.030  0.00  0.00     0.035 H 
ATOM     13  H7  A3M d          77.239  72.926 100.946  0.00  0.00     0.035 H 
ATOM     14  H8  A3M d          75.825  73.868 100.363  0.00  0.00     0.035 H 
ATOM     15  H5  A3M d          77.312  75.515  99.208  0.00  0.00     0.080 H 
ATOM     16  H6  A3M d          78.026  75.301 100.843  0.00  0.00     0.080 H 
ATOM     17  O18 A3M d          79.887  76.394  99.093  0.00  0.00    -0.186 OA
ENDBRANCH   1   3
BRANCH   1  18
ATOM     18  C16 A3M d          82.566  75.402  98.603  0.00  0.00    -0.029 C 
ATOM     19  H10 A3M d          82.407  75.855  99.593  0.00  0.00     0.042 H 
BRANCH  18  20
ATOM     20  C17 A3M d          83.786  74.581  98.647  0.00  0.00    -0.071 C 
ATOM     21  H11 A3M d          84.121  74.476  99.689  0.00  0.00     0.028 H 
ATOM     22  H12 A3M d          84.576  75.066  98.055  0.00  0.00     0.028 H 
ATOM     23  H13 A3M d          83.574  73.586  98.228  0.00  0.00     0.028 H 
ENDBRANCH  18  20
BRANCH  18  24
ATOM     24  C26 A3M d          82.891  76.612  97.465  0.00  0.00    -0.071 C 
ATOM     25  H17 A3M d          83.161  76.149  96.504  0.00  0.00     0.028 H 
ATOM     26  H18 A3M d          83.726  77.235  97.819  0.00  0.00     0.028 H 
ATOM     27  H19 A3M d          81.997  77.239  97.331  0.00  0.00     0.028 H 
ENDBRANCH  18  24
ENDBRANCH   1  18
BRANCH   1  28
ATOM     28  N19 A3M d          81.202  74.708  96.736  0.00  0.00    -0.070 N 
ATOM     29  H14 A3M d          81.256  75.666  96.426  0.00  0.00     0.274 HD
ATOM     30  H15 A3M d          80.320  74.312  96.452  0.00  0.00     0.274 HD
ATOM     31  H16 A3M d          81.955  74.179  96.324  0.00  0.00     0.274 HD
ENDBRANCH   1  28
TORSDOF 5
ENDMDL
MODEL 8
REMARK VINA RESULT:      -3.8      2.215      5.126
REMARK  5 active torsions:
REMARK  status: ('A' for Active; 'I' for Inactive)
REMARK       I    between atoms: N3_3  and  C14_6 
REMARK    1  A    between atoms: C14_6  and  C15_7 
REMARK    2  A    between atoms: C15_7  and  C16_8 
REMARK    3  A    between atoms: C15_7  and  N19_11 
REMARK    4  A    between atoms: C16_8  and  C17_9 
REMARK    5  A    between atoms: C16_8  and  C26_12 
ROOT
ATOM      1  C15 A3M d          77.828  74.824  99.374  0.00  0.00     0.169 C 
ATOM      2  H9  A3M d          78.112  74.020 100.067  0.00  0.00     0.092 H 
ENDROOT
BRANCH   1   3
ATOM      3  C14 A3M d          79.078  75.530  99.058  0.00  0.00     0.384 C 
ATOM      4  N3  A3M d          80.379  74.929  98.768  0.00  0.00     0.134 N 
ATOM      5  C2  A3M d          80.870  74.042  99.837  0.00  0.00     0.117 C 
ATOM      6  C4  A3M d          81.504  75.857  98.507  0.00  0.00     0.117 C 
ATOM      7  C1  A3M d          82.453  73.941  99.591  0.00  0.00    -0.038 C 
ATOM      8  H3  A3M d          80.659  74.475 100.826  0.00  0.00     0.080 H 
ATOM      9  H4  A3M d          80.402  73.050  99.763  0.00  0.00     0.080 H 
ATOM     10  C5  A3M d          82.682  74.870  98.316  0.00  0.00    -0.038 C 
ATOM     11  H1  A3M d          82.754  72.904  99.382  0.00  0.00     0.035 H 
ATOM     12  H2  A3M d          83.012  74.317 100.460  0.00  0.00     0.035 H 
ATOM     13  H7  A3M d          82.597  74.306  97.376  0.00  0.00     0.035 H 
ATOM     14  H8  A3M d          83.656  75.381  98.350  0.00  0.00     0.035 H 
ATOM     15  H5  A3M d          81.677  76.528  99.361  0.00  0.00     0.080 H 
ATOM     16  H6  A3M d          81.330  76.454  97.600  0.00  0.00     0.080 H 
ATOM     17  O18 A3M d          78.998  76.903  99.044  0.00  0.00    -0.186 OA
ENDBRANCH   1   3
BRANCH   1  18
ATOM     18  C16 A3M d          77.075  74.167  98.252  0.00  0.00    -0.029 C 
ATOM     19  H10 A3M d          76.005  74.191  98.506  0.00  0.00     0.042 H 
BRANCH  18  20
ATOM     20  C17 A3M d          77.265  74.788  96.932  0.00  0.00    -0.071 C 
ATOM     21  H11 A3M d          77.612  74.029  96.216  0.00  0.00     0.028 H 
ATOM     22  H12 A3M d          78.014  75.590  97.007  0.00  0.00     0.028 H 
ATOM     23  H13 A3M d          76.310  75.210  96.585  0.00  0.00     0.028 H 
ENDBRANCH  18  20
BRANCH  18  24
ATOM     24  C26 A3M d          77.584  72.565  98.063  0.00  0.00    -0.071 C 
ATOM     25  H17 A3M d          76.719  71.892  98.156  0.00  0.00     0.028 H 
ATOM     26  H18 A3M d          78.325  72.320  98.839  0.00  0.00     0.028 H 
ATOM     27  H19 A3M d          78.041  72.440  97.070  0.00  0.00     0.028 H 
ENDBRANCH  18  24
ENDBRANCH   1  18
BRANCH   1  28
ATOM     28  N19 A3M d          76.861  75.722 100.087  0.00  0.00    -0.070 N 
ATOM     29  H14 A3M d          76.644  76.514  99.502  0.00  0.00     0.274 HD
ATOM     30  H15 A3M d          77.273  76.044 100.948  0.00  0.00     0.274 HD
ATOM     31  H16 A3M d          76.016  75.213 100.288  0.00  0.00     0.274 HD
ENDBRANCH   1  28
TORSDOF 5
ENDMDL
MODEL 9
REMARK VINA RESULT:      -2.9      1.485      4.657
REMARK  5 active torsions:
REMARK  status: ('A' for Active; 'I' for Inactive)
REMARK       I    between atoms: N3_3  and  C14_6 
REMARK    1  A    between atoms: C14_6  and  C15_7 
REMARK    2  A    between atoms: C15_7  and  C16_8 
REMARK    3  A    between atoms: C15_7  and  N19_11 
REMARK    4  A    between atoms: C16_8  and  C17_9 
REMARK    5  A    between atoms: C16_8  and  C26_12 
ROOT
ATOM      1  C15 A3M d          81.200  75.210  99.280  0.00  0.00     0.169 C 
ATOM      2  H9  A3M d          81.039  74.733 100.258  0.00  0.00     0.092 H 
ENDROOT
BRANCH   1   3
ATOM      3  C14 A3M d          82.619  74.992  98.967  0.00  0.00     0.384 C 
ATOM      4  N3  A3M d          83.624  76.015  98.683  0.00  0.00     0.134 N 
ATOM      5  C2  A3M d          83.266  76.897  97.559  0.00  0.00     0.117 C 
ATOM      6  C4  A3M d          84.992  75.541  98.363  0.00  0.00     0.117 C 
ATOM      7  C1  A3M d          84.657  77.539  97.082  0.00  0.00    -0.038 C 
ATOM      8  H3  A3M d          82.807  76.319  96.744  0.00  0.00     0.080 H 
ATOM      9  H4  A3M d          82.570  77.682  97.889  0.00  0.00     0.080 H 
ATOM     10  C5  A3M d          85.720  76.875  98.067  0.00  0.00    -0.038 C 
ATOM     11  H1  A3M d          84.645  78.633  97.193  0.00  0.00     0.035 H 
ATOM     12  H2  A3M d          84.873  77.280  96.035  0.00  0.00     0.035 H 
ATOM     13  H7  A3M d          85.866  77.475  98.977  0.00  0.00     0.035 H 
ATOM     14  H8  A3M d          86.690  76.713  97.575  0.00  0.00     0.035 H 
ATOM     15  H5  A3M d          84.993  74.879  97.485  0.00  0.00     0.080 H 
ATOM     16  H6  A3M d          85.444  75.018  99.218  0.00  0.00     0.080 H 
ATOM     17  O18 A3M d          83.026  73.679  98.937  0.00  0.00    -0.186 OA
ENDBRANCH   1   3
BRANCH   1  18
ATOM     18  C16 A3M d          80.166  74.633  98.355  0.00  0.00    -0.029 C 
ATOM     19  H10 A3M d          79.915  73.625  98.717  0.00  0.00     0.042 H 
BRANCH  18  20
ATOM     20  C17 A3M d          78.928  75.420  98.242  0.00  0.00    -0.071 C 
ATOM     21  H11 A3M d          78.135  74.942  98.835  0.00  0.00     0.028 H 
ATOM     22  H12 A3M d          78.619  75.468  97.188  0.00  0.00     0.028 H 
ATOM     23  H13 A3M d          79.104  76.438  98.619  0.00  0.00     0.028 H 
ENDBRANCH  18  20
BRANCH  18  24
ATOM     24  C26 A3M d          80.775  74.542  96.779  0.00  0.00    -0.071 C 
ATOM     25  H17 A3M d          80.944  73.488  96.512  0.00  0.00     0.028 H 
ATOM     26  H18 A3M d          81.727  75.092  96.720  0.00  0.00     0.028 H 
ATOM     27  H19 A3M d          80.052  74.986  96.080  0.00  0.00     0.028 H 
ENDBRANCH  18  24
ENDBRANCH   1  18
BRANCH   1  28
ATOM     28  N19 A3M d          80.893  76.671  99.428  0.00  0.00    -0.070 N 
ATOM     29  H14 A3M d          80.050  76.890  98.920  0.00  0.00     0.274 HD
ATOM     30  H15 A3M d          81.657  77.214  99.060  0.00  0.00     0.274 HD
ATOM     31  H16 A3M d          80.764  76.890 100.403  0.00  0.00     0.274 HD
ENDBRANCH   1  28
TORSDOF 5
ENDMDL
