MODEL 1
REMARK VINA RESULT:      -8.3      0.000      0.000
REMARK  4 active torsions:
REMARK  status: ('A' for Active; 'I' for Inactive)
REMARK    1  A    between atoms: C4_4  and  O18_18 
REMARK    2  A    between atoms: C8_8  and  C21_21 
REMARK    3  A    between atoms: N9_9  and  C10_10 
REMARK    4  A    between atoms: C11_11  and  C16_16 
ROOT
ATOM      1  C10 LGB d          54.268   2.326   3.732  0.00  0.00     0.068 A 
ATOM      2  C11 LGB d          53.041   2.614   4.365  0.00  0.00    -0.010 A 
ATOM      3  C12 LGB d          52.583   3.927   4.310  0.00  0.00     0.062 A 
ATOM      4  C13 LGB d          53.302   4.945   3.651  0.00  0.00     0.067 A 
ATOM      5  C14 LGB d          54.501   4.669   3.032  0.00  0.00    -0.059 A 
ATOM      6  C15 LGB d          54.983   3.360   3.074  0.00  0.00    -0.053 A 
ATOM      7 CL17 LGB d          51.112   4.309   5.059  0.00  0.00    -0.082 Cl
ATOM      8  C19 LGB d          52.859   6.280   3.583  0.00  0.00     0.101 C 
ATOM      9  N20 LGB d          52.395   7.323   3.597  0.00  0.00    -0.191 NA
ATOM     10  H8  LGB d          55.056   5.450   2.525  0.00  0.00     0.086 H 
ATOM     11  H9  LGB d          55.927   3.128   2.593  0.00  0.00     0.087 H 
ENDROOT
BRANCH   2  12
ATOM     12  C16 LGB d          52.263   1.531   5.074  0.00  0.00    -0.047 C 
ATOM     13  H10 LGB d          52.313   1.695   6.161  0.00  0.00     0.033 H 
ATOM     14  H11 LGB d          52.695   0.550   4.830  0.00  0.00     0.033 H 
ATOM     15  H12 LGB d          51.213   1.561   4.747  0.00  0.00     0.033 H 
ENDBRANCH   2  12
BRANCH   1  16
ATOM     16  N9  LGB d          54.724   1.049   3.780  0.00  0.00    -0.213 NA
ATOM     17  C6  LGB d          55.916   0.614   4.203  0.00  0.00     0.223 C 
ATOM     18  N2  LGB d          56.243  -0.750   4.380  0.00  0.00    -0.237 NA
ATOM     19  O7  LGB d          56.945   1.413   4.512  0.00  0.00    -0.309 OA
ATOM     20  C1  LGB d          55.752  -1.812   3.465  0.00  0.00    -0.010 C 
ATOM     21  C3  LGB d          57.706  -0.729   4.340  0.00  0.00     0.061 C 
ATOM     22  C5  LGB d          56.965  -2.502   2.841  0.00  0.00    -0.028 C 
ATOM     23  H1  LGB d          55.130  -1.365   2.675  0.00  0.00     0.056 H 
ATOM     24  H2  LGB d          55.157  -2.544   4.031  0.00  0.00     0.056 H 
ATOM     25  C4  LGB d          58.101  -1.436   3.026  0.00  0.00     0.055 C 
ATOM     26  H5  LGB d          56.794  -2.719   1.777  0.00  0.00     0.038 H 
ATOM     27  H6  LGB d          57.207  -3.435   3.371  0.00  0.00     0.038 H 
ATOM     28  H4  LGB d          58.113  -0.723   2.188  0.00  0.00     0.085 H 
ATOM     29  C8  LGB d          58.139   0.720   4.548  0.00  0.00     0.159 C 
ATOM     30  H3  LGB d          58.115  -1.319   5.173  0.00  0.00     0.073 H 
ATOM     31  H7  LGB d          58.862   1.050   3.788  0.00  0.00     0.101 H 
BRANCH  25  32
ATOM     32  O18 LGB d          59.353  -2.058   3.120  0.00  0.00    -0.394 OA
ATOM     33  H13 LGB d          59.459  -2.666   2.398  0.00  0.00     0.210 HD
ENDBRANCH  25  32
BRANCH  29  34
ATOM     34  C21 LGB d          58.660   0.939   5.955  0.00  0.00     0.415 C 
ATOM     35  F22 LGB d          57.629   1.233   6.736  0.00  0.00    -0.168 F 
ATOM     36  F23 LGB d          59.569   1.921   6.030  0.00  0.00    -0.168 F 
ATOM     37  F24 LGB d          59.235  -0.167   6.362  0.00  0.00    -0.168 F 
ENDBRANCH  29  34
ENDBRANCH   1  16
TORSDOF 4
ENDMDL
MODEL 2
REMARK VINA RESULT:      -6.5      1.287      1.864
REMARK  4 active torsions:
REMARK  status: ('A' for Active; 'I' for Inactive)
REMARK    1  A    between atoms: C4_4  and  O18_18 
REMARK    2  A    between atoms: C8_8  and  C21_21 
REMARK    3  A    between atoms: N9_9  and  C10_10 
REMARK    4  A    between atoms: C11_11  and  C16_16 
ROOT
ATOM      1  C10 LGB d          53.278   2.426   4.240  0.00  0.00     0.068 A 
ATOM      2  C11 LGB d          53.966   3.500   3.638  0.00  0.00    -0.010 A 
ATOM      3  C12 LGB d          53.387   4.763   3.723  0.00  0.00     0.062 A 
ATOM      4  C13 LGB d          52.160   4.982   4.382  0.00  0.00     0.067 A 
ATOM      5  C14 LGB d          51.483   3.937   4.970  0.00  0.00    -0.059 A 
ATOM      6  C15 LGB d          52.042   2.660   4.898  0.00  0.00    -0.053 A 
ATOM      7 CL17 LGB d          54.187   6.076   3.011  0.00  0.00    -0.082 Cl
ATOM      8  C19 LGB d          51.555   6.249   4.479  0.00  0.00     0.101 C 
ATOM      9  N20 LGB d          51.167   7.323   4.490  0.00  0.00    -0.191 NA
ATOM     10  H8  LGB d          50.539   4.102   5.477  0.00  0.00     0.086 H 
ATOM     11  H9  LGB d          51.520   1.827   5.355  0.00  0.00     0.087 H 
ENDROOT
BRANCH   2  12
ATOM     12  C16 LGB d          55.281   3.276   2.930  0.00  0.00    -0.047 C 
ATOM     13  H10 LGB d          55.398   2.205   2.703  0.00  0.00     0.033 H 
ATOM     14  H11 LGB d          56.107   3.606   3.577  0.00  0.00     0.033 H 
ATOM     15  H12 LGB d          55.295   3.852   1.993  0.00  0.00     0.033 H 
ENDBRANCH   2  12
BRANCH   1  16
ATOM     16  N9  LGB d          53.834   1.191   4.163  0.00  0.00    -0.213 NA
ATOM     17  C6  LGB d          55.080   0.826   4.485  0.00  0.00     0.223 C 
ATOM     18  N2  LGB d          55.524  -0.515   4.537  0.00  0.00    -0.237 NA
ATOM     19  O7  LGB d          56.059   1.683   4.801  0.00  0.00    -0.309 OA
ATOM     20  C1  LGB d          55.063  -1.543   3.569  0.00  0.00    -0.010 C 
ATOM     21  C3  LGB d          56.974  -0.370   4.420  0.00  0.00     0.061 C 
ATOM     22  C5  LGB d          56.287  -2.082   2.828  0.00  0.00    -0.028 C 
ATOM     23  H1  LGB d          54.362  -1.092   2.851  0.00  0.00     0.056 H 
ATOM     24  H2  LGB d          54.562  -2.362   4.106  0.00  0.00     0.056 H 
ATOM     25  C4  LGB d          57.344  -0.942   3.035  0.00  0.00     0.055 C 
ATOM     26  H5  LGB d          56.070  -2.233   1.761  0.00  0.00     0.038 H 
ATOM     27  H6  LGB d          56.633  -3.029   3.269  0.00  0.00     0.038 H 
ATOM     28  H4  LGB d          57.250  -0.170   2.257  0.00  0.00     0.085 H 
ATOM     29  C8  LGB d          57.304   1.091   4.718  0.00  0.00     0.159 C 
ATOM     30  H3  LGB d          57.478  -0.984   5.181  0.00  0.00     0.073 H 
ATOM     31  H7  LGB d          57.952   1.535   3.948  0.00  0.00     0.101 H 
BRANCH  25  32
ATOM     32  O18 LGB d          58.645  -1.463   3.013  0.00  0.00    -0.394 OA
ATOM     33  H13 LGB d          58.616  -2.394   3.203  0.00  0.00     0.210 HD
ENDBRANCH  25  32
BRANCH  29  34
ATOM     34  C21 LGB d          57.890   1.248   6.108  0.00  0.00     0.415 C 
ATOM     35  F22 LGB d          57.220   2.208   6.732  0.00  0.00    -0.168 F 
ATOM     36  F23 LGB d          59.195   1.553   6.095  0.00  0.00    -0.168 F 
ATOM     37  F24 LGB d          57.753   0.111   6.747  0.00  0.00    -0.168 F 
ENDBRANCH  29  34
ENDBRANCH   1  16
TORSDOF 4
ENDMDL
