MODEL 1
REMARK VINA RESULT:      -6.2      0.000      0.000
REMARK  4 active torsions:
REMARK  status: ('A' for Active; 'I' for Inactive)
REMARK    1  A    between atoms: C4_4  and  C6_6 
REMARK    2  A    between atoms: C5_5  and  O8_8 
REMARK    3  A    between atoms: O8_8  and  C9_9 
REMARK    4  A    between atoms: C9_9  and  C10_10 
ROOT
ATOM      1  C1  MOL d          45.274  13.012   0.970  0.00  0.00    -0.024 A 
ATOM      2  C2  MOL d          45.803  13.379   2.227  0.00  0.00     0.052 A 
ATOM      3  S3  MOL d          44.405  14.327   0.338  0.00  0.00    -0.091 SA
ATOM      4  C4  MOL d          44.685  15.373   1.655  0.00  0.00     0.116 A 
ATOM      5  C5  MOL d          45.481  14.706   2.627  0.00  0.00     0.111 A 
ATOM      6 BR19 MOL d          46.843  12.201   3.260  0.00  0.00    -0.048 Br
ATOM      7  H1  MOL d          45.402  12.045   0.486  0.00  0.00     0.097 H 
ENDROOT
BRANCH   5   8
ATOM      8  O8  MOL d          45.950  15.233   3.890  0.00  0.00    -0.338 OA
BRANCH   8   9
ATOM      9  C9  MOL d          47.243  15.871   3.812  0.00  0.00     0.106 C 
ATOM     10  H2  MOL d          47.326  16.397   2.850  0.00  0.00     0.091 H 
ATOM     11  H3  MOL d          48.027  15.102   3.878  0.00  0.00     0.091 H 
BRANCH   9  12
ATOM     12  C10 MOL d          47.435  16.878   4.949  0.00  0.00     0.198 C 
ATOM     13  O13 MOL d          48.698  17.301   5.111  0.00  0.00    -0.646 OA
ATOM     14  O15 MOL d          46.546  17.255   5.645  0.00  0.00    -0.646 OA
ENDBRANCH   9  12
ENDBRANCH   8   9
ENDBRANCH   5   8
BRANCH   4  15
ATOM     15  C6  MOL d          44.170  16.673   1.687  0.00  0.00     0.219 C 
ATOM     16  O7  MOL d          43.375  16.988   0.646  0.00  0.00    -0.643 OA
ATOM     17  O14 MOL d          44.409  17.462   2.570  0.00  0.00    -0.643 OA
ENDBRANCH   4  15
TORSDOF 4
ENDMDL
