MODEL 1
REMARK VINA RESULT:      -6.1      0.000      0.000
REMARK  3 active torsions:
REMARK  status: ('A' for Active; 'I' for Inactive)
REMARK    1  A    between atoms: N2_1  and  C7_3 
REMARK    2  A    between atoms: C7_3  and  C4_4 
REMARK    3  A    between atoms: C1_9  and  N1_10 
ROOT
ATOM      1  C4  PBZ d          -1.786  14.235  16.566  0.00  0.00     0.007 A 
ATOM      2  C2  PBZ d          -2.233  16.145  17.982  0.00  0.00    -0.057 A 
ATOM      3  C3  PBZ d          -2.467  15.428  16.813  0.00  0.00    -0.067 A 
ATOM      4  C5  PBZ d          -0.872  13.755  17.507  0.00  0.00    -0.067 A 
ATOM      5  C6  PBZ d          -0.645  14.479  18.683  0.00  0.00    -0.057 A 
ATOM      6  C1  PBZ d          -1.319  15.674  18.914  0.00  0.00     0.025 A 
ATOM      7  H5  PBZ d          -2.765  17.072  18.164  0.00  0.00     0.086 H 
ATOM      8  H6  PBZ d          -3.184  15.798  16.089  0.00  0.00     0.085 H 
ATOM      9  H7  PBZ d          -0.341  12.827  17.327  0.00  0.00     0.085 H 
ATOM     10  H8  PBZ d           0.059  14.107  19.419  0.00  0.00     0.086 H 
ENDROOT
BRANCH   1  11
ATOM     11  C7  PBZ d          -2.038  13.487  15.283  0.00  0.00     0.102 C 
ATOM     12  N3  PBZ d          -2.588  14.079  14.221  0.00  0.00    -0.385 N 
ATOM     13  H3  PBZ d          -2.865  15.070  14.269  0.00  0.00     0.157 HD
ATOM     14  H4  PBZ d          -2.736  13.545  13.352  0.00  0.00     0.157 HD
BRANCH  11  15
ATOM     15  N2  PBZ d          -1.695  12.210  15.184  0.00  0.00    -0.385 N 
ATOM     16  H1  PBZ d          -1.229  11.740  15.973  0.00  0.00     0.157 HD
ATOM     17  H2  PBZ d          -1.894  11.689  14.318  0.00  0.00     0.157 HD
ENDBRANCH  11  15
ENDBRANCH   1  11
BRANCH   6  18
ATOM     18  N1  PBZ d          -1.103  16.378  20.057  0.00  0.00    -0.399 N 
ATOM     19  H9  PBZ d          -1.625  16.144  20.913  0.00  0.00     0.156 HD
ATOM     20  H10 PBZ d          -0.416  17.145  20.067  0.00  0.00     0.156 HD
ENDBRANCH   6  18
TORSDOF 3
ENDMDL
MODEL 2
REMARK VINA RESULT:      -6.1      0.040      1.524
REMARK  3 active torsions:
REMARK  status: ('A' for Active; 'I' for Inactive)
REMARK    1  A    between atoms: N2_1  and  C7_3 
REMARK    2  A    between atoms: C7_3  and  C4_4 
REMARK    3  A    between atoms: C1_9  and  N1_10 
ROOT
ATOM      1  C4  PBZ d          -1.798  14.265  16.544  0.00  0.00     0.007 A 
ATOM      2  C2  PBZ d          -0.680  14.458  18.681  0.00  0.00    -0.057 A 
ATOM      3  C3  PBZ d          -0.901  13.771  17.492  0.00  0.00    -0.067 A 
ATOM      4  C5  PBZ d          -2.468  15.466  16.789  0.00  0.00    -0.067 A 
ATOM      5  C6  PBZ d          -2.237  16.155  17.986  0.00  0.00    -0.057 A 
ATOM      6  C1  PBZ d          -1.352  15.647  18.931  0.00  0.00     0.025 A 
ATOM      7  H5  PBZ d           0.016  14.065  19.413  0.00  0.00     0.086 H 
ATOM      8  H6  PBZ d          -0.372  12.844  17.300  0.00  0.00     0.085 H 
ATOM      9  H7  PBZ d          -3.163  15.861  16.058  0.00  0.00     0.085 H 
ATOM     10  H8  PBZ d          -2.751  17.091  18.177  0.00  0.00     0.086 H 
ENDROOT
BRANCH   1  11
ATOM     11  C7  PBZ d          -2.038  13.493  15.273  0.00  0.00     0.102 C 
ATOM     12  N3  PBZ d          -2.581  14.065  14.196  0.00  0.00    -0.385 N 
ATOM     13  H3  PBZ d          -2.860  15.056  14.224  0.00  0.00     0.157 HD
ATOM     14  H4  PBZ d          -2.720  13.514  13.336  0.00  0.00     0.157 HD
BRANCH  11  15
ATOM     15  N2  PBZ d          -1.690  12.216  15.200  0.00  0.00    -0.385 N 
ATOM     16  H1  PBZ d          -2.134  11.525  15.822  0.00  0.00     0.157 HD
ATOM     17  H2  PBZ d          -0.977  11.914  14.521  0.00  0.00     0.157 HD
ENDBRANCH  11  15
ENDBRANCH   1  11
BRANCH   6  18
ATOM     18  N1  PBZ d          -1.124  16.316  20.092  0.00  0.00    -0.399 N 
ATOM     19  H9  PBZ d          -0.317  16.065  20.681  0.00  0.00     0.156 HD
ATOM     20  H10 PBZ d          -1.757  17.074  20.383  0.00  0.00     0.156 HD
ENDBRANCH   6  18
TORSDOF 3
ENDMDL
MODEL 3
REMARK VINA RESULT:      -5.9      0.430      1.107
REMARK  3 active torsions:
REMARK  status: ('A' for Active; 'I' for Inactive)
REMARK    1  A    between atoms: N2_1  and  C7_3 
REMARK    2  A    between atoms: C7_3  and  C4_4 
REMARK    3  A    between atoms: C1_9  and  N1_10 
ROOT
ATOM      1  C4  PBZ d          -1.707  14.341  16.489  0.00  0.00     0.007 A 
ATOM      2  C2  PBZ d          -1.613  16.506  17.566  0.00  0.00    -0.057 A 
ATOM      3  C3  PBZ d          -1.917  15.720  16.459  0.00  0.00    -0.067 A 
ATOM      4  C5  PBZ d          -1.199  13.746  17.646  0.00  0.00    -0.067 A 
ATOM      5  C6  PBZ d          -0.900  14.541  18.759  0.00  0.00    -0.057 A 
ATOM      6  C1  PBZ d          -1.099  15.917  18.714  0.00  0.00     0.025 A 
ATOM      7  H5  PBZ d          -1.776  17.576  17.532  0.00  0.00     0.086 H 
ATOM      8  H6  PBZ d          -2.320  16.184  15.565  0.00  0.00     0.085 H 
ATOM      9  H7  PBZ d          -1.037  12.675  17.682  0.00  0.00     0.085 H 
ATOM     10  H8  PBZ d          -0.511  14.082  19.661  0.00  0.00     0.086 H 
ENDROOT
BRANCH   1  11
ATOM     11  C7  PBZ d          -2.023  13.514  15.271  0.00  0.00     0.102 C 
ATOM     12  N3  PBZ d          -1.635  12.240  15.167  0.00  0.00    -0.385 N 
ATOM     13  H3  PBZ d          -1.094  11.803  15.926  0.00  0.00     0.157 HD
ATOM     14  H4  PBZ d          -1.878  11.695  14.327  0.00  0.00     0.157 HD
BRANCH  11  15
ATOM     15  N2  PBZ d          -2.718  14.043  14.273  0.00  0.00    -0.385 N 
ATOM     16  H1  PBZ d          -3.683  13.731  14.097  0.00  0.00     0.157 HD
ATOM     17  H2  PBZ d          -2.293  14.766  13.676  0.00  0.00     0.157 HD
ENDBRANCH  11  15
ENDBRANCH   1  11
BRANCH   6  18
ATOM     18  N1  PBZ d          -0.813  16.692  19.794  0.00  0.00    -0.399 N 
ATOM     19  H9  PBZ d          -0.311  17.583  19.670  0.00  0.00     0.156 HD
ATOM     20  H10 PBZ d          -1.098  16.388  20.736  0.00  0.00     0.156 HD
ENDBRANCH   6  18
TORSDOF 3
ENDMDL
MODEL 4
REMARK VINA RESULT:      -5.4      0.998      4.218
REMARK  3 active torsions:
REMARK  status: ('A' for Active; 'I' for Inactive)
REMARK    1  A    between atoms: N2_1  and  C7_3 
REMARK    2  A    between atoms: C7_3  and  C4_4 
REMARK    3  A    between atoms: C1_9  and  N1_10 
ROOT
ATOM      1  C4  PBZ d          -1.171  15.365  17.932  0.00  0.00     0.007 A 
ATOM      2  C2  PBZ d          -2.180  14.574  15.880  0.00  0.00    -0.057 A 
ATOM      3  C3  PBZ d          -1.973  15.586  16.811  0.00  0.00    -0.067 A 
ATOM      4  C5  PBZ d          -0.562  14.120  18.109  0.00  0.00    -0.067 A 
ATOM      5  C6  PBZ d          -0.770  13.107  17.165  0.00  0.00    -0.057 A 
ATOM      6  C1  PBZ d          -1.583  13.333  16.059  0.00  0.00     0.025 A 
ATOM      7  H5  PBZ d          -2.807  14.753  15.015  0.00  0.00     0.086 H 
ATOM      8  H6  PBZ d          -2.439  16.554  16.666  0.00  0.00     0.085 H 
ATOM      9  H7  PBZ d           0.067  13.939  18.973  0.00  0.00     0.085 H 
ATOM     10  H8  PBZ d          -0.295  12.142  17.296  0.00  0.00     0.086 H 
ENDROOT
BRANCH   1  11
ATOM     11  C7  PBZ d          -0.979  16.468  18.939  0.00  0.00     0.102 C 
ATOM     12  N3  PBZ d          -1.420  16.358  20.194  0.00  0.00    -0.385 N 
ATOM     13  H3  PBZ d          -1.918  15.507  20.492  0.00  0.00     0.157 HD
ATOM     14  H4  PBZ d          -1.261  17.124  20.864  0.00  0.00     0.157 HD
BRANCH  11  15
ATOM     15  N2  PBZ d          -0.341  17.577  18.591  0.00  0.00    -0.385 N 
ATOM     16  H1  PBZ d          -0.415  17.933  17.628  0.00  0.00     0.157 HD
ATOM     17  H2  PBZ d           0.228  18.083  19.285  0.00  0.00     0.157 HD
ENDBRANCH  11  15
ENDBRANCH   1  11
BRANCH   6  18
ATOM     18  N1  PBZ d          -1.785  12.352  15.139  0.00  0.00    -0.399 N 
ATOM     19  H9  PBZ d          -1.573  11.373  15.375  0.00  0.00     0.156 HD
ATOM     20  H10 PBZ d          -2.151  12.589  14.206  0.00  0.00     0.156 HD
ENDBRANCH   6  18
TORSDOF 3
ENDMDL
MODEL 5
REMARK VINA RESULT:      -5.4      0.990      4.410
REMARK  3 active torsions:
REMARK  status: ('A' for Active; 'I' for Inactive)
REMARK    1  A    between atoms: N2_1  and  C7_3 
REMARK    2  A    between atoms: C7_3  and  C4_4 
REMARK    3  A    between atoms: C1_9  and  N1_10 
ROOT
ATOM      1  C4  PBZ d          -1.203  15.361  17.918  0.00  0.00     0.007 A 
ATOM      2  C2  PBZ d          -0.793  13.108  17.138  0.00  0.00    -0.057 A 
ATOM      3  C3  PBZ d          -0.605  14.111  18.083  0.00  0.00    -0.067 A 
ATOM      4  C5  PBZ d          -2.007  15.599  16.800  0.00  0.00    -0.067 A 
ATOM      5  C6  PBZ d          -2.197  14.583  15.856  0.00  0.00    -0.057 A 
ATOM      6  C1  PBZ d          -1.585  13.345  16.022  0.00  0.00     0.025 A 
ATOM      7  H5  PBZ d          -0.322  12.141  17.273  0.00  0.00     0.086 H 
ATOM      8  H6  PBZ d           0.012  13.921  18.954  0.00  0.00     0.085 H 
ATOM      9  H7  PBZ d          -2.480  16.565  16.665  0.00  0.00     0.085 H 
ATOM     10  H8  PBZ d          -2.825  14.762  14.991  0.00  0.00     0.086 H 
ENDROOT
BRANCH   1  11
ATOM     11  C7  PBZ d          -0.967  16.440  18.942  0.00  0.00     0.102 C 
ATOM     12  N3  PBZ d          -0.341  17.578  18.633  0.00  0.00    -0.385 N 
ATOM     13  H3  PBZ d           0.007  17.730  17.675  0.00  0.00     0.157 HD
ATOM     14  H4  PBZ d          -0.206  18.303  19.352  0.00  0.00     0.157 HD
BRANCH  11  15
ATOM     15  N2  PBZ d          -1.401  16.279  20.185  0.00  0.00    -0.385 N 
ATOM     16  H1  PBZ d          -2.308  16.675  20.468  0.00  0.00     0.157 HD
ATOM     17  H2  PBZ d          -0.831  15.757  20.866  0.00  0.00     0.157 HD
ENDBRANCH  11  15
ENDBRANCH   1  11
BRANCH   6  18
ATOM     18  N1  PBZ d          -1.769  12.356  15.108  0.00  0.00    -0.399 N 
ATOM     19  H9  PBZ d          -1.165  12.304  14.276  0.00  0.00     0.156 HD
ATOM     20  H10 PBZ d          -2.513  11.658  15.248  0.00  0.00     0.156 HD
ENDBRANCH   6  18
TORSDOF 3
ENDMDL
MODEL 6
REMARK VINA RESULT:      -4.7      1.093      4.402
REMARK  3 active torsions:
REMARK  status: ('A' for Active; 'I' for Inactive)
REMARK    1  A    between atoms: N2_1  and  C7_3 
REMARK    2  A    between atoms: C7_3  and  C4_4 
REMARK    3  A    between atoms: C1_9  and  N1_10 
ROOT
ATOM      1  C4  PBZ d          -1.653  15.143  17.563  0.00  0.00     0.007 A 
ATOM      2  C2  PBZ d          -0.641  13.026  16.972  0.00  0.00    -0.057 A 
ATOM      3  C3  PBZ d          -0.822  14.067  17.877  0.00  0.00    -0.067 A 
ATOM      4  C5  PBZ d          -2.316  15.166  16.333  0.00  0.00    -0.067 A 
ATOM      5  C6  PBZ d          -2.134  14.113  15.430  0.00  0.00    -0.057 A 
ATOM      6  C1  PBZ d          -1.292  13.051  15.746  0.00  0.00     0.025 A 
ATOM      7  H5  PBZ d           0.009  12.196  17.224  0.00  0.00     0.086 H 
ATOM      8  H6  PBZ d          -0.314  14.042  18.834  0.00  0.00     0.085 H 
ATOM      9  H7  PBZ d          -2.968  15.995  16.081  0.00  0.00     0.085 H 
ATOM     10  H8  PBZ d          -2.652  14.124  14.477  0.00  0.00     0.086 H 
ENDROOT
BRANCH   1  11
ATOM     11  C7  PBZ d          -1.816  16.270  18.549  0.00  0.00     0.102 C 
ATOM     12  N3  PBZ d          -1.626  16.091  19.858  0.00  0.00    -0.385 N 
ATOM     13  H3  PBZ d          -1.374  15.160  20.219  0.00  0.00     0.157 HD
ATOM     14  H4  PBZ d          -1.732  16.884  20.507  0.00  0.00     0.157 HD
BRANCH  11  15
ATOM     15  N2  PBZ d          -2.140  17.482  18.120  0.00  0.00    -0.385 N 
ATOM     16  H1  PBZ d          -1.556  18.291  18.375  0.00  0.00     0.157 HD
ATOM     17  H2  PBZ d          -2.976  17.615  17.533  0.00  0.00     0.157 HD
ENDBRANCH  11  15
ENDBRANCH   1  11
BRANCH   6  18
ATOM     18  N1  PBZ d          -1.115  12.026  14.872  0.00  0.00    -0.399 N 
ATOM     19  H9  PBZ d          -1.867  11.337  14.726  0.00  0.00     0.156 HD
ATOM     20  H10 PBZ d          -0.230  11.938  14.354  0.00  0.00     0.156 HD
ENDBRANCH   6  18
TORSDOF 3
ENDMDL
MODEL 7
REMARK VINA RESULT:      -4.0      1.210      4.100
REMARK  3 active torsions:
REMARK  status: ('A' for Active; 'I' for Inactive)
REMARK    1  A    between atoms: N2_1  and  C7_3 
REMARK    2  A    between atoms: C7_3  and  C4_4 
REMARK    3  A    between atoms: C1_9  and  N1_10 
ROOT
ATOM      1  C4  PBZ d          -1.170  14.395  17.393  0.00  0.00     0.007 A 
ATOM      2  C2  PBZ d          -2.420  15.059  15.431  0.00  0.00    -0.057 A 
ATOM      3  C3  PBZ d          -1.966  15.323  16.719  0.00  0.00    -0.067 A 
ATOM      4  C5  PBZ d          -0.820  13.199  16.762  0.00  0.00    -0.067 A 
ATOM      5  C6  PBZ d          -1.276  12.943  15.464  0.00  0.00    -0.057 A 
ATOM      6  C1  PBZ d          -2.080  13.867  14.805  0.00  0.00     0.025 A 
ATOM      7  H5  PBZ d          -3.040  15.783  14.916  0.00  0.00     0.086 H 
ATOM      8  H6  PBZ d          -2.231  16.256  17.202  0.00  0.00     0.085 H 
ATOM      9  H7  PBZ d          -0.198  12.474  17.275  0.00  0.00     0.085 H 
ATOM     10  H8  PBZ d          -1.001  12.018  14.968  0.00  0.00     0.086 H 
ENDROOT
BRANCH   1  11
ATOM     11  C7  PBZ d          -0.708  14.692  18.795  0.00  0.00     0.102 C 
ATOM     12  N3  PBZ d          -0.341  15.920  19.169  0.00  0.00    -0.385 N 
ATOM     13  H3  PBZ d          -0.356  16.692  18.487  0.00  0.00     0.157 HD
ATOM     14  H4  PBZ d          -0.042  16.096  20.139  0.00  0.00     0.157 HD
BRANCH  11  15
ATOM     15  N2  PBZ d          -0.676  13.724  19.701  0.00  0.00    -0.385 N 
ATOM     16  H1  PBZ d          -0.292  12.801  19.453  0.00  0.00     0.157 HD
ATOM     17  H2  PBZ d          -1.035  13.894  20.651  0.00  0.00     0.157 HD
ENDBRANCH  11  15
ENDBRANCH   1  11
BRANCH   6  18
ATOM     18  N1  PBZ d          -2.523  13.621  13.543  0.00  0.00    -0.399 N 
ATOM     19  H9  PBZ d          -3.534  13.591  13.349  0.00  0.00     0.156 HD
ATOM     20  H10 PBZ d          -1.847  13.466  12.782  0.00  0.00     0.156 HD
ENDBRANCH   6  18
TORSDOF 3
ENDMDL
