MODEL 1
REMARK VINA RESULT:      -9.7      0.000      0.000
REMARK  7 active torsions:
REMARK  status: ('A' for Active; 'I' for Inactive)
REMARK    1  A    between atoms: C2_3  and  C5_9 
REMARK    2  A    between atoms: C11_15  and  C2_3 
REMARK    3  A    between atoms: C3_5  and  N3_7 
REMARK    4  A    between atoms: N2_6  and  C4_8 
REMARK    5  A    between atoms: C19_23  and  C15_19 
REMARK    6  A    between atoms: C22_26  and  O2_27 
REMARK    7  A    between atoms: O2_27  and  C23_28 
ROOT
ATOM      1  O1  MOL d          22.745  13.058  21.995  0.00  0.00    -0.269 OA
ATOM      2  C1  MOL d          22.642  11.893  22.326  0.00  0.00     0.276 A 
ATOM      3  C2  MOL d          22.397  10.669  21.364  0.00  0.00     0.183 A 
ATOM      4  N1  MOL d          22.541   9.514  22.310  0.00  0.00    -0.199 N 
ATOM      5  C3  MOL d          22.688   9.981  23.560  0.00  0.00     0.677 A 
ATOM      6  N2  MOL d          22.792  11.401  23.602  0.00  0.00    -0.153 N 
ATOM      7  H1  MOL d          22.529   8.519  22.043  0.00  0.00     0.179 HD
ENDROOT
BRANCH   3   8
ATOM      8  C5  MOL d          20.970  10.705  20.781  0.00  0.00    -0.015 A 
ATOM      9  C6  MOL d          20.197   9.549  20.732  0.00  0.00    -0.074 A 
ATOM     10  C7  MOL d          18.901   9.576  20.221  0.00  0.00    -0.082 A 
ATOM     11  H7  MOL d          20.609   8.614  21.096  0.00  0.00     0.084 H 
ATOM     12  C8  MOL d          18.362  10.755  19.759  0.00  0.00    -0.083 A 
ATOM     13  H8  MOL d          18.315   8.665  20.187  0.00  0.00     0.083 H 
ATOM     14  C9  MOL d          19.116  11.913  19.795  0.00  0.00    -0.082 A 
ATOM     15  H9  MOL d          17.351  10.775  19.369  0.00  0.00     0.083 H 
ATOM     16  C10 MOL d          20.416  11.889  20.296  0.00  0.00    -0.074 A 
ATOM     17  H10 MOL d          18.694  12.843  19.432  0.00  0.00     0.083 H 
ATOM     18  H11 MOL d          21.002  12.800  20.309  0.00  0.00     0.084 H 
ENDBRANCH   3   8
BRANCH   3  19
ATOM     19  C11 MOL d          23.519  10.665  20.308  0.00  0.00    -0.015 A 
ATOM     20  C12 MOL d          23.240  10.852  18.956  0.00  0.00    -0.074 A 
ATOM     21  C13 MOL d          24.267  10.990  18.034  0.00  0.00    -0.082 A 
ATOM     22  H12 MOL d          22.210  10.891  18.622  0.00  0.00     0.084 H 
ATOM     23  C14 MOL d          25.584  10.929  18.449  0.00  0.00    -0.072 A 
ATOM     24  H13 MOL d          24.035  11.146  16.986  0.00  0.00     0.083 H 
ATOM     25  C15 MOL d          25.895  10.711  19.795  0.00  0.00    -0.025 A 
ATOM     26  H14 MOL d          26.382  11.052  17.726  0.00  0.00     0.084 H 
ATOM     27  C16 MOL d          24.849  10.574  20.717  0.00  0.00    -0.063 A 
ATOM     28  H15 MOL d          25.077  10.395  21.762  0.00  0.00     0.085 H 
BRANCH  25  29
ATOM     29  C19 MOL d          27.306  10.636  20.261  0.00  0.00    -0.023 A 
ATOM     30  C18 MOL d          27.710   9.594  21.097  0.00  0.00    -0.040 A 
ATOM     31  C22 MOL d          28.962   9.607  21.702  0.00  0.00     0.069 A 
ATOM     32  H17 MOL d          27.038   8.763  21.277  0.00  0.00     0.089 H 
ATOM     33  C17 MOL d          29.843  10.657  21.469  0.00  0.00    -0.051 A 
ATOM     34  C21 MOL d          29.471  11.672  20.600  0.00  0.00    -0.080 A 
ATOM     35  H16 MOL d          30.809  10.682  21.960  0.00  0.00     0.087 H 
ATOM     36  C20 MOL d          28.216  11.663  20.001  0.00  0.00    -0.072 A 
ATOM     37  H19 MOL d          30.163  12.479  20.387  0.00  0.00     0.083 H 
ATOM     38  H18 MOL d          27.940  12.464  19.323  0.00  0.00     0.084 H 
BRANCH  31  39
ATOM     39  O2  MOL d          29.187   8.538  22.535  0.00  0.00    -0.356 OA
BRANCH  39  40
ATOM     40  C23 MOL d          30.120   8.710  23.613  0.00  0.00     0.010 C 
ATOM     41  H20 MOL d          29.607   8.546  24.572  0.00  0.00     0.066 H 
ATOM     42  H21 MOL d          30.528   9.732  23.585  0.00  0.00     0.066 H 
ATOM     43  H22 MOL d          30.940   7.985  23.508  0.00  0.00     0.066 H 
ENDBRANCH  39  40
ENDBRANCH  31  39
ENDBRANCH  25  29
ENDBRANCH   3  19
BRANCH   6  44
ATOM     44  C4  MOL d          23.025  12.245  24.781  0.00  0.00     0.005 C 
ATOM     45  H4  MOL d          22.167  12.163  25.465  0.00  0.00     0.058 H 
ATOM     46  H5  MOL d          23.144  13.292  24.465  0.00  0.00     0.058 H 
ATOM     47  H6  MOL d          23.937  11.911  25.296  0.00  0.00     0.058 H 
ENDBRANCH   6  44
BRANCH   5  48
ATOM     48  N3  MOL d          22.795   9.229  24.654  0.00  0.00    -0.234 N 
ATOM     49  H2  MOL d          22.288   9.490  25.512  0.00  0.00     0.174 HD
ATOM     50  H3  MOL d          23.386   8.384  24.642  0.00  0.00     0.174 HD
ENDBRANCH   5  48
TORSDOF 7
ENDMDL
MODEL 2
REMARK VINA RESULT:      -7.1      2.178      3.893
REMARK  7 active torsions:
REMARK  status: ('A' for Active; 'I' for Inactive)
REMARK    1  A    between atoms: C2_3  and  C5_9 
REMARK    2  A    between atoms: C11_15  and  C2_3 
REMARK    3  A    between atoms: C3_5  and  N3_7 
REMARK    4  A    between atoms: N2_6  and  C4_8 
REMARK    5  A    between atoms: C19_23  and  C15_19 
REMARK    6  A    between atoms: C22_26  and  O2_27 
REMARK    7  A    between atoms: O2_27  and  C23_28 
ROOT
ATOM      1  O1  MOL d          21.465   9.114  21.018  0.00  0.00    -0.269 OA
ATOM      2  C1  MOL d          20.916  10.195  20.935  0.00  0.00     0.276 A 
ATOM      3  C2  MOL d          21.585  11.602  21.178  0.00  0.00     0.183 A 
ATOM      4  N1  MOL d          20.482  12.531  20.762  0.00  0.00    -0.199 N 
ATOM      5  C3  MOL d          19.381  11.814  20.486  0.00  0.00     0.677 A 
ATOM      6  N2  MOL d          19.616  10.411  20.541  0.00  0.00    -0.153 N 
ATOM      7  H1  MOL d          20.559  13.556  20.699  0.00  0.00     0.179 HD
ENDROOT
BRANCH   3   8
ATOM      8  C5  MOL d          21.917  11.803  22.670  0.00  0.00    -0.015 A 
ATOM      9  C6  MOL d          22.833  12.773  23.065  0.00  0.00    -0.074 A 
ATOM     10  C7  MOL d          23.127  12.971  24.414  0.00  0.00    -0.082 A 
ATOM     11  H7  MOL d          23.326  13.381  22.315  0.00  0.00     0.084 H 
ATOM     12  C8  MOL d          22.507  12.211  25.378  0.00  0.00    -0.083 A 
ATOM     13  H8  MOL d          23.847  13.729  24.703  0.00  0.00     0.083 H 
ATOM     14  C9  MOL d          21.597  11.240  25.004  0.00  0.00    -0.082 A 
ATOM     15  H9  MOL d          22.731  12.373  26.426  0.00  0.00     0.083 H 
ATOM     16  C10 MOL d          21.307  11.030  23.657  0.00  0.00    -0.074 A 
ATOM     17  H10 MOL d          21.107  10.639  25.762  0.00  0.00     0.083 H 
ATOM     18  H11 MOL d          20.601  10.258  23.375  0.00  0.00     0.084 H 
ENDBRANCH   3   8
BRANCH   3  19
ATOM     19  C11 MOL d          22.796  11.719  20.232  0.00  0.00    -0.015 A 
ATOM     20  C12 MOL d          22.692  12.363  19.002  0.00  0.00    -0.074 A 
ATOM     21  C13 MOL d          23.818  12.588  18.223  0.00  0.00    -0.082 A 
ATOM     22  H12 MOL d          21.721  12.692  18.649  0.00  0.00     0.084 H 
ATOM     23  C14 MOL d          25.058  12.161  18.659  0.00  0.00    -0.072 A 
ATOM     24  H13 MOL d          23.724  13.101  17.272  0.00  0.00     0.083 H 
ATOM     25  C15 MOL d          25.189  11.484  19.876  0.00  0.00    -0.025 A 
ATOM     26  H14 MOL d          25.936  12.352  18.053  0.00  0.00     0.084 H 
ATOM     27  C16 MOL d          24.045  11.262  20.652  0.00  0.00    -0.063 A 
ATOM     28  H15 MOL d          24.131  10.730  21.593  0.00  0.00     0.085 H 
BRANCH  25  29
ATOM     29  C19 MOL d          26.514  11.010  20.359  0.00  0.00    -0.023 A 
ATOM     30  C18 MOL d          27.109  11.614  21.468  0.00  0.00    -0.040 A 
ATOM     31  C22 MOL d          28.423  11.328  21.819  0.00  0.00     0.069 A 
ATOM     32  H17 MOL d          26.538  12.317  22.063  0.00  0.00     0.089 H 
ATOM     33  C17 MOL d          29.165  10.416  21.076  0.00  0.00    -0.051 A 
ATOM     34  C21 MOL d          28.567   9.772  20.002  0.00  0.00    -0.080 A 
ATOM     35  H16 MOL d          30.198  10.210  21.332  0.00  0.00     0.087 H 
ATOM     36  C20 MOL d          27.255  10.064  19.647  0.00  0.00    -0.072 A 
ATOM     37  H19 MOL d          29.127   9.036  19.437  0.00  0.00     0.083 H 
ATOM     38  H18 MOL d          26.802   9.552  18.805  0.00  0.00     0.084 H 
BRANCH  31  39
ATOM     39  O2  MOL d          28.877  12.042  22.901  0.00  0.00    -0.356 OA
BRANCH  39  40
ATOM     40  C23 MOL d          28.037  13.086  23.417  0.00  0.00     0.010 C 
ATOM     41  H20 MOL d          28.651  13.970  23.647  0.00  0.00     0.066 H 
ATOM     42  H21 MOL d          27.538  12.737  24.333  0.00  0.00     0.066 H 
ATOM     43  H22 MOL d          27.280  13.353  22.665  0.00  0.00     0.066 H 
ENDBRANCH  39  40
ENDBRANCH  31  39
ENDBRANCH  25  29
ENDBRANCH   3  19
BRANCH   6  44
ATOM     44  C4  MOL d          18.665   9.334  20.236  0.00  0.00     0.005 C 
ATOM     45  H4  MOL d          19.025   8.763  19.367  0.00  0.00     0.058 H 
ATOM     46  H5  MOL d          17.680   9.768  20.007  0.00  0.00     0.058 H 
ATOM     47  H6  MOL d          18.578   8.664  21.104  0.00  0.00     0.058 H 
ENDBRANCH   6  44
BRANCH   5  48
ATOM     48  N3  MOL d          18.202  12.324  20.131  0.00  0.00    -0.234 N 
ATOM     49  H2  MOL d          17.898  13.232  20.511  0.00  0.00     0.174 HD
ATOM     50  H3  MOL d          17.595  11.810  19.477  0.00  0.00     0.174 HD
ENDBRANCH   5  48
TORSDOF 7
ENDMDL
