MODEL 1
REMARK VINA RESULT:      -8.6      0.000      0.000
REMARK  29 active torsions:
REMARK  status: ('A' for Active; 'I' for Inactive)
REMARK    1  A    between atoms: CR1_1  and  OR1_7 
REMARK    2  A    between atoms: CR2_2  and  OR2_8 
REMARK    3  A    between atoms: CR3_3  and  OR3_9 
REMARK    4  A    between atoms: OR4_10  and  CR4_4 
REMARK    5  A    between atoms: CR5_5  and  CR6_6 
REMARK    6  A    between atoms: CR6_6  and  OR6_12 
REMARK    7  A    between atoms: CV1_13  and  OR4_10 
REMARK    8  A    between atoms: CV2_14  and  OV2_19 
REMARK    9  A    between atoms: CV3_15  and  OV3_20 
REMARK   10  A    between atoms: NV4_21  and  CV4_16 
REMARK   11  A    between atoms: CV5_17  and  CV6_18 
REMARK   12  A    between atoms: CY1_45  and  NV4_21 
REMARK   13  A    between atoms: OY4_51  and  CQ1_23 
REMARK   14  A    between atoms: CQ2_24  and  OQ2_29 
REMARK   15  A    between atoms: CQ3_25  and  OQ3_30 
REMARK   16  A    between atoms: CQ4_26  and  OQ4_31 
REMARK   17  A    between atoms: CQ5_27  and  CQ6_28 
REMARK   18  A    between atoms: CQ6_28  and  OQ6_33 
REMARK   19  A    between atoms: OQ4_31  and  CW1_34 
REMARK   20  A    between atoms: CW2_35  and  OW2_40 
REMARK   21  A    between atoms: CW3_36  and  OW3_41 
REMARK   22  A    between atoms: CW4_37  and  OW4_42 
REMARK   23  A    between atoms: CW5_38  and  CW6_39 
REMARK   24  A    between atoms: CW6_39  and  OW6_44 
REMARK   25  A    between atoms: CY2_46  and  OY2_47 
REMARK   26  A    between atoms: CY3_48  and  OY3_49 
REMARK   27  A    between atoms: CY4_50  and  OY4_51 
REMARK   28  A    between atoms: CY5_52  and  CY7_54 
REMARK   29  A    between atoms: CY7_54  and  OY7_55 
ROOT
ATOM      1  CY1 MOL d           9.956  17.408  44.876  0.00  0.00     0.130 C 
ATOM      2  CY2 MOL d          10.911  18.665  44.885  0.00  0.00     0.090 C 
ATOM      3  CY3 MOL d          11.630  18.804  43.470  0.00  0.00     0.087 C 
ATOM      4  CY4 MOL d          12.447  17.470  43.088  0.00  0.00     0.074 C 
ATOM      5  CY5 MOL d          11.688  16.193  43.450  0.00  0.00    -0.004 C 
ATOM      6  CY6 MOL d          10.942  16.221  44.576  0.00  0.00    -0.028 C 
ATOM      7  H45 MOL d           9.499  17.254  45.864  0.00  0.00     0.088 H 
ATOM      8  H46 MOL d          11.678  18.516  45.660  0.00  0.00     0.090 H 
ATOM      9  H48 MOL d          10.851  18.956  42.709  0.00  0.00     0.091 H 
ATOM     10  H50 MOL d          13.421  17.487  43.598  0.00  0.00     0.088 H 
ATOM     11  H51 MOL d          10.975  16.046  42.627  0.00  0.00     0.047 H 
ATOM     12  H52 MOL d          10.333  15.305  44.568  0.00  0.00     0.036 H 
ATOM     13  H53 MOL d          11.649  16.184  45.418  0.00  0.00     0.036 H 
ENDROOT
BRANCH   1  14
ATOM     14  NV4 MOL d           8.828  17.656  43.862  0.00  0.00    -0.059 N 
ATOM     15  H22 MOL d           8.071  18.085  44.372  0.00  0.00     0.278 HD
ATOM     16  H23 MOL d           9.188  18.308  43.183  0.00  0.00     0.278 HD
BRANCH  14  17
ATOM     17  CV4 MOL d           8.238  16.534  43.098  0.00  0.00     0.153 C 
ATOM     18  CV3 MOL d           6.930  16.070  43.776  0.00  0.00     0.094 C 
ATOM     19  CV2 MOL d           6.344  14.910  42.976  0.00  0.00     0.110 C 
ATOM     20  H14 MOL d           6.214  16.905  43.808  0.00  0.00     0.090 H 
ATOM     21  CV1 MOL d           6.069  15.293  41.526  0.00  0.00     0.159 C 
ATOM     22  H13 MOL d           7.082  14.094  42.984  0.00  0.00     0.094 H 
ATOM     23  OV5 MOL d           7.276  15.842  40.931  0.00  0.00    -0.351 OA
ATOM     24  H12 MOL d           5.802  14.373  40.986  0.00  0.00     0.133 H 
ATOM     25  CV5 MOL d           7.865  16.992  41.643  0.00  0.00     0.068 C 
ATOM     26  H16 MOL d           7.131  17.810  41.693  0.00  0.00     0.086 H 
ATOM     27  H15 MOL d           8.958  15.703  43.057  0.00  0.00     0.092 H 
BRANCH  18  28
ATOM     28  OV3 MOL d           7.186  15.614  45.084  0.00  0.00    -0.391 OA
ATOM     29  H21 MOL d           7.949  15.048  45.076  0.00  0.00     0.210 HD
ENDBRANCH  18  28
BRANCH  19  30
ATOM     30  OV2 MOL d           5.147  14.430  43.546  0.00  0.00    -0.388 OA
ATOM     31  H20 MOL d           5.230  14.422  44.492  0.00  0.00     0.210 HD
ENDBRANCH  19  30
BRANCH  21  32
ATOM     32  OR4 MOL d           5.023  16.192  41.361  0.00  0.00    -0.348 OA
BRANCH  32  33
ATOM     33  CR4 MOL d           4.201  15.949  40.221  0.00  0.00     0.096 C 
ATOM     34  CR3 MOL d           5.103  15.893  38.961  0.00  0.00     0.092 C 
ATOM     35  CR2 MOL d           4.221  15.622  37.737  0.00  0.00     0.110 C 
ATOM     36  H3  MOL d           5.852  15.095  39.075  0.00  0.00     0.091 H 
ATOM     37  CR1 MOL d           3.478  14.269  37.915  0.00  0.00     0.156 C 
ATOM     38  H2  MOL d           3.486  16.433  37.637  0.00  0.00     0.094 H 
ATOM     39  OR5 MOL d           2.670  14.301  39.160  0.00  0.00    -0.349 OA
ATOM     40  H1  MOL d           2.801  14.133  37.059  0.00  0.00     0.133 H 
ATOM     41  CR5 MOL d           3.454  14.543  40.377  0.00  0.00     0.089 C 
ATOM     42  H5  MOL d           4.206  13.749  40.493  0.00  0.00     0.090 H 
ATOM     43  H4  MOL d           3.460  16.755  40.118  0.00  0.00     0.091 H 
BRANCH  34  44
ATOM     44  OR3 MOL d           5.748  17.132  38.769  0.00  0.00    -0.390 OA
ATOM     45  H10 MOL d           6.450  17.224  39.402  0.00  0.00     0.210 HD
ENDBRANCH  34  44
BRANCH  35  46
ATOM     46  OR2 MOL d           5.004  15.554  36.567  0.00  0.00    -0.388 OA
ATOM     47  H9  MOL d           4.992  14.666  36.229  0.00  0.00     0.210 HD
ENDBRANCH  35  46
BRANCH  37  48
ATOM     48  OR1 MOL d           4.373  13.170  37.952  0.00  0.00    -0.369 OA
ATOM     49  H8  MOL d           4.429  12.780  37.087  0.00  0.00     0.212 HD
ENDBRANCH  37  48
BRANCH  41  50
ATOM     50  CR6 MOL d           2.583  14.523  41.517  0.00  0.00     0.043 C 
ATOM     51  H6  MOL d           3.127  14.090  42.369  0.00  0.00     0.078 H 
ATOM     52  H7  MOL d           1.710  13.897  41.282  0.00  0.00     0.078 H 
BRANCH  50  53
ATOM     53  OR6 MOL d           2.128  15.822  41.879  0.00  0.00    -0.398 OA
ATOM     54  H11 MOL d           2.504  16.066  42.716  0.00  0.00     0.209 HD
ENDBRANCH  50  53
ENDBRANCH  41  50
ENDBRANCH  32  33
ENDBRANCH  21  32
BRANCH  25  55
ATOM     55  CV6 MOL d           9.104  17.477  40.907  0.00  0.00    -0.050 C 
ATOM     56  H17 MOL d           8.875  17.588  39.836  0.00  0.00     0.031 H 
ATOM     57  H18 MOL d           9.917  16.746  41.034  0.00  0.00     0.031 H 
ATOM     58  H19 MOL d           9.418  18.449  41.317  0.00  0.00     0.031 H 
ENDBRANCH  25  55
ENDBRANCH  14  17
ENDBRANCH   1  14
BRANCH   2  59
ATOM     59  OY2 MOL d          10.210  19.829  45.175  0.00  0.00    -0.391 OA
ATOM     60  H47 MOL d           9.378  19.819  44.717  0.00  0.00     0.210 HD
ENDBRANCH   2  59
BRANCH   3  61
ATOM     61  OY3 MOL d          12.483  19.917  43.448  0.00  0.00    -0.390 OA
ATOM     62  H49 MOL d          12.166  20.545  42.809  0.00  0.00     0.210 HD
ENDBRANCH   3  61
BRANCH   5  63
ATOM     63  CY7 MOL d          12.596  14.933  43.474  0.00  0.00     0.022 C 
ATOM     64  H54 MOL d          12.335  14.282  42.627  0.00  0.00     0.074 H 
ATOM     65  H55 MOL d          12.438  14.389  44.417  0.00  0.00     0.074 H 
BRANCH  63  66
ATOM     66  OY7 MOL d          13.988  15.314  43.371  0.00  0.00    -0.400 OA
ATOM     67  H56 MOL d          14.152  15.681  42.510  0.00  0.00     0.209 HD
ENDBRANCH  63  66
ENDBRANCH   5  63
BRANCH   4  68
ATOM     68  OY4 MOL d          12.619  17.405  41.678  0.00  0.00    -0.350 OA
BRANCH  68  69
ATOM     69  CQ1 MOL d          13.647  18.218  41.159  0.00  0.00     0.159 C 
ATOM     70  CQ2 MOL d          13.365  18.529  39.672  0.00  0.00     0.110 C 
ATOM     71  CQ3 MOL d          13.636  17.305  38.745  0.00  0.00     0.092 C 
ATOM     72  H25 MOL d          14.014  19.360  39.358  0.00  0.00     0.094 H 
ATOM     73  CQ4 MOL d          15.089  16.856  38.921  0.00  0.00     0.096 C 
ATOM     74  H26 MOL d          12.964  16.475  39.009  0.00  0.00     0.091 H 
ATOM     75  CQ5 MOL d          15.211  16.416  40.442  0.00  0.00     0.089 C 
ATOM     76  H27 MOL d          15.784  17.677  38.692  0.00  0.00     0.091 H 
ATOM     77  OQ5 MOL d          14.923  17.543  41.306  0.00  0.00    -0.348 OA
ATOM     78  H28 MOL d          14.484  15.612  40.628  0.00  0.00     0.090 H 
ATOM     79  H24 MOL d          13.676  19.163  41.721  0.00  0.00     0.133 H 
BRANCH  70  80
ATOM     80  OQ2 MOL d          12.010  18.912  39.524  0.00  0.00    -0.388 OA
ATOM     81  H31 MOL d          11.643  19.109  40.378  0.00  0.00     0.210 HD
ENDBRANCH  70  80
BRANCH  71  82
ATOM     82  OQ3 MOL d          13.379  17.724  37.403  0.00  0.00    -0.390 OA
ATOM     83  H32 MOL d          12.531  18.151  37.363  0.00  0.00     0.210 HD
ENDBRANCH  71  82
BRANCH  73  84
ATOM     84  OQ4 MOL d          15.354  15.761  38.090  0.00  0.00    -0.348 OA
BRANCH  84  85
ATOM     85  CW1 MOL d          14.574  14.620  38.481  0.00  0.00     0.159 C 
ATOM     86  CW2 MOL d          15.315  13.280  38.259  0.00  0.00     0.110 C 
ATOM     87  CW3 MOL d          15.565  13.088  36.740  0.00  0.00     0.092 C 
ATOM     88  H35 MOL d          14.702  12.447  38.634  0.00  0.00     0.094 H 
ATOM     89  CW4 MOL d          14.191  13.044  36.049  0.00  0.00     0.090 C 
ATOM     90  H36 MOL d          16.168  13.917  36.342  0.00  0.00     0.091 H 
ATOM     91  CW5 MOL d          13.456  14.418  36.300  0.00  0.00     0.089 C 
ATOM     92  H37 MOL d          13.592  12.219  36.459  0.00  0.00     0.091 H 
ATOM     93  OW5 MOL d          13.304  14.604  37.734  0.00  0.00    -0.348 OA
ATOM     94  H38 MOL d          14.057  15.238  35.880  0.00  0.00     0.090 H 
ATOM     95  H34 MOL d          14.350  14.713  39.554  0.00  0.00     0.133 H 
BRANCH  86  96
ATOM     96  OW2 MOL d          16.525  13.331  38.976  0.00  0.00    -0.388 OA
ATOM     97  H41 MOL d          16.744  14.236  39.164  0.00  0.00     0.210 HD
ENDBRANCH  86  96
BRANCH  87  98
ATOM     98  OW3 MOL d          16.229  11.863  36.536  0.00  0.00    -0.390 OA
ATOM     99  H42 MOL d          16.066  11.560  35.650  0.00  0.00     0.210 HD
ENDBRANCH  87  98
BRANCH  89 100
ATOM    100  OW4 MOL d          14.371  12.860  34.654  0.00  0.00    -0.390 OA
ATOM    101  H43 MOL d          15.076  13.420  34.351  0.00  0.00     0.210 HD
ENDBRANCH  89 100
BRANCH  91 102
ATOM    102  CW6 MOL d          12.060  14.421  35.645  0.00  0.00     0.043 C 
ATOM    103  H39 MOL d          11.425  13.684  36.159  0.00  0.00     0.078 H 
ATOM    104  H40 MOL d          12.163  14.141  34.586  0.00  0.00     0.078 H 
BRANCH 102 105
ATOM    105  OW6 MOL d          11.450  15.680  35.724  0.00  0.00    -0.398 OA
ATOM    106  H44 MOL d          11.544  16.129  34.892  0.00  0.00     0.209 HD
ENDBRANCH 102 105
ENDBRANCH  91 102
ENDBRANCH  84  85
ENDBRANCH  73  84
BRANCH  75 107
ATOM    107  CQ6 MOL d          16.602  15.918  40.822  0.00  0.00     0.043 C 
ATOM    108  H29 MOL d          17.158  16.735  41.306  0.00  0.00     0.078 H 
ATOM    109  H30 MOL d          17.133  15.602  39.912  0.00  0.00     0.078 H 
BRANCH 107 110
ATOM    110  OQ6 MOL d          16.517  14.827  41.711  0.00  0.00    -0.398 OA
ATOM    111  H33 MOL d          15.606  14.667  41.928  0.00  0.00     0.209 HD
ENDBRANCH 107 110
ENDBRANCH  75 107
ENDBRANCH  68  69
ENDBRANCH   4  68
TORSDOF 29
ENDMDL
MODEL 2
REMARK VINA RESULT:      -6.1      1.649      9.479
REMARK  29 active torsions:
REMARK  status: ('A' for Active; 'I' for Inactive)
REMARK    1  A    between atoms: CR1_1  and  OR1_7 
REMARK    2  A    between atoms: CR2_2  and  OR2_8 
REMARK    3  A    between atoms: CR3_3  and  OR3_9 
REMARK    4  A    between atoms: OR4_10  and  CR4_4 
REMARK    5  A    between atoms: CR5_5  and  CR6_6 
REMARK    6  A    between atoms: CR6_6  and  OR6_12 
REMARK    7  A    between atoms: CV1_13  and  OR4_10 
REMARK    8  A    between atoms: CV2_14  and  OV2_19 
REMARK    9  A    between atoms: CV3_15  and  OV3_20 
REMARK   10  A    between atoms: NV4_21  and  CV4_16 
REMARK   11  A    between atoms: CV5_17  and  CV6_18 
REMARK   12  A    between atoms: CY1_45  and  NV4_21 
REMARK   13  A    between atoms: OY4_51  and  CQ1_23 
REMARK   14  A    between atoms: CQ2_24  and  OQ2_29 
REMARK   15  A    between atoms: CQ3_25  and  OQ3_30 
REMARK   16  A    between atoms: CQ4_26  and  OQ4_31 
REMARK   17  A    between atoms: CQ5_27  and  CQ6_28 
REMARK   18  A    between atoms: CQ6_28  and  OQ6_33 
REMARK   19  A    between atoms: OQ4_31  and  CW1_34 
REMARK   20  A    between atoms: CW2_35  and  OW2_40 
REMARK   21  A    between atoms: CW3_36  and  OW3_41 
REMARK   22  A    between atoms: CW4_37  and  OW4_42 
REMARK   23  A    between atoms: CW5_38  and  CW6_39 
REMARK   24  A    between atoms: CW6_39  and  OW6_44 
REMARK   25  A    between atoms: CY2_46  and  OY2_47 
REMARK   26  A    between atoms: CY3_48  and  OY3_49 
REMARK   27  A    between atoms: CY4_50  and  OY4_51 
REMARK   28  A    between atoms: CY5_52  and  CY7_54 
REMARK   29  A    between atoms: CY7_54  and  OY7_55 
ROOT
ATOM      1  CY1 MOL d          13.371  17.330  43.440  0.00  0.00     0.130 C 
ATOM      2  CY2 MOL d          13.131  16.147  44.458  0.00  0.00     0.090 C 
ATOM      3  CY3 MOL d          11.593  15.730  44.446  0.00  0.00     0.087 C 
ATOM      4  CY4 MOL d          10.640  16.981  44.791  0.00  0.00     0.074 C 
ATOM      5  CY5 MOL d          11.098  18.274  44.115  0.00  0.00    -0.004 C 
ATOM      6  CY6 MOL d          12.430  18.462  43.992  0.00  0.00    -0.028 C 
ATOM      7  H45 MOL d          14.413  17.677  43.480  0.00  0.00     0.088 H 
ATOM      8  H46 MOL d          13.397  16.494  45.467  0.00  0.00     0.090 H 
ATOM      9  H48 MOL d          11.345  15.382  43.432  0.00  0.00     0.091 H 
ATOM     10  H50 MOL d          10.607  17.117  45.882  0.00  0.00     0.088 H 
ATOM     11  H51 MOL d          10.714  18.206  43.088  0.00  0.00     0.047 H 
ATOM     12  H52 MOL d          12.561  19.328  43.326  0.00  0.00     0.036 H 
ATOM     13  H53 MOL d          12.802  18.713  44.997  0.00  0.00     0.036 H 
ENDROOT
BRANCH   1  14
ATOM     14  NV4 MOL d          13.092  16.818  42.018  0.00  0.00    -0.059 N 
ATOM     15  H22 MOL d          12.806  15.856  42.109  0.00  0.00     0.278 HD
ATOM     16  H23 MOL d          12.325  17.365  41.660  0.00  0.00     0.278 HD
BRANCH  14  17
ATOM     17  CV4 MOL d          14.151  16.847  40.984  0.00  0.00     0.153 C 
ATOM     18  CV3 MOL d          14.880  15.486  40.944  0.00  0.00     0.094 C 
ATOM     19  CV2 MOL d          15.970  15.541  39.877  0.00  0.00     0.110 C 
ATOM     20  H14 MOL d          14.160  14.688  40.707  0.00  0.00     0.090 H 
ATOM     21  CV1 MOL d          15.408  15.869  38.498  0.00  0.00     0.159 C 
ATOM     22  H13 MOL d          16.674  16.337  40.161  0.00  0.00     0.094 H 
ATOM     23  OV5 MOL d          14.621  17.089  38.571  0.00  0.00    -0.351 OA
ATOM     24  H12 MOL d          16.261  16.045  37.827  0.00  0.00     0.133 H 
ATOM     25  CV5 MOL d          13.527  17.077  39.561  0.00  0.00     0.068 C 
ATOM     26  H16 MOL d          12.830  16.258  39.330  0.00  0.00     0.086 H 
ATOM     27  H15 MOL d          14.865  17.652  41.215  0.00  0.00     0.092 H 
BRANCH  18  28
ATOM     28  OV3 MOL d          15.494  15.218  42.183  0.00  0.00    -0.391 OA
ATOM     29  H21 MOL d          16.428  15.375  42.113  0.00  0.00     0.210 HD
ENDBRANCH  18  28
BRANCH  19  30
ATOM     30  OV2 MOL d          16.684  14.328  39.792  0.00  0.00    -0.388 OA
ATOM     31  H20 MOL d          16.854  14.125  38.880  0.00  0.00     0.210 HD
ENDBRANCH  19  30
BRANCH  21  32
ATOM     32  OR4 MOL d          14.638  14.856  37.939  0.00  0.00    -0.348 OA
BRANCH  32  33
ATOM     33  CR4 MOL d          15.025  14.471  36.621  0.00  0.00     0.096 C 
ATOM     34  CR3 MOL d          16.357  13.683  36.706  0.00  0.00     0.092 C 
ATOM     35  CR2 MOL d          16.767  13.261  35.290  0.00  0.00     0.110 C 
ATOM     36  H3  MOL d          16.226  12.797  37.344  0.00  0.00     0.091 H 
ATOM     37  CR1 MOL d          15.662  12.363  34.669  0.00  0.00     0.156 C 
ATOM     38  H2  MOL d          16.902  14.159  34.671  0.00  0.00     0.094 H 
ATOM     39  OR5 MOL d          14.371  13.096  34.654  0.00  0.00    -0.349 OA
ATOM     40  H1  MOL d          15.948  12.133  33.632  0.00  0.00     0.133 H 
ATOM     41  CR5 MOL d          13.909  13.520  35.981  0.00  0.00     0.089 C 
ATOM     42  H5  MOL d          13.779  12.637  36.624  0.00  0.00     0.090 H 
ATOM     43  H4  MOL d          15.155  15.366  35.996  0.00  0.00     0.091 H 
BRANCH  34  44
ATOM     44  OR3 MOL d          17.376  14.505  37.229  0.00  0.00    -0.390 OA
ATOM     45  H10 MOL d          18.199  14.297  36.803  0.00  0.00     0.210 HD
ENDBRANCH  34  44
BRANCH  35  46
ATOM     46  OR2 MOL d          17.974  12.531  35.321  0.00  0.00    -0.388 OA
ATOM     47  H9  MOL d          18.008  11.943  34.576  0.00  0.00     0.210 HD
ENDBRANCH  35  46
BRANCH  37  48
ATOM     48  OR1 MOL d          15.512  11.140  35.369  0.00  0.00    -0.369 OA
ATOM     49  H8  MOL d          14.594  11.003  35.571  0.00  0.00     0.212 HD
ENDBRANCH  37  48
BRANCH  41  50
ATOM     50  CR6 MOL d          12.645  14.188  35.854  0.00  0.00     0.043 C 
ATOM     51  H6  MOL d          11.906  13.666  36.480  0.00  0.00     0.078 H 
ATOM     52  H7  MOL d          12.330  14.147  34.801  0.00  0.00     0.078 H 
BRANCH  50  53
ATOM     53  OR6 MOL d          12.704  15.551  36.260  0.00  0.00    -0.398 OA
ATOM     54  H11 MOL d          11.939  15.758  36.782  0.00  0.00     0.209 HD
ENDBRANCH  50  53
ENDBRANCH  41  50
ENDBRANCH  32  33
ENDBRANCH  21  32
BRANCH  25  55
ATOM     55  CV6 MOL d          12.777  18.400  39.520  0.00  0.00    -0.050 C 
ATOM     56  H17 MOL d          13.033  18.938  38.595  0.00  0.00     0.031 H 
ATOM     57  H18 MOL d          13.060  19.010  40.390  0.00  0.00     0.031 H 
ATOM     58  H19 MOL d          11.694  18.208  39.543  0.00  0.00     0.031 H 
ENDBRANCH  25  55
ENDBRANCH  14  17
ENDBRANCH   1  14
BRANCH   2  59
ATOM     59  OY2 MOL d          13.921  15.046  44.147  0.00  0.00    -0.391 OA
ATOM     60  H47 MOL d          14.792  15.172  44.505  0.00  0.00     0.210 HD
ENDBRANCH   2  59
BRANCH   3  61
ATOM     61  OY3 MOL d          11.352  14.676  45.339  0.00  0.00    -0.390 OA
ATOM     62  H49 MOL d          10.695  14.943  45.972  0.00  0.00     0.210 HD
ENDBRANCH   3  61
BRANCH   5  63
ATOM     63  CY7 MOL d          10.461  19.545  44.739  0.00  0.00     0.022 C 
ATOM     64  H54 MOL d           9.531  19.268  45.256  0.00  0.00     0.074 H 
ATOM     65  H55 MOL d          10.236  20.268  43.941  0.00  0.00     0.074 H 
BRANCH  63  66
ATOM     66  OY7 MOL d          11.372  20.150  45.687  0.00  0.00    -0.400 OA
ATOM     67  H56 MOL d          11.355  21.095  45.582  0.00  0.00     0.209 HD
ENDBRANCH  63  66
ENDBRANCH   5  63
BRANCH   4  68
ATOM     68  OY4 MOL d           9.336  16.742  44.275  0.00  0.00    -0.350 OA
BRANCH  68  69
ATOM     69  CQ1 MOL d           9.090  15.421  43.848  0.00  0.00     0.159 C 
ATOM     70  CQ2 MOL d           9.236  15.335  42.312  0.00  0.00     0.110 C 
ATOM     71  CQ3 MOL d           8.032  15.980  41.562  0.00  0.00     0.092 C 
ATOM     72  H25 MOL d           9.304  14.275  42.026  0.00  0.00     0.094 H 
ATOM     73  CQ4 MOL d           6.738  15.293  42.005  0.00  0.00     0.096 C 
ATOM     74  H26 MOL d           7.972  17.053  41.796  0.00  0.00     0.091 H 
ATOM     75  CQ5 MOL d           6.620  15.584  43.562  0.00  0.00     0.089 C 
ATOM     76  H27 MOL d           6.783  14.211  41.810  0.00  0.00     0.091 H 
ATOM     77  OQ5 MOL d           7.758  15.017  44.257  0.00  0.00    -0.348 OA
ATOM     78  H28 MOL d           6.604  16.674  43.709  0.00  0.00     0.090 H 
ATOM     79  H24 MOL d           9.826  14.750  44.314  0.00  0.00     0.133 H 
BRANCH  70  80
ATOM     80  OQ2 MOL d          10.421  16.003  41.918  0.00  0.00    -0.388 OA
ATOM     81  H31 MOL d          11.010  15.383  41.504  0.00  0.00     0.210 HD
ENDBRANCH  70  80
BRANCH  71  82
ATOM     82  OQ3 MOL d           8.262  15.806  40.162  0.00  0.00    -0.390 OA
ATOM     83  H32 MOL d           9.161  16.035  39.959  0.00  0.00     0.210 HD
ENDBRANCH  71  82
BRANCH  73  84
ATOM     84  OQ4 MOL d           5.645  15.854  41.336  0.00  0.00    -0.348 OA
BRANCH  84  85
ATOM     85  CW1 MOL d           4.947  14.860  40.570  0.00  0.00     0.159 C 
ATOM     86  CW2 MOL d           4.817  15.234  39.075  0.00  0.00     0.110 C 
ATOM     87  CW3 MOL d           3.947  16.513  38.950  0.00  0.00     0.092 C 
ATOM     88  H35 MOL d           4.335  14.412  38.523  0.00  0.00     0.094 H 
ATOM     89  CW4 MOL d           2.559  16.185  39.528  0.00  0.00     0.090 C 
ATOM     90  H36 MOL d           4.406  17.345  39.503  0.00  0.00     0.091 H 
ATOM     91  CW5 MOL d           2.725  15.798  41.049  0.00  0.00     0.089 C 
ATOM     92  H37 MOL d           2.112  15.346  38.974  0.00  0.00     0.091 H 
ATOM     93  OW5 MOL d           3.605  14.643  41.137  0.00  0.00    -0.348 OA
ATOM     94  H38 MOL d           3.165  16.644  41.597  0.00  0.00     0.090 H 
ATOM     95  H34 MOL d           5.514  13.919  40.639  0.00  0.00     0.133 H 
BRANCH  86  96
ATOM     96  OW2 MOL d           6.113  15.443  38.565  0.00  0.00    -0.388 OA
ATOM     97  H41 MOL d           6.214  14.964  37.752  0.00  0.00     0.210 HD
ENDBRANCH  86  96
BRANCH  87  98
ATOM     98  OW3 MOL d           3.818  16.848  37.588  0.00  0.00    -0.390 OA
ATOM     99  H42 MOL d           3.235  16.229  37.164  0.00  0.00     0.210 HD
ENDBRANCH  87  98
BRANCH  89 100
ATOM    100  OW4 MOL d           1.724  17.327  39.425  0.00  0.00    -0.390 OA
ATOM    101  H43 MOL d           1.164  17.377  40.191  0.00  0.00     0.210 HD
ENDBRANCH  89 100
BRANCH  91 102
ATOM    102  CW6 MOL d           1.363  15.437  41.674  0.00  0.00     0.043 C 
ATOM    103  H39 MOL d           0.569  15.641  40.940  0.00  0.00     0.078 H 
ATOM    104  H40 MOL d           1.205  16.058  42.568  0.00  0.00     0.078 H 
BRANCH 102 105
ATOM    105  OW6 MOL d           1.301  14.086  42.044  0.00  0.00    -0.398 OA
ATOM    106  H44 MOL d           1.855  13.575  41.466  0.00  0.00     0.209 HD
ENDBRANCH 102 105
ENDBRANCH  91 102
ENDBRANCH  84  85
ENDBRANCH  73  84
BRANCH  75 107
ATOM    107  CQ6 MOL d           5.373  14.983  44.202  0.00  0.00     0.043 C 
ATOM    108  H29 MOL d           5.161  14.010  43.734  0.00  0.00     0.078 H 
ATOM    109  H30 MOL d           4.522  15.661  44.039  0.00  0.00     0.078 H 
BRANCH 107 110
ATOM    110  OQ6 MOL d           5.559  14.800  45.587  0.00  0.00    -0.398 OA
ATOM    111  H33 MOL d           6.487  14.839  45.788  0.00  0.00     0.209 HD
ENDBRANCH 107 110
ENDBRANCH  75 107
ENDBRANCH  68  69
ENDBRANCH   4  68
TORSDOF 29
ENDMDL
MODEL 3
REMARK VINA RESULT:      -6.0      2.378      8.466
REMARK  29 active torsions:
REMARK  status: ('A' for Active; 'I' for Inactive)
REMARK    1  A    between atoms: CR1_1  and  OR1_7 
REMARK    2  A    between atoms: CR2_2  and  OR2_8 
REMARK    3  A    between atoms: CR3_3  and  OR3_9 
REMARK    4  A    between atoms: OR4_10  and  CR4_4 
REMARK    5  A    between atoms: CR5_5  and  CR6_6 
REMARK    6  A    between atoms: CR6_6  and  OR6_12 
REMARK    7  A    between atoms: CV1_13  and  OR4_10 
REMARK    8  A    between atoms: CV2_14  and  OV2_19 
REMARK    9  A    between atoms: CV3_15  and  OV3_20 
REMARK   10  A    between atoms: NV4_21  and  CV4_16 
REMARK   11  A    between atoms: CV5_17  and  CV6_18 
REMARK   12  A    between atoms: CY1_45  and  NV4_21 
REMARK   13  A    between atoms: OY4_51  and  CQ1_23 
REMARK   14  A    between atoms: CQ2_24  and  OQ2_29 
REMARK   15  A    between atoms: CQ3_25  and  OQ3_30 
REMARK   16  A    between atoms: CQ4_26  and  OQ4_31 
REMARK   17  A    between atoms: CQ5_27  and  CQ6_28 
REMARK   18  A    between atoms: CQ6_28  and  OQ6_33 
REMARK   19  A    between atoms: OQ4_31  and  CW1_34 
REMARK   20  A    between atoms: CW2_35  and  OW2_40 
REMARK   21  A    between atoms: CW3_36  and  OW3_41 
REMARK   22  A    between atoms: CW4_37  and  OW4_42 
REMARK   23  A    between atoms: CW5_38  and  CW6_39 
REMARK   24  A    between atoms: CW6_39  and  OW6_44 
REMARK   25  A    between atoms: CY2_46  and  OY2_47 
REMARK   26  A    between atoms: CY3_48  and  OY3_49 
REMARK   27  A    between atoms: CY4_50  and  OY4_51 
REMARK   28  A    between atoms: CY5_52  and  CY7_54 
REMARK   29  A    between atoms: CY7_54  and  OY7_55 
ROOT
ATOM      1  CY1 MOL d          14.214  15.220  38.123  0.00  0.00     0.130 C 
ATOM      2  CY2 MOL d          13.953  14.945  36.590  0.00  0.00     0.090 C 
ATOM      3  CY3 MOL d          12.673  15.763  36.107  0.00  0.00     0.087 C 
ATOM      4  CY4 MOL d          11.373  15.394  36.981  0.00  0.00     0.074 C 
ATOM      5  CY5 MOL d          11.686  15.253  38.472  0.00  0.00    -0.004 C 
ATOM      6  CY6 MOL d          12.884  14.722  38.798  0.00  0.00    -0.028 C 
ATOM      7  H45 MOL d          15.054  14.615  38.493  0.00  0.00     0.088 H 
ATOM      8  H46 MOL d          13.760  13.871  36.454  0.00  0.00     0.090 H 
ATOM      9  H48 MOL d          12.884  16.833  36.246  0.00  0.00     0.091 H 
ATOM     10  H50 MOL d          10.936  14.460  36.599  0.00  0.00     0.088 H 
ATOM     11  H51 MOL d          11.707  16.284  38.854  0.00  0.00     0.047 H 
ATOM     12  H52 MOL d          13.009  14.876  39.880  0.00  0.00     0.036 H 
ATOM     13  H53 MOL d          12.814  13.644  38.588  0.00  0.00     0.036 H 
ENDROOT
BRANCH   1  14
ATOM     14  NV4 MOL d          14.579  16.702  38.301  0.00  0.00    -0.059 N 
ATOM     15  H22 MOL d          15.576  16.771  38.167  0.00  0.00     0.278 HD
ATOM     16  H23 MOL d          14.105  17.206  37.568  0.00  0.00     0.278 HD
BRANCH  14  17
ATOM     17  CV4 MOL d          14.273  17.408  39.565  0.00  0.00     0.153 C 
ATOM     18  CV3 MOL d          12.842  17.989  39.506  0.00  0.00     0.094 C 
ATOM     19  CV2 MOL d          12.552  18.717  40.816  0.00  0.00     0.110 C 
ATOM     20  H14 MOL d          12.119  17.174  39.360  0.00  0.00     0.090 H 
ATOM     21  CV1 MOL d          12.690  17.800  42.026  0.00  0.00     0.159 C 
ATOM     22  H13 MOL d          13.285  19.532  40.914  0.00  0.00     0.094 H 
ATOM     23  OV5 MOL d          13.997  17.164  42.007  0.00  0.00    -0.351 OA
ATOM     24  H12 MOL d          12.622  18.429  42.926  0.00  0.00     0.133 H 
ATOM     25  CV5 MOL d          14.316  16.412  40.778  0.00  0.00     0.068 C 
ATOM     26  H16 MOL d          13.570  15.618  40.628  0.00  0.00     0.086 H 
ATOM     27  H15 MOL d          15.004  18.217  39.717  0.00  0.00     0.092 H 
BRANCH  18  28
ATOM     28  OV3 MOL d          12.730  18.918  38.454  0.00  0.00    -0.391 OA
ATOM     29  H21 MOL d          12.176  18.557  37.772  0.00  0.00     0.210 HD
ENDBRANCH  18  28
BRANCH  19  30
ATOM     30  OV2 MOL d          11.260  19.281  40.827  0.00  0.00    -0.388 OA
ATOM     31  H20 MOL d          10.664  18.714  40.352  0.00  0.00     0.210 HD
ENDBRANCH  19  30
BRANCH  21  32
ATOM     32  OR4 MOL d          11.704  16.826  42.120  0.00  0.00    -0.348 OA
BRANCH  32  33
ATOM     33  CR4 MOL d          10.866  16.935  43.270  0.00  0.00     0.096 C 
ATOM     34  CR3 MOL d           9.387  16.947  42.807  0.00  0.00     0.092 C 
ATOM     35  CR2 MOL d           8.487  17.055  44.044  0.00  0.00     0.110 C 
ATOM     36  H3  MOL d           9.163  16.025  42.252  0.00  0.00     0.091 H 
ATOM     37  CR1 MOL d           8.736  15.842  44.981  0.00  0.00     0.156 C 
ATOM     38  H2  MOL d           8.720  17.987  44.579  0.00  0.00     0.094 H 
ATOM     39  OR5 MOL d          10.169  15.792  45.366  0.00  0.00    -0.349 OA
ATOM     40  H1  MOL d           8.131  15.980  45.890  0.00  0.00     0.133 H 
ATOM     41  CR5 MOL d          11.091  15.675  44.230  0.00  0.00     0.089 C 
ATOM     42  H5  MOL d          10.868  14.755  43.670  0.00  0.00     0.090 H 
ATOM     43  H4  MOL d          11.099  17.863  43.813  0.00  0.00     0.091 H 
BRANCH  34  44
ATOM     44  OR3 MOL d           9.143  18.070  41.990  0.00  0.00    -0.390 OA
ATOM     45  H10 MOL d           9.655  17.999  41.194  0.00  0.00     0.210 HD
ENDBRANCH  34  44
BRANCH  35  46
ATOM     46  OR2 MOL d           7.128  17.061  43.668  0.00  0.00    -0.388 OA
ATOM     47  H9  MOL d           6.952  17.823  43.128  0.00  0.00     0.210 HD
ENDBRANCH  35  46
BRANCH  37  48
ATOM     48  OR1 MOL d           8.358  14.615  44.379  0.00  0.00    -0.369 OA
ATOM     49  H8  MOL d           9.128  14.191  44.019  0.00  0.00     0.212 HD
ENDBRANCH  37  48
BRANCH  41  50
ATOM     50  CR6 MOL d          12.439  15.605  44.716  0.00  0.00     0.043 C 
ATOM     51  H6  MOL d          12.435  15.105  45.696  0.00  0.00     0.078 H 
ATOM     52  H7  MOL d          12.827  16.628  44.826  0.00  0.00     0.078 H 
BRANCH  50  53
ATOM     53  OR6 MOL d          13.298  14.884  43.840  0.00  0.00    -0.398 OA
ATOM     54  H11 MOL d          13.503  15.423  43.086  0.00  0.00     0.209 HD
ENDBRANCH  50  53
ENDBRANCH  41  50
ENDBRANCH  32  33
ENDBRANCH  21  32
BRANCH  25  55
ATOM     55  CV6 MOL d          15.697  15.785  40.899  0.00  0.00    -0.050 C 
ATOM     56  H17 MOL d          16.005  15.777  41.956  0.00  0.00     0.031 H 
ATOM     57  H18 MOL d          16.419  16.370  40.311  0.00  0.00     0.031 H 
ATOM     58  H19 MOL d          15.665  14.753  40.519  0.00  0.00     0.031 H 
ENDBRANCH  25  55
ENDBRANCH  14  17
ENDBRANCH   1  14
BRANCH   2  59
ATOM     59  OY2 MOL d          15.055  15.296  35.820  0.00  0.00    -0.391 OA
ATOM     60  H47 MOL d          15.230  16.225  35.924  0.00  0.00     0.210 HD
ENDBRANCH   2  59
BRANCH   3  61
ATOM     61  OY3 MOL d          12.420  15.541  34.745  0.00  0.00    -0.390 OA
ATOM     62  H49 MOL d          11.677  16.066  34.474  0.00  0.00     0.210 HD
ENDBRANCH   3  61
BRANCH   5  63
ATOM     63  CY7 MOL d          10.571  14.515  39.261  0.00  0.00     0.022 C 
ATOM     64  H54 MOL d          10.401  13.526  38.810  0.00  0.00     0.074 H 
ATOM     65  H55 MOL d           9.643  15.104  39.215  0.00  0.00     0.074 H 
BRANCH  63  66
ATOM     66  OY7 MOL d          10.961  14.348  40.644  0.00  0.00    -0.400 OA
ATOM     67  H56 MOL d          10.646  13.510  40.962  0.00  0.00     0.209 HD
ENDBRANCH  63  66
ENDBRANCH   5  63
BRANCH   4  68
ATOM     68  OY4 MOL d          10.431  16.457  36.906  0.00  0.00    -0.350 OA
BRANCH  68  69
ATOM     69  CQ1 MOL d           9.404  16.285  35.956  0.00  0.00     0.159 C 
ATOM     70  CQ2 MOL d           8.278  17.310  36.214  0.00  0.00     0.110 C 
ATOM     71  CQ3 MOL d           7.415  16.945  37.461  0.00  0.00     0.092 C 
ATOM     72  H25 MOL d           7.624  17.343  35.330  0.00  0.00     0.094 H 
ATOM     73  CQ4 MOL d           6.819  15.549  37.267  0.00  0.00     0.096 C 
ATOM     74  H26 MOL d           8.038  16.952  38.367  0.00  0.00     0.091 H 
ATOM     75  CQ5 MOL d           8.067  14.570  37.171  0.00  0.00     0.089 C 
ATOM     76  H27 MOL d           6.214  15.505  36.350  0.00  0.00     0.091 H 
ATOM     77  OQ5 MOL d           8.890  14.931  36.035  0.00  0.00    -0.348 OA
ATOM     78  H28 MOL d           8.652  14.667  38.097  0.00  0.00     0.090 H 
ATOM     79  H24 MOL d           9.814  16.453  34.949  0.00  0.00     0.133 H 
BRANCH  70  80
ATOM     80  OQ2 MOL d           8.849  18.589  36.423  0.00  0.00    -0.388 OA
ATOM     81  H31 MOL d           9.708  18.490  36.817  0.00  0.00     0.210 HD
ENDBRANCH  70  80
BRANCH  71  82
ATOM     82  OQ3 MOL d           6.392  17.937  37.574  0.00  0.00    -0.390 OA
ATOM     83  H32 MOL d           6.730  18.687  38.050  0.00  0.00     0.210 HD
ENDBRANCH  71  82
BRANCH  73  84
ATOM     84  OQ4 MOL d           6.034  15.206  38.374  0.00  0.00    -0.348 OA
BRANCH  84  85
ATOM     85  CW1 MOL d           6.236  16.133  39.452  0.00  0.00     0.159 C 
ATOM     86  CW2 MOL d           6.737  15.450  40.747  0.00  0.00     0.110 C 
ATOM     87  CW3 MOL d           5.642  14.478  41.259  0.00  0.00     0.092 C 
ATOM     88  H35 MOL d           6.938  16.209  41.517  0.00  0.00     0.094 H 
ATOM     89  CW4 MOL d           4.388  15.316  41.564  0.00  0.00     0.090 C 
ATOM     90  H36 MOL d           5.418  13.715  40.499  0.00  0.00     0.091 H 
ATOM     91  CW5 MOL d           3.907  16.007  40.229  0.00  0.00     0.089 C 
ATOM     92  H37 MOL d           4.623  16.080  42.318  0.00  0.00     0.091 H 
ATOM     93  OW5 MOL d           4.982  16.852  39.735  0.00  0.00    -0.348 OA
ATOM     94  H38 MOL d           3.666  15.236  39.483  0.00  0.00     0.090 H 
ATOM     95  H34 MOL d           6.996  16.863  39.135  0.00  0.00     0.133 H 
BRANCH  86  96
ATOM     96  OW2 MOL d           7.929  14.765  40.442  0.00  0.00    -0.388 OA
ATOM     97  H41 MOL d           7.823  13.842  40.642  0.00  0.00     0.210 HD
ENDBRANCH  86  96
BRANCH  87  98
ATOM     98  OW3 MOL d           6.092  13.863  42.444  0.00  0.00    -0.390 OA
ATOM     99  H42 MOL d           5.360  13.441  42.878  0.00  0.00     0.210 HD
ENDBRANCH  87  98
BRANCH  89 100
ATOM    100  OW4 MOL d           3.360  14.466  42.046  0.00  0.00    -0.390 OA
ATOM    101  H43 MOL d           3.432  13.616  41.629  0.00  0.00     0.210 HD
ENDBRANCH  89 100
BRANCH  91 102
ATOM    102  CW6 MOL d           2.661  16.880  40.483  0.00  0.00     0.043 C 
ATOM    103  H39 MOL d           2.955  17.753  41.084  0.00  0.00     0.078 H 
ATOM    104  H40 MOL d           1.918  16.287  41.036  0.00  0.00     0.078 H 
BRANCH 102 105
ATOM    105  OW6 MOL d           2.086  17.327  39.285  0.00  0.00    -0.398 OA
ATOM    106  H44 MOL d           2.062  16.611  38.660  0.00  0.00     0.209 HD
ENDBRANCH 102 105
ENDBRANCH  91 102
ENDBRANCH  84  85
ENDBRANCH  73  84
BRANCH  75 107
ATOM    107  CQ6 MOL d           7.680  13.107  36.984  0.00  0.00     0.043 C 
ATOM    108  H29 MOL d           8.591  12.508  36.837  0.00  0.00     0.078 H 
ATOM    109  H30 MOL d           7.035  13.015  36.097  0.00  0.00     0.078 H 
BRANCH 107 110
ATOM    110  OQ6 MOL d           6.986  12.624  38.112  0.00  0.00    -0.398 OA
ATOM    111  H33 MOL d           7.438  12.899  38.901  0.00  0.00     0.209 HD
ENDBRANCH 107 110
ENDBRANCH  75 107
ENDBRANCH  68  69
ENDBRANCH   4  68
TORSDOF 29
ENDMDL
MODEL 4
REMARK VINA RESULT:      -5.9      1.433      2.115
REMARK  29 active torsions:
REMARK  status: ('A' for Active; 'I' for Inactive)
REMARK    1  A    between atoms: CR1_1  and  OR1_7 
REMARK    2  A    between atoms: CR2_2  and  OR2_8 
REMARK    3  A    between atoms: CR3_3  and  OR3_9 
REMARK    4  A    between atoms: OR4_10  and  CR4_4 
REMARK    5  A    between atoms: CR5_5  and  CR6_6 
REMARK    6  A    between atoms: CR6_6  and  OR6_12 
REMARK    7  A    between atoms: CV1_13  and  OR4_10 
REMARK    8  A    between atoms: CV2_14  and  OV2_19 
REMARK    9  A    between atoms: CV3_15  and  OV3_20 
REMARK   10  A    between atoms: NV4_21  and  CV4_16 
REMARK   11  A    between atoms: CV5_17  and  CV6_18 
REMARK   12  A    between atoms: CY1_45  and  NV4_21 
REMARK   13  A    between atoms: OY4_51  and  CQ1_23 
REMARK   14  A    between atoms: CQ2_24  and  OQ2_29 
REMARK   15  A    between atoms: CQ3_25  and  OQ3_30 
REMARK   16  A    between atoms: CQ4_26  and  OQ4_31 
REMARK   17  A    between atoms: CQ5_27  and  CQ6_28 
REMARK   18  A    between atoms: CQ6_28  and  OQ6_33 
REMARK   19  A    between atoms: OQ4_31  and  CW1_34 
REMARK   20  A    between atoms: CW2_35  and  OW2_40 
REMARK   21  A    between atoms: CW3_36  and  OW3_41 
REMARK   22  A    between atoms: CW4_37  and  OW4_42 
REMARK   23  A    between atoms: CW5_38  and  CW6_39 
REMARK   24  A    between atoms: CW6_39  and  OW6_44 
REMARK   25  A    between atoms: CY2_46  and  OY2_47 
REMARK   26  A    between atoms: CY3_48  and  OY3_49 
REMARK   27  A    between atoms: CY4_50  and  OY4_51 
REMARK   28  A    between atoms: CY5_52  and  CY7_54 
REMARK   29  A    between atoms: CY7_54  and  OY7_55 
ROOT
ATOM      1  CY1 MOL d          10.852  17.519  44.334  0.00  0.00     0.130 C 
ATOM      2  CY2 MOL d          11.785  18.627  43.704  0.00  0.00     0.090 C 
ATOM      3  CY3 MOL d          11.877  18.420  42.127  0.00  0.00     0.087 C 
ATOM      4  CY4 MOL d          12.409  16.948  41.755  0.00  0.00     0.074 C 
ATOM      5  CY5 MOL d          11.805  15.861  42.645  0.00  0.00    -0.004 C 
ATOM      6  CY6 MOL d          11.579  16.183  43.937  0.00  0.00    -0.028 C 
ATOM      7  H45 MOL d          10.827  17.603  45.430  0.00  0.00     0.088 H 
ATOM      8  H46 MOL d          12.792  18.523  44.135  0.00  0.00     0.090 H 
ATOM      9  H48 MOL d          10.864  18.531  41.713  0.00  0.00     0.091 H 
ATOM     10  H50 MOL d          13.506  16.932  41.832  0.00  0.00     0.088 H 
ATOM     11  H51 MOL d          10.814  15.661  42.213  0.00  0.00     0.047 H 
ATOM     12  H52 MOL d          10.979  15.365  44.361  0.00  0.00     0.036 H 
ATOM     13  H53 MOL d          12.564  16.207  44.428  0.00  0.00     0.036 H 
ENDROOT
BRANCH   1  14
ATOM     14  NV4 MOL d           9.423  17.724  43.807  0.00  0.00    -0.059 N 
ATOM     15  H22 MOL d           8.823  17.774  44.615  0.00  0.00     0.278 HD
ATOM     16  H23 MOL d           9.417  18.610  43.328  0.00  0.00     0.278 HD
BRANCH  14  17
ATOM     17  CV4 MOL d           8.810  16.741  42.886  0.00  0.00     0.153 C 
ATOM     18  CV3 MOL d           7.712  15.945  43.626  0.00  0.00     0.094 C 
ATOM     19  CV2 MOL d           7.099  14.935  42.659  0.00  0.00     0.110 C 
ATOM     20  H14 MOL d           6.938  16.635  43.991  0.00  0.00     0.090 H 
ATOM     21  CV1 MOL d           6.509  15.607  41.425  0.00  0.00     0.159 C 
ATOM     22  H13 MOL d           7.902  14.257  42.333  0.00  0.00     0.094 H 
ATOM     23  OV5 MOL d           7.515  16.451  40.803  0.00  0.00    -0.351 OA
ATOM     24  H12 MOL d           6.234  14.812  40.716  0.00  0.00     0.133 H 
ATOM     25  CV5 MOL d           8.115  17.472  41.682  0.00  0.00     0.068 C 
ATOM     26  H16 MOL d           7.328  18.139  42.062  0.00  0.00     0.086 H 
ATOM     27  H15 MOL d           9.586  16.057  42.512  0.00  0.00     0.092 H 
BRANCH  18  28
ATOM     28  OV3 MOL d           8.264  15.234  44.710  0.00  0.00    -0.391 OA
ATOM     29  H21 MOL d           7.592  14.693  45.107  0.00  0.00     0.210 HD
ENDBRANCH  18  28
BRANCH  19  30
ATOM     30  OV2 MOL d           6.091  14.165  43.275  0.00  0.00    -0.388 OA
ATOM     31  H20 MOL d           5.859  13.439  42.708  0.00  0.00     0.210 HD
ENDBRANCH  19  30
BRANCH  21  32
ATOM     32  OR4 MOL d           5.367  16.358  41.674  0.00  0.00    -0.348 OA
BRANCH  32  33
ATOM     33  CR4 MOL d           4.338  16.221  40.695  0.00  0.00     0.096 C 
ATOM     34  CR3 MOL d           4.997  16.006  39.308  0.00  0.00     0.092 C 
ATOM     35  CR2 MOL d           3.891  15.850  38.258  0.00  0.00     0.110 C 
ATOM     36  H3  MOL d           5.629  15.107  39.332  0.00  0.00     0.091 H 
ATOM     37  CR1 MOL d           2.999  14.629  38.613  0.00  0.00     0.156 C 
ATOM     38  H2  MOL d           3.277  16.762  38.244  0.00  0.00     0.094 H 
ATOM     39  OR5 MOL d           2.425  14.806  39.971  0.00  0.00    -0.349 OA
ATOM     40  H1  MOL d           2.175  14.582  37.886  0.00  0.00     0.133 H 
ATOM     41  CR5 MOL d           3.430  14.948  41.031  0.00  0.00     0.089 C 
ATOM     42  H5  MOL d           4.067  14.051  41.057  0.00  0.00     0.090 H 
ATOM     43  H4  MOL d           3.717  17.128  40.680  0.00  0.00     0.091 H 
BRANCH  34  44
ATOM     44  OR3 MOL d           5.775  17.130  38.960  0.00  0.00    -0.390 OA
ATOM     45  H10 MOL d           5.328  17.626  38.285  0.00  0.00     0.210 HD
ENDBRANCH  34  44
BRANCH  35  46
ATOM     46  OR2 MOL d           4.448  15.644  36.979  0.00  0.00    -0.388 OA
ATOM     47  H9  MOL d           5.155  16.263  36.838  0.00  0.00     0.210 HD
ENDBRANCH  35  46
BRANCH  37  48
ATOM     48  OR1 MOL d           3.717  13.408  38.550  0.00  0.00    -0.369 OA
ATOM     49  H8  MOL d           3.895  13.194  37.642  0.00  0.00     0.212 HD
ENDBRANCH  37  48
BRANCH  41  50
ATOM     50  CR6 MOL d           2.770  15.081  42.298  0.00  0.00     0.043 C 
ATOM     51  H6  MOL d           1.739  14.709  42.200  0.00  0.00     0.078 H 
ATOM     52  H7  MOL d           2.751  16.145  42.575  0.00  0.00     0.078 H 
BRANCH  50  53
ATOM     53  OR6 MOL d           3.421  14.352  43.333  0.00  0.00    -0.398 OA
ATOM     54  H11 MOL d           3.186  14.721  44.175  0.00  0.00     0.209 HD
ENDBRANCH  50  53
ENDBRANCH  41  50
ENDBRANCH  32  33
ENDBRANCH  21  32
BRANCH  25  55
ATOM     55  CV6 MOL d           9.132  18.293  40.903  0.00  0.00    -0.050 C 
ATOM     56  H17 MOL d           9.033  19.355  41.176  0.00  0.00     0.031 H 
ATOM     57  H18 MOL d           8.952  18.174  39.825  0.00  0.00     0.031 H 
ATOM     58  H19 MOL d          10.147  17.946  41.145  0.00  0.00     0.031 H 
ENDBRANCH  25  55
ENDBRANCH  14  17
ENDBRANCH   1  14
BRANCH   2  59
ATOM     59  OY2 MOL d          11.314  19.903  43.987  0.00  0.00    -0.391 OA
ATOM     60  H47 MOL d          10.578  19.843  44.585  0.00  0.00     0.210 HD
ENDBRANCH   2  59
BRANCH   3  61
ATOM     61  OY3 MOL d          12.697  19.395  41.540  0.00  0.00    -0.390 OA
ATOM     62  H49 MOL d          13.019  19.982  42.213  0.00  0.00     0.210 HD
ENDBRANCH   3  61
BRANCH   5  63
ATOM     63  CY7 MOL d          12.588  14.521  42.585  0.00  0.00     0.022 C 
ATOM     64  H54 MOL d          12.080  13.835  41.892  0.00  0.00     0.074 H 
ATOM     65  H55 MOL d          12.617  14.072  43.589  0.00  0.00     0.074 H 
BRANCH  63  66
ATOM     66  OY7 MOL d          13.940  14.749  42.125  0.00  0.00    -0.400 OA
ATOM     67  H56 MOL d          13.938  14.864  41.181  0.00  0.00     0.209 HD
ENDBRANCH  63  66
ENDBRANCH   5  63
BRANCH   4  68
ATOM     68  OY4 MOL d          11.994  16.611  40.436  0.00  0.00    -0.350 OA
BRANCH  68  69
ATOM     69  CQ1 MOL d          12.822  17.093  39.403  0.00  0.00     0.159 C 
ATOM     70  CQ2 MOL d          12.065  17.034  38.057  0.00  0.00     0.110 C 
ATOM     71  CQ3 MOL d          11.940  15.581  37.507  0.00  0.00     0.092 C 
ATOM     72  H25 MOL d          12.610  17.645  37.322  0.00  0.00     0.094 H 
ATOM     73  CQ4 MOL d          13.340  14.983  37.348  0.00  0.00     0.096 C 
ATOM     74  H26 MOL d          11.358  14.962  38.204  0.00  0.00     0.091 H 
ATOM     75  CQ5 MOL d          13.953  14.953  38.813  0.00  0.00     0.089 C 
ATOM     76  H27 MOL d          13.956  15.601  36.677  0.00  0.00     0.091 H 
ATOM     77  OQ5 MOL d          14.035  16.299  39.341  0.00  0.00    -0.348 OA
ATOM     78  H28 MOL d          13.293  14.346  39.450  0.00  0.00     0.090 H 
ATOM     79  H24 MOL d          13.091  18.139  39.615  0.00  0.00     0.133 H 
BRANCH  70  80
ATOM     80  OQ2 MOL d          10.763  17.562  38.232  0.00  0.00    -0.388 OA
ATOM     81  H31 MOL d          10.129  16.973  37.838  0.00  0.00     0.210 HD
ENDBRANCH  70  80
BRANCH  71  82
ATOM     82  OQ3 MOL d          11.261  15.660  36.252  0.00  0.00    -0.390 OA
ATOM     83  H32 MOL d          11.013  16.561  36.083  0.00  0.00     0.210 HD
ENDBRANCH  71  82
BRANCH  73  84
ATOM     84  OQ4 MOL d          13.249  13.680  36.847  0.00  0.00    -0.348 OA
BRANCH  84  85
ATOM     85  CW1 MOL d          13.271  13.680  35.411  0.00  0.00     0.159 C 
ATOM     86  CW2 MOL d          14.190  12.582  34.823  0.00  0.00     0.110 C 
ATOM     87  CW3 MOL d          15.655  12.876  35.242  0.00  0.00     0.092 C 
ATOM     88  H35 MOL d          14.119  12.583  33.725  0.00  0.00     0.094 H 
ATOM     89  CW4 MOL d          16.037  14.246  34.654  0.00  0.00     0.090 C 
ATOM     90  H36 MOL d          15.746  12.890  36.338  0.00  0.00     0.091 H 
ATOM     91  CW5 MOL d          15.077  15.341  35.263  0.00  0.00     0.089 C 
ATOM     92  H37 MOL d          15.934  14.225  33.559  0.00  0.00     0.091 H 
ATOM     93  OW5 MOL d          13.708  14.996  34.917  0.00  0.00    -0.348 OA
ATOM     94  H38 MOL d          15.192  15.361  36.357  0.00  0.00     0.090 H 
ATOM     95  H34 MOL d          12.246  13.493  35.056  0.00  0.00     0.133 H 
BRANCH  86  96
ATOM     96  OW2 MOL d          13.754  11.339  35.320  0.00  0.00    -0.388 OA
ATOM     97  H41 MOL d          13.735  10.705  34.613  0.00  0.00     0.210 HD
ENDBRANCH  86  96
BRANCH  87  98
ATOM     98  OW3 MOL d          16.494  11.884  34.698  0.00  0.00    -0.390 OA
ATOM     99  H42 MOL d          16.607  11.184  35.331  0.00  0.00     0.210 HD
ENDBRANCH  87  98
BRANCH  89 100
ATOM    100  OW4 MOL d          17.376  14.552  35.005  0.00  0.00    -0.390 OA
ATOM    101  H43 MOL d          17.739  13.838  35.516  0.00  0.00     0.210 HD
ENDBRANCH  89 100
BRANCH  91 102
ATOM    102  CW6 MOL d          15.403  16.734  34.689  0.00  0.00     0.043 C 
ATOM    103  H39 MOL d          15.309  16.699  33.594  0.00  0.00     0.078 H 
ATOM    104  H40 MOL d          16.436  16.999  34.960  0.00  0.00     0.078 H 
BRANCH 102 105
ATOM    105  OW6 MOL d          14.537  17.718  35.187  0.00  0.00    -0.398 OA
ATOM    106  H44 MOL d          15.027  18.514  35.354  0.00  0.00     0.209 HD
ENDBRANCH 102 105
ENDBRANCH  91 102
ENDBRANCH  84  85
ENDBRANCH  73  84
BRANCH  75 107
ATOM    107  CQ6 MOL d          15.362  14.372  38.872  0.00  0.00     0.043 C 
ATOM    108  H29 MOL d          15.811  14.613  39.847  0.00  0.00     0.078 H 
ATOM    109  H30 MOL d          15.969  14.818  38.069  0.00  0.00     0.078 H 
BRANCH 107 110
ATOM    110  OQ6 MOL d          15.334  12.973  38.708  0.00  0.00    -0.398 OA
ATOM    111  H33 MOL d          15.016  12.763  37.838  0.00  0.00     0.209 HD
ENDBRANCH 107 110
ENDBRANCH  75 107
ENDBRANCH  68  69
ENDBRANCH   4  68
TORSDOF 29
ENDMDL
