MODEL 1
REMARK VINA RESULT:      -9.9      0.000      0.000
REMARK  11 active torsions:
REMARK  status: ('A' for Active; 'I' for Inactive)
REMARK    1  A    between atoms: C1_1  and  O8_8 
REMARK    2  A    between atoms: C2_2  and  O9_9 
REMARK    3  A    between atoms: C3_3  and  S7_7 
REMARK    4  A    between atoms: C5_5  and  C6_6 
REMARK    5  A    between atoms: S7_7  and  C11_11 
REMARK    6  A    between atoms: C10_10  and  C12_12 
REMARK    7  A    between atoms: C12_12  and  N13_13 
REMARK       I    between atoms: N13_13  and  C14_14 
REMARK    8  A    between atoms: C14_14  and  C15_15 
REMARK    9  A    between atoms: C16_16  and  O22_22 
REMARK   10  A    between atoms: C17_17  and  O23_23 
REMARK   11  A    between atoms: C19_19  and  N21_21 
ROOT
ATOM      1  C6  MOL d          20.554 -30.515  11.126  0.00  0.00    -0.075 C 
ATOM      2  C10 MOL d          20.476 -29.767  10.061  0.00  0.00    -0.087 C 
ATOM      3  H5  MOL d          20.728 -31.585  11.023  0.00  0.00     0.080 H 
ATOM      4  H8  MOL d          20.316 -28.697  10.192  0.00  0.00     0.079 H 
ENDROOT
BRANCH   1   5
ATOM      5  C5  MOL d          20.408 -29.927  12.465  0.00  0.00     0.083 C 
ATOM      6  C1  MOL d          20.614 -31.015  13.564  0.00  0.00     0.091 C 
ATOM      7  C2  MOL d          19.264 -31.734  13.364  0.00  0.00     0.097 C 
ATOM      8  H1  MOL d          21.490 -31.661  13.409  0.00  0.00     0.091 H 
ATOM      9  C3  MOL d          18.273 -30.597  13.096  0.00  0.00     0.115 C 
ATOM     10  H2  MOL d          19.322 -32.411  12.499  0.00  0.00     0.092 H 
ATOM     11  O4  MOL d          19.077 -29.502  12.634  0.00  0.00    -0.361 OA
ATOM     12  H3  MOL d          17.740 -30.316  14.016  0.00  0.00     0.105 H 
ATOM     13  H4  MOL d          21.115 -29.094  12.594  0.00  0.00     0.093 H 
BRANCH   6  14
ATOM     14  O8  MOL d          20.658 -30.356  14.827  0.00  0.00    -0.390 OA
ATOM     15  H6  MOL d          21.278 -30.801  15.393  0.00  0.00     0.210 HD
ENDBRANCH   6  14
BRANCH   7  16
ATOM     16  O9  MOL d          18.843 -32.484  14.510  0.00  0.00    -0.389 OA
ATOM     17  H7  MOL d          19.520 -32.448  15.176  0.00  0.00     0.210 HD
ENDBRANCH   7  16
BRANCH   9  18
ATOM     18  S7  MOL d          17.088 -31.144  11.859  0.00  0.00    -0.095 SA
BRANCH  18  19
ATOM     19  C11 MOL d          15.579 -30.832  12.508  0.00  0.00     0.005 A 
ATOM     20  C27 MOL d          14.422 -31.644  12.156  0.00  0.00    -0.050 A 
ATOM     21  C28 MOL d          13.174 -31.383  12.734  0.00  0.00     0.003 A 
ATOM     22  H16 MOL d          14.527 -32.454  11.443  0.00  0.00     0.087 H 
ATOM     23  N29 MOL d          12.933 -30.371  13.633  0.00  0.00    -0.273 NA
ATOM     24  H17 MOL d          12.343 -32.022  12.455  0.00  0.00     0.114 H 
ATOM     25  C30 MOL d          14.031 -29.588  13.964  0.00  0.00     0.003 A 
ATOM     26  C31 MOL d          15.307 -29.793  13.447  0.00  0.00    -0.050 A 
ATOM     27  H18 MOL d          13.886 -28.773  14.664  0.00  0.00     0.114 H 
ATOM     28  H19 MOL d          16.115 -29.146  13.767  0.00  0.00     0.087 H 
ENDBRANCH  18  19
ENDBRANCH   9  18
ENDBRANCH   1   5
BRANCH   2  29
ATOM     29  C12 MOL d          20.595 -30.301   8.672  0.00  0.00     0.010 C 
ATOM     30  H9  MOL d          19.626 -30.186   8.166  0.00  0.00     0.070 H 
ATOM     31  H10 MOL d          20.857 -31.368   8.727  0.00  0.00     0.070 H 
BRANCH  29  32
ATOM     32  N13 MOL d          21.603 -29.619   7.900  0.00  0.00    -0.353 N 
ATOM     33  C14 MOL d          22.376 -30.157   6.940  0.00  0.00     0.254 C 
ATOM     34  O24 MOL d          22.172 -31.344   6.549  0.00  0.00    -0.268 OA
ATOM     35  H11 MOL d          21.740 -28.648   8.098  0.00  0.00     0.163 HD
BRANCH  33  36
ATOM     36  C15 MOL d          23.493 -29.388   6.334  0.00  0.00     0.070 A 
ATOM     37  C16 MOL d          23.586 -27.975   6.481  0.00  0.00     0.114 A 
ATOM     38  C17 MOL d          24.715 -27.344   5.892  0.00  0.00     0.102 A 
ATOM     39  C18 MOL d          25.684 -27.990   5.177  0.00  0.00    -0.016 A 
ATOM     40  C19 MOL d          25.565 -29.393   5.068  0.00  0.00     0.106 A 
ATOM     41  H12 MOL d          26.504 -27.452   4.717  0.00  0.00     0.091 H 
ATOM     42  C20 MOL d          24.477 -30.087   5.640  0.00  0.00    -0.033 A 
ATOM     43  H13 MOL d          24.406 -31.164   5.538  0.00  0.00     0.089 H 
BRANCH  37  44
ATOM     44  O22 MOL d          22.691 -27.206   7.112  0.00  0.00    -0.357 OA
ATOM     45  H14 MOL d          21.846 -27.639   7.108  0.00  0.00     0.217 HD
ENDBRANCH  37  44
BRANCH  38  46
ATOM     46  O23 MOL d          24.827 -25.972   6.023  0.00  0.00    -0.358 OA
ATOM     47  H15 MOL d          24.252 -25.547   5.397  0.00  0.00     0.217 HD
ENDBRANCH  38  46
BRANCH  40  48
ATOM     48  N21 MOL d          26.554 -30.145   4.328  0.00  0.00    -0.116 N 
ATOM     49  O25 MOL d          26.417 -31.320   4.109  0.00  0.00    -0.532 OA
ATOM     50  O26 MOL d          27.547 -29.532   3.965  0.00  0.00    -0.532 OA
ENDBRANCH  40  48
ENDBRANCH  33  36
ENDBRANCH  29  32
ENDBRANCH   2  29
TORSDOF 11
ENDMDL
MODEL 2
REMARK VINA RESULT:      -8.9      1.070      2.326
REMARK  11 active torsions:
REMARK  status: ('A' for Active; 'I' for Inactive)
REMARK    1  A    between atoms: C1_1  and  O8_8 
REMARK    2  A    between atoms: C2_2  and  O9_9 
REMARK    3  A    between atoms: C3_3  and  S7_7 
REMARK    4  A    between atoms: C5_5  and  C6_6 
REMARK    5  A    between atoms: S7_7  and  C11_11 
REMARK    6  A    between atoms: C10_10  and  C12_12 
REMARK    7  A    between atoms: C12_12  and  N13_13 
REMARK       I    between atoms: N13_13  and  C14_14 
REMARK    8  A    between atoms: C14_14  and  C15_15 
REMARK    9  A    between atoms: C16_16  and  O22_22 
REMARK   10  A    between atoms: C17_17  and  O23_23 
REMARK   11  A    between atoms: C19_19  and  N21_21 
ROOT
ATOM      1  C6  MOL d          20.340 -30.737  10.818  0.00  0.00    -0.075 C 
ATOM      2  C10 MOL d          20.421 -30.078   9.696  0.00  0.00    -0.087 C 
ATOM      3  H5  MOL d          20.316 -31.826  10.805  0.00  0.00     0.080 H 
ATOM      4  H8  MOL d          20.459 -28.991   9.737  0.00  0.00     0.079 H 
ENDROOT
BRANCH   1   5
ATOM      5  C5  MOL d          20.283 -30.024  12.101  0.00  0.00     0.083 C 
ATOM      6  C1  MOL d          20.518 -31.011  13.285  0.00  0.00     0.091 C 
ATOM      7  C2  MOL d          19.141 -31.702  13.223  0.00  0.00     0.097 C 
ATOM      8  H1  MOL d          21.368 -31.696  13.148  0.00  0.00     0.091 H 
ATOM      9  C3  MOL d          18.168 -30.564  12.901  0.00  0.00     0.115 C 
ATOM     10  H2  MOL d          19.134 -32.458  12.424  0.00  0.00     0.092 H 
ATOM     11  O4  MOL d          18.975 -29.542  12.298  0.00  0.00    -0.361 OA
ATOM     12  H3  MOL d          17.693 -30.182  13.816  0.00  0.00     0.105 H 
ATOM     13  H4  MOL d          21.018 -29.205  12.115  0.00  0.00     0.093 H 
BRANCH   6  14
ATOM     14  O8  MOL d          20.649 -30.240  14.477  0.00  0.00    -0.390 OA
ATOM     15  H6  MOL d          20.423 -30.777  15.228  0.00  0.00     0.210 HD
ENDBRANCH   6  14
BRANCH   7  16
ATOM     16  O9  MOL d          18.762 -32.329  14.456  0.00  0.00    -0.389 OA
ATOM     17  H7  MOL d          18.028 -31.861  14.835  0.00  0.00     0.210 HD
ENDBRANCH   7  16
BRANCH   9  18
ATOM     18  S7  MOL d          16.903 -31.185  11.784  0.00  0.00    -0.095 SA
BRANCH  18  19
ATOM     19  C11 MOL d          15.442 -30.851  12.522  0.00  0.00     0.005 A 
ATOM     20  C27 MOL d          14.269 -31.685  12.291  0.00  0.00    -0.050 A 
ATOM     21  C28 MOL d          13.063 -31.404  12.944  0.00  0.00     0.003 A 
ATOM     22  H16 MOL d          14.331 -32.527  11.611  0.00  0.00     0.087 H 
ATOM     23  N29 MOL d          12.878 -30.352  13.810  0.00  0.00    -0.273 NA
ATOM     24  H17 MOL d          12.220 -32.059  12.755  0.00  0.00     0.114 H 
ATOM     25  C30 MOL d          13.990 -29.548  14.025  0.00  0.00     0.003 A 
ATOM     26  C31 MOL d          15.227 -29.770  13.429  0.00  0.00    -0.050 A 
ATOM     27  H18 MOL d          13.887 -28.701  14.695  0.00  0.00     0.114 H 
ATOM     28  H19 MOL d          16.051 -29.105  13.660  0.00  0.00     0.087 H 
ENDBRANCH  18  19
ENDBRANCH   9  18
ENDBRANCH   1   5
BRANCH   2  29
ATOM     29  C12 MOL d          20.463 -30.739   8.358  0.00  0.00     0.010 C 
ATOM     30  H9  MOL d          19.546 -30.481   7.808  0.00  0.00     0.070 H 
ATOM     31  H10 MOL d          20.510 -31.828   8.504  0.00  0.00     0.070 H 
BRANCH  29  32
ATOM     32  N13 MOL d          21.601 -30.330   7.573  0.00  0.00    -0.353 N 
ATOM     33  C14 MOL d          22.280 -31.088   6.693  0.00  0.00     0.254 C 
ATOM     34  O24 MOL d          21.861 -32.245   6.393  0.00  0.00    -0.268 OA
ATOM     35  H11 MOL d          21.916 -29.389   7.695  0.00  0.00     0.163 HD
BRANCH  33  36
ATOM     36  C15 MOL d          23.537 -30.601   6.071  0.00  0.00     0.070 A 
ATOM     37  C16 MOL d          24.490 -31.503   5.518  0.00  0.00     0.114 A 
ATOM     38  C17 MOL d          25.641 -30.927   4.915  0.00  0.00     0.102 A 
ATOM     39  C18 MOL d          25.905 -29.588   4.861  0.00  0.00    -0.016 A 
ATOM     40  C19 MOL d          24.928 -28.725   5.406  0.00  0.00     0.106 A 
ATOM     41  H12 MOL d          26.819 -29.206   4.422  0.00  0.00     0.091 H 
ATOM     42  C20 MOL d          23.754 -29.227   6.009  0.00  0.00    -0.033 A 
ATOM     43  H13 MOL d          23.022 -28.543   6.423  0.00  0.00     0.089 H 
BRANCH  37  44
ATOM     44  O22 MOL d          24.389 -32.837   5.539  0.00  0.00    -0.357 OA
ATOM     45  H14 MOL d          23.575 -33.098   5.126  0.00  0.00     0.217 HD
ENDBRANCH  37  44
BRANCH  38  46
ATOM     46  O23 MOL d          26.579 -31.785   4.371  0.00  0.00    -0.358 OA
ATOM     47  H15 MOL d          26.575 -32.604   4.852  0.00  0.00     0.217 HD
ENDBRANCH  38  46
BRANCH  40  48
ATOM     48  N21 MOL d          25.137 -27.294   5.384  0.00  0.00    -0.116 N 
ATOM     49  O25 MOL d          24.564 -26.562   6.147  0.00  0.00    -0.532 OA
ATOM     50  O26 MOL d          25.902 -26.868   4.530  0.00  0.00    -0.532 OA
ENDBRANCH  40  48
ENDBRANCH  33  36
ENDBRANCH  29  32
ENDBRANCH   2  29
TORSDOF 11
ENDMDL
MODEL 3
REMARK VINA RESULT:      -7.6      2.915      4.253
REMARK  11 active torsions:
REMARK  status: ('A' for Active; 'I' for Inactive)
REMARK    1  A    between atoms: C1_1  and  O8_8 
REMARK    2  A    between atoms: C2_2  and  O9_9 
REMARK    3  A    between atoms: C3_3  and  S7_7 
REMARK    4  A    between atoms: C5_5  and  C6_6 
REMARK    5  A    between atoms: S7_7  and  C11_11 
REMARK    6  A    between atoms: C10_10  and  C12_12 
REMARK    7  A    between atoms: C12_12  and  N13_13 
REMARK       I    between atoms: N13_13  and  C14_14 
REMARK    8  A    between atoms: C14_14  and  C15_15 
REMARK    9  A    between atoms: C16_16  and  O22_22 
REMARK   10  A    between atoms: C17_17  and  O23_23 
REMARK   11  A    between atoms: C19_19  and  N21_21 
ROOT
ATOM      1  C6  MOL d          19.625 -30.566  10.704  0.00  0.00    -0.075 C 
ATOM      2  C10 MOL d          20.267 -29.965   9.741  0.00  0.00    -0.087 C 
ATOM      3  H5  MOL d          19.495 -31.647  10.674  0.00  0.00     0.080 H 
ATOM      4  H8  MOL d          20.397 -28.886   9.801  0.00  0.00     0.079 H 
ENDROOT
BRANCH   1   5
ATOM      5  C5  MOL d          19.077 -29.798  11.830  0.00  0.00     0.083 C 
ATOM      6  C1  MOL d          20.228 -29.193  12.690  0.00  0.00     0.091 C 
ATOM      7  C2  MOL d          20.663 -30.511  13.364  0.00  0.00     0.097 C 
ATOM      8  H1  MOL d          21.024 -28.704  12.110  0.00  0.00     0.091 H 
ATOM      9  C3  MOL d          19.347 -31.247  13.627  0.00  0.00     0.115 C 
ATOM     10  H2  MOL d          21.303 -31.089  12.680  0.00  0.00     0.092 H 
ATOM     11  O4  MOL d          18.409 -30.679  12.701  0.00  0.00    -0.361 OA
ATOM     12  H3  MOL d          19.006 -31.084  14.660  0.00  0.00     0.105 H 
ATOM     13  H4  MOL d          18.402 -29.011  11.461  0.00  0.00     0.093 H 
BRANCH   6  14
ATOM     14  O8  MOL d          19.643 -28.304  13.639  0.00  0.00    -0.390 OA
ATOM     15  H6  MOL d          19.643 -28.713  14.497  0.00  0.00     0.210 HD
ENDBRANCH   6  14
BRANCH   7  16
ATOM     16  O9  MOL d          21.365 -30.314  14.598  0.00  0.00    -0.389 OA
ATOM     17  H7  MOL d          22.192 -30.779  14.568  0.00  0.00     0.210 HD
ENDBRANCH   7  16
BRANCH   9  18
ATOM     18  S7  MOL d          19.604 -33.005  13.349  0.00  0.00    -0.095 SA
BRANCH  18  19
ATOM     19  C11 MOL d          21.257 -33.208  13.224  0.00  0.00     0.005 A 
ATOM     20  C27 MOL d          21.923 -33.213  11.928  0.00  0.00    -0.050 A 
ATOM     21  C28 MOL d          23.314 -33.355  11.849  0.00  0.00     0.003 A 
ATOM     22  H16 MOL d          21.340 -33.106  11.021  0.00  0.00     0.087 H 
ATOM     23  N29 MOL d          24.140 -33.514  12.937  0.00  0.00    -0.273 NA
ATOM     24  H17 MOL d          23.770 -33.338  10.866  0.00  0.00     0.114 H 
ATOM     25  C30 MOL d          23.509 -33.520  14.174  0.00  0.00     0.003 A 
ATOM     26  C31 MOL d          22.135 -33.367  14.339  0.00  0.00    -0.050 A 
ATOM     27  H18 MOL d          24.120 -33.651  15.060  0.00  0.00     0.114 H 
ATOM     28  H19 MOL d          21.721 -33.369  15.340  0.00  0.00     0.087 H 
ENDBRANCH  18  19
ENDBRANCH   9  18
ENDBRANCH   1   5
BRANCH   2  29
ATOM     29  C12 MOL d          20.832 -30.682   8.559  0.00  0.00     0.010 C 
ATOM     30  H9  MOL d          20.018 -30.891   7.851  0.00  0.00     0.070 H 
ATOM     31  H10 MOL d          21.274 -31.630   8.900  0.00  0.00     0.070 H 
BRANCH  29  32
ATOM     32  N13 MOL d          21.848 -29.918   7.881  0.00  0.00    -0.353 N 
ATOM     33  C14 MOL d          22.358 -30.168   6.661  0.00  0.00     0.254 C 
ATOM     34  O24 MOL d          21.859 -31.081   5.939  0.00  0.00    -0.268 OA
ATOM     35  H11 MOL d          22.210 -29.121   8.365  0.00  0.00     0.163 HD
BRANCH  33  36
ATOM     36  C15 MOL d          23.520 -29.402   6.143  0.00  0.00     0.070 A 
ATOM     37  C16 MOL d          23.633 -27.998   6.348  0.00  0.00     0.114 A 
ATOM     38  C17 MOL d          24.804 -27.370   5.842  0.00  0.00     0.102 A 
ATOM     39  C18 MOL d          25.796 -28.011   5.155  0.00  0.00    -0.016 A 
ATOM     40  C19 MOL d          25.655 -29.406   4.987  0.00  0.00     0.106 A 
ATOM     41  H12 MOL d          26.650 -27.474   4.758  0.00  0.00     0.091 H 
ATOM     42  C20 MOL d          24.524 -30.097   5.474  0.00  0.00    -0.033 A 
ATOM     43  H13 MOL d          24.438 -31.168   5.329  0.00  0.00     0.089 H 
BRANCH  37  44
ATOM     44  O22 MOL d          22.722 -27.233   6.960  0.00  0.00    -0.357 OA
ATOM     45  H14 MOL d          21.901 -27.706   7.017  0.00  0.00     0.217 HD
ENDBRANCH  37  44
BRANCH  38  46
ATOM     46  O23 MOL d          24.936 -26.007   6.031  0.00  0.00    -0.358 OA
ATOM     47  H15 MOL d          24.612 -25.775   6.894  0.00  0.00     0.217 HD
ENDBRANCH  38  46
BRANCH  40  48
ATOM     48  N21 MOL d          26.666 -30.152   4.271  0.00  0.00    -0.116 N 
ATOM     49  O25 MOL d          27.717 -29.655   3.965  0.00  0.00    -0.532 OA
ATOM     50  O26 MOL d          26.382 -31.302   3.966  0.00  0.00    -0.532 OA
ENDBRANCH  40  48
ENDBRANCH  33  36
ENDBRANCH  29  32
ENDBRANCH   2  29
TORSDOF 11
ENDMDL
MODEL 4
REMARK VINA RESULT:      -7.1      1.819      3.133
REMARK  11 active torsions:
REMARK  status: ('A' for Active; 'I' for Inactive)
REMARK    1  A    between atoms: C1_1  and  O8_8 
REMARK    2  A    between atoms: C2_2  and  O9_9 
REMARK    3  A    between atoms: C3_3  and  S7_7 
REMARK    4  A    between atoms: C5_5  and  C6_6 
REMARK    5  A    between atoms: S7_7  and  C11_11 
REMARK    6  A    between atoms: C10_10  and  C12_12 
REMARK    7  A    between atoms: C12_12  and  N13_13 
REMARK       I    between atoms: N13_13  and  C14_14 
REMARK    8  A    between atoms: C14_14  and  C15_15 
REMARK    9  A    between atoms: C16_16  and  O22_22 
REMARK   10  A    between atoms: C17_17  and  O23_23 
REMARK   11  A    between atoms: C19_19  and  N21_21 
ROOT
ATOM      1  C6  MOL d          21.577 -32.305  11.143  0.00  0.00    -0.075 C 
ATOM      2  C10 MOL d          21.846 -33.355  10.418  0.00  0.00    -0.087 C 
ATOM      3  H5  MOL d          21.189 -31.406  10.667  0.00  0.00     0.080 H 
ATOM      4  H8  MOL d          22.219 -34.247  10.919  0.00  0.00     0.079 H 
ENDROOT
BRANCH   1   5
ATOM      5  C5  MOL d          21.794 -32.325  12.596  0.00  0.00     0.083 C 
ATOM      6  C1  MOL d          20.817 -33.330  13.279  0.00  0.00     0.091 C 
ATOM      7  C2  MOL d          19.544 -32.471  13.141  0.00  0.00     0.097 C 
ATOM      8  H1  MOL d          20.750 -34.310  12.785  0.00  0.00     0.091 H 
ATOM      9  C3  MOL d          20.030 -31.042  13.400  0.00  0.00     0.115 C 
ATOM     10  H2  MOL d          19.135 -32.565  12.124  0.00  0.00     0.092 H 
ATOM     11  O4  MOL d          21.438 -31.070  13.127  0.00  0.00    -0.361 OA
ATOM     12  H3  MOL d          19.852 -30.750  14.445  0.00  0.00     0.105 H 
ATOM     13  H4  MOL d          22.842 -32.574  12.821  0.00  0.00     0.093 H 
BRANCH   6  14
ATOM     14  O8  MOL d          21.204 -33.453  14.646  0.00  0.00    -0.390 OA
ATOM     15  H6  MOL d          21.877 -32.812  14.842  0.00  0.00     0.210 HD
ENDBRANCH   6  14
BRANCH   7  16
ATOM     16  O9  MOL d          18.521 -32.814  14.085  0.00  0.00    -0.389 OA
ATOM     17  H7  MOL d          18.805 -32.573  14.959  0.00  0.00     0.210 HD
ENDBRANCH   7  16
BRANCH   9  18
ATOM     18  S7  MOL d          19.143 -29.924  12.305  0.00  0.00    -0.095 SA
BRANCH  18  19
ATOM     19  C11 MOL d          17.521 -30.205  12.587  0.00  0.00     0.005 A 
ATOM     20  C27 MOL d          16.748 -31.097  11.731  0.00  0.00    -0.050 A 
ATOM     21  C28 MOL d          15.397 -31.342  12.004  0.00  0.00     0.003 A 
ATOM     22  H16 MOL d          17.222 -31.573  10.880  0.00  0.00     0.087 H 
ATOM     23  N29 MOL d          14.701 -30.774  13.045  0.00  0.00    -0.273 NA
ATOM     24  H17 MOL d          14.864 -32.024  11.350  0.00  0.00     0.114 H 
ATOM     25  C30 MOL d          15.431 -29.916  13.858  0.00  0.00     0.003 A 
ATOM     26  C31 MOL d          16.780 -29.635  13.665  0.00  0.00    -0.050 A 
ATOM     27  H18 MOL d          14.921 -29.440  14.688  0.00  0.00     0.114 H 
ATOM     28  H19 MOL d          17.282 -28.964  14.352  0.00  0.00     0.087 H 
ENDBRANCH  18  19
ENDBRANCH   9  18
ENDBRANCH   1   5
BRANCH   2  29
ATOM     29  C12 MOL d          21.668 -33.397   8.936  0.00  0.00     0.010 C 
ATOM     30  H9  MOL d          20.598 -33.286   8.706  0.00  0.00     0.070 H 
ATOM     31  H10 MOL d          22.023 -34.370   8.566  0.00  0.00     0.070 H 
BRANCH  29  32
ATOM     32  N13 MOL d          22.395 -32.353   8.260  0.00  0.00    -0.353 N 
ATOM     33  C14 MOL d          22.561 -32.225   6.931  0.00  0.00     0.254 C 
ATOM     34  O24 MOL d          21.950 -32.998   6.136  0.00  0.00    -0.268 OA
ATOM     35  H11 MOL d          22.818 -31.654   8.836  0.00  0.00     0.163 HD
BRANCH  33  36
ATOM     36  C15 MOL d          23.473 -31.197   6.368  0.00  0.00     0.070 A 
ATOM     37  C16 MOL d          24.548 -31.553   5.504  0.00  0.00     0.114 A 
ATOM     38  C17 MOL d          25.337 -30.486   4.993  0.00  0.00     0.102 A 
ATOM     39  C18 MOL d          25.154 -29.167   5.297  0.00  0.00    -0.016 A 
ATOM     40  C19 MOL d          24.068 -28.854   6.144  0.00  0.00     0.106 A 
ATOM     41  H12 MOL d          25.811 -28.398   4.907  0.00  0.00     0.091 H 
ATOM     42  C20 MOL d          23.235 -29.861   6.678  0.00  0.00    -0.033 A 
ATOM     43  H13 MOL d          22.410 -29.595   7.328  0.00  0.00     0.089 H 
BRANCH  37  44
ATOM     44  O22 MOL d          24.875 -32.802   5.156  0.00  0.00    -0.357 OA
ATOM     45  H14 MOL d          25.029 -32.838   4.219  0.00  0.00     0.217 HD
ENDBRANCH  37  44
BRANCH  38  46
ATOM     46  O23 MOL d          26.385 -30.808   4.151  0.00  0.00    -0.358 OA
ATOM     47  H15 MOL d          26.078 -30.814   3.252  0.00  0.00     0.217 HD
ENDBRANCH  38  46
BRANCH  40  48
ATOM     48  N21 MOL d          23.811 -27.478   6.509  0.00  0.00    -0.116 N 
ATOM     49  O25 MOL d          24.514 -26.582   6.121  0.00  0.00    -0.532 OA
ATOM     50  O26 MOL d          22.864 -27.280   7.256  0.00  0.00    -0.532 OA
ENDBRANCH  40  48
ENDBRANCH  33  36
ENDBRANCH  29  32
ENDBRANCH   2  29
TORSDOF 11
ENDMDL
