MODEL 1
REMARK VINA RESULT:      -7.1      0.000      0.000
REMARK  23 active torsions:
REMARK  status: ('A' for Active; 'I' for Inactive)
REMARK    1  A    between atoms: N4B_18  and  C1A_1 
REMARK    2  A    between atoms: C2A_2  and  O2A_8 
REMARK    3  A    between atoms: C3A_3  and  O3A_9 
REMARK    4  A    between atoms: C4A_4  and  O4A_10 
REMARK    5  A    between atoms: C5A_5  and  C6A_6 
REMARK    6  A    between atoms: C6A_6  and  O6A_11 
REMARK    7  A    between atoms: O4C_30  and  C1B_12 
REMARK    8  A    between atoms: C2B_13  and  O2B_19 
REMARK    9  A    between atoms: C3B_14  and  O3B_20 
REMARK   10  A    between atoms: C4B_15  and  N4B_18 
REMARK   11  A    between atoms: C5B_16  and  C6B_17 
REMARK   12  A    between atoms: O4D_42  and  C1C_22 
REMARK   13  A    between atoms: C2C_23  and  O2C_28 
REMARK   14  A    between atoms: C3C_24  and  O3C_29 
REMARK   15  A    between atoms: C4C_25  and  O4C_30 
REMARK   16  A    between atoms: C5C_26  and  C6C_27 
REMARK   17  A    between atoms: C6C_27  and  O6C_32 
REMARK   18  A    between atoms: C1D_33  and  O1D_39 
REMARK   19  A    between atoms: C2D_34  and  O2D_40 
REMARK   20  A    between atoms: C3D_35  and  O3D_41 
REMARK   21  A    between atoms: C4D_36  and  O4D_42 
REMARK   22  A    between atoms: C5D_37  and  C6D_38 
REMARK   23  A    between atoms: C6D_38  and  O6D_44 
ROOT
ATOM      1  C1B ACR d         -18.033  -6.891  -5.372  0.00  0.00     0.159 C 
ATOM      2  C2B ACR d         -17.613  -5.702  -6.234  0.00  0.00     0.110 C 
ATOM      3  C3B ACR d         -18.752  -5.304  -7.186  0.00  0.00     0.094 C 
ATOM      4  C4B ACR d         -19.107  -6.481  -8.096  0.00  0.00     0.154 C 
ATOM      5  C5B ACR d         -19.503  -7.670  -7.195  0.00  0.00     0.068 C 
ATOM      6  O5B ACR d         -18.438  -7.947  -6.249  0.00  0.00    -0.351 OA
ATOM      7  H12 ACR d         -17.184  -7.227  -4.759  0.00  0.00     0.133 H 
ATOM      8  H13 ACR d         -16.722  -5.969  -6.821  0.00  0.00     0.094 H 
ATOM      9  H14 ACR d         -19.634  -5.018  -6.594  0.00  0.00     0.090 H 
ATOM     10  H15 ACR d         -18.189  -6.778  -8.624  0.00  0.00     0.092 H 
ATOM     11  H16 ACR d         -20.417  -7.402  -6.646  0.00  0.00     0.086 H 
ENDROOT
BRANCH   1  12
ATOM     12  O4C ACR d         -19.119  -6.502  -4.508  0.00  0.00    -0.348 OA
BRANCH  12  13
ATOM     13  C4C ACR d         -19.057  -6.967  -3.159  0.00  0.00     0.096 C 
ATOM     14  C3C ACR d         -18.727  -5.777  -2.257  0.00  0.00     0.092 C 
ATOM     15  C2C ACR d         -18.883  -6.082  -0.765  0.00  0.00     0.110 C 
ATOM     16  H26 ACR d         -19.435  -4.971  -2.501  0.00  0.00     0.091 H 
ATOM     17  C1C ACR d         -20.213  -6.759  -0.451  0.00  0.00     0.159 C 
ATOM     18  H25 ACR d         -18.053  -6.719  -0.422  0.00  0.00     0.094 H 
ATOM     19  O5C ACR d         -20.383  -7.885  -1.329  0.00  0.00    -0.348 OA
ATOM     20  H24 ACR d         -20.216  -7.103   0.594  0.00  0.00     0.133 H 
ATOM     21  C5C ACR d         -20.393  -7.593  -2.742  0.00  0.00     0.089 C 
ATOM     22  H28 ACR d         -21.190  -6.864  -2.950  0.00  0.00     0.090 H 
ATOM     23  H27 ACR d         -18.265  -7.725  -3.071  0.00  0.00     0.091 H 
BRANCH  14  24
ATOM     24  O3C ACR d         -17.403  -5.308  -2.546  0.00  0.00    -0.390 OA
ATOM     25  H32 ACR d         -16.893  -6.015  -2.922  0.00  0.00     0.210 HD
ENDBRANCH  14  24
BRANCH  15  26
ATOM     26  O2C ACR d         -18.869  -4.827  -0.095  0.00  0.00    -0.388 OA
ATOM     27  H31 ACR d         -19.638  -4.757   0.459  0.00  0.00     0.210 HD
ENDBRANCH  15  26
BRANCH  17  28
ATOM     28  O4D ACR d         -21.282  -5.824  -0.650  0.00  0.00    -0.348 OA
BRANCH  28  29
ATOM     29  C4D ACR d         -22.385  -5.859   0.266  0.00  0.00     0.096 C 
ATOM     30  C3D ACR d         -22.213  -4.588   1.106  0.00  0.00     0.092 C 
ATOM     31  C2D ACR d         -23.372  -4.337   2.079  0.00  0.00     0.110 C 
ATOM     32  H36 ACR d         -22.190  -3.740   0.406  0.00  0.00     0.091 H 
ATOM     33  C1D ACR d         -24.770  -4.511   1.428  0.00  0.00     0.156 C 
ATOM     34  H35 ACR d         -23.298  -5.068   2.897  0.00  0.00     0.094 H 
ATOM     35  O5D ACR d         -24.845  -5.632   0.522  0.00  0.00    -0.349 OA
ATOM     36  H34 ACR d         -25.481  -4.702   2.245  0.00  0.00     0.133 H 
ATOM     37  C5D ACR d         -23.765  -5.781  -0.428  0.00  0.00     0.089 C 
ATOM     38  H38 ACR d         -23.748  -4.881  -1.062  0.00  0.00     0.090 H 
ATOM     39  H37 ACR d         -22.336  -6.764   0.890  0.00  0.00     0.091 H 
BRANCH  30  40
ATOM     40  O3D ACR d         -20.953  -4.610   1.806  0.00  0.00    -0.390 OA
ATOM     41  H43 ACR d         -21.098  -4.408   2.723  0.00  0.00     0.210 HD
ENDBRANCH  30  40
BRANCH  31  42
ATOM     42  O2D ACR d         -23.198  -3.016   2.629  0.00  0.00    -0.388 OA
ATOM     43  H42 ACR d         -22.424  -2.616   2.249  0.00  0.00     0.210 HD
ENDBRANCH  31  42
BRANCH  33  44
ATOM     44  O1D ACR d         -25.195  -3.314   0.753  0.00  0.00    -0.369 OA
ATOM     45  H41 ACR d         -25.773  -2.819   1.322  0.00  0.00     0.212 HD
ENDBRANCH  33  44
BRANCH  37  46
ATOM     46  C6D ACR d         -24.085  -6.973  -1.335  0.00  0.00     0.043 C 
ATOM     47  H39 ACR d         -23.780  -6.743  -2.367  0.00  0.00     0.078 H 
ATOM     48  H40 ACR d         -25.166  -7.176  -1.308  0.00  0.00     0.078 H 
BRANCH  46  49
ATOM     49  O6D ACR d         -23.366  -8.128  -0.866  0.00  0.00    -0.398 OA
ATOM     50  H44 ACR d         -23.806  -8.916  -1.163  0.00  0.00     0.209 HD
ENDBRANCH  46  49
ENDBRANCH  37  46
ENDBRANCH  28  29
ENDBRANCH  17  28
BRANCH  21  51
ATOM     51  C6C ACR d         -20.706  -8.877  -3.504  0.00  0.00     0.043 C 
ATOM     52  H29 ACR d         -21.207  -9.588  -2.832  0.00  0.00     0.078 H 
ATOM     53  H30 ACR d         -19.769  -9.320  -3.875  0.00  0.00     0.078 H 
BRANCH  51  54
ATOM     54  O6C ACR d         -21.567  -8.581  -4.614  0.00  0.00    -0.398 OA
ATOM     55  H33 ACR d         -21.508  -9.281  -5.253  0.00  0.00     0.209 HD
ENDBRANCH  51  54
ENDBRANCH  21  51
ENDBRANCH  12  13
ENDBRANCH   1  12
BRANCH   2  56
ATOM     56  O2B ACR d         -17.314  -4.602  -5.377  0.00  0.00    -0.388 OA
ATOM     57  H22 ACR d         -17.983  -4.532  -4.706  0.00  0.00     0.210 HD
ENDBRANCH   2  56
BRANCH   3  58
ATOM     58  O3B ACR d         -18.357  -4.211  -8.007  0.00  0.00    -0.391 OA
ATOM     59  H23 ACR d         -17.821  -3.613  -7.500  0.00  0.00     0.210 HD
ENDBRANCH   3  58
BRANCH   5  60
ATOM     60  C6B ACR d         -19.762  -8.942  -7.994  0.00  0.00    -0.050 C 
ATOM     61  H17 ACR d         -20.643  -8.798  -8.637  0.00  0.00     0.031 H 
ATOM     62  H18 ACR d         -19.945  -9.778  -7.303  0.00  0.00     0.031 H 
ATOM     63  H19 ACR d         -18.886  -9.167  -8.620  0.00  0.00     0.031 H 
ENDBRANCH   5  60
BRANCH   4  64
ATOM     64  N4B ACR d         -20.076  -6.108  -9.149  0.00  0.00    -0.056 N 
ATOM     65  H20 ACR d         -20.816  -6.793  -9.130  0.00  0.00     0.278 HD
ATOM     66  H21 ACR d         -20.448  -5.204  -8.905  0.00  0.00     0.278 HD
BRANCH  64  67
ATOM     67  C1A ACR d         -19.593  -6.021 -10.554  0.00  0.00     0.146 C 
ATOM     68  C2A ACR d         -20.676  -5.710 -11.607  0.00  0.00     0.093 C 
ATOM     69  C3A ACR d         -21.584  -6.927 -11.791  0.00  0.00     0.091 C 
ATOM     70  H2  ACR d         -20.188  -5.472 -12.564  0.00  0.00     0.090 H 
ATOM     71  C4A ACR d         -20.775  -8.036 -12.436  0.00  0.00     0.086 C 
ATOM     72  H3  ACR d         -21.875  -7.264 -10.785  0.00  0.00     0.091 H 
ATOM     73  C5A ACR d         -19.437  -8.214 -11.752  0.00  0.00    -0.027 C 
ATOM     74  H4  ACR d         -20.602  -7.782 -13.492  0.00  0.00     0.094 H 
ATOM     75  C7A ACR d         -18.841  -7.268 -11.010  0.00  0.00    -0.064 C 
ATOM     76  H7  ACR d         -17.797  -7.392 -10.727  0.00  0.00     0.080 H 
ATOM     77  H1  ACR d         -18.880  -5.183 -10.574  0.00  0.00     0.095 H 
BRANCH  68  78
ATOM     78  O2A ACR d         -21.469  -4.602 -11.202  0.00  0.00    -0.390 OA
ATOM     79  H8  ACR d         -21.705  -4.087 -11.964  0.00  0.00     0.210 HD
ENDBRANCH  68  78
BRANCH  69  80
ATOM     80  O3A ACR d         -22.836  -6.686 -12.526  0.00  0.00    -0.390 OA
ATOM     81  H9  ACR d         -22.698  -5.998 -13.167  0.00  0.00     0.210 HD
ENDBRANCH  69  80
BRANCH  71  82
ATOM     82  O4A ACR d         -21.517  -9.253 -12.361  0.00  0.00    -0.388 OA
ATOM     83  H10 ACR d         -21.133  -9.894 -12.948  0.00  0.00     0.210 HD
ENDBRANCH  71  82
BRANCH  73  84
ATOM     84  C6A ACR d         -18.760  -9.530 -11.982  0.00  0.00     0.039 C 
ATOM     85  H5  ACR d         -19.381 -10.192 -12.602  0.00  0.00     0.081 H 
ATOM     86  H6  ACR d         -18.530 -10.029 -11.030  0.00  0.00     0.081 H 
BRANCH  84  87
ATOM     87  O6A ACR d         -17.554  -9.152 -12.674  0.00  0.00    -0.397 OA
ATOM     88  H11 ACR d         -16.856  -9.753 -12.442  0.00  0.00     0.209 HD
ENDBRANCH  84  87
ENDBRANCH  73  84
ENDBRANCH  64  67
ENDBRANCH   4  64
TORSDOF 23
ENDMDL
MODEL 2
REMARK VINA RESULT:      -7.1      1.368      2.429
REMARK  23 active torsions:
REMARK  status: ('A' for Active; 'I' for Inactive)
REMARK    1  A    between atoms: N4B_18  and  C1A_1 
REMARK    2  A    between atoms: C2A_2  and  O2A_8 
REMARK    3  A    between atoms: C3A_3  and  O3A_9 
REMARK    4  A    between atoms: C4A_4  and  O4A_10 
REMARK    5  A    between atoms: C5A_5  and  C6A_6 
REMARK    6  A    between atoms: C6A_6  and  O6A_11 
REMARK    7  A    between atoms: O4C_30  and  C1B_12 
REMARK    8  A    between atoms: C2B_13  and  O2B_19 
REMARK    9  A    between atoms: C3B_14  and  O3B_20 
REMARK   10  A    between atoms: C4B_15  and  N4B_18 
REMARK   11  A    between atoms: C5B_16  and  C6B_17 
REMARK   12  A    between atoms: O4D_42  and  C1C_22 
REMARK   13  A    between atoms: C2C_23  and  O2C_28 
REMARK   14  A    between atoms: C3C_24  and  O3C_29 
REMARK   15  A    between atoms: C4C_25  and  O4C_30 
REMARK   16  A    between atoms: C5C_26  and  C6C_27 
REMARK   17  A    between atoms: C6C_27  and  O6C_32 
REMARK   18  A    between atoms: C1D_33  and  O1D_39 
REMARK   19  A    between atoms: C2D_34  and  O2D_40 
REMARK   20  A    between atoms: C3D_35  and  O3D_41 
REMARK   21  A    between atoms: C4D_36  and  O4D_42 
REMARK   22  A    between atoms: C5D_37  and  C6D_38 
REMARK   23  A    between atoms: C6D_38  and  O6D_44 
ROOT
ATOM      1  C1B ACR d         -18.761  -6.451  -4.946  0.00  0.00     0.159 C 
ATOM      2  C2B ACR d         -18.301  -5.360  -5.911  0.00  0.00     0.110 C 
ATOM      3  C3B ACR d         -19.322  -5.186  -7.047  0.00  0.00     0.094 C 
ATOM      4  C4B ACR d         -19.478  -6.500  -7.813  0.00  0.00     0.154 C 
ATOM      5  C5B ACR d         -19.920  -7.583  -6.806  0.00  0.00     0.068 C 
ATOM      6  O5B ACR d         -18.979  -7.644  -5.704  0.00  0.00    -0.351 OA
ATOM      7  H12 ACR d         -17.984  -6.631  -4.189  0.00  0.00     0.133 H 
ATOM      8  H13 ACR d         -17.324  -5.633  -6.336  0.00  0.00     0.094 H 
ATOM      9  H14 ACR d         -20.292  -4.893  -6.618  0.00  0.00     0.090 H 
ATOM     10  H15 ACR d         -18.481  -6.793  -8.174  0.00  0.00     0.092 H 
ATOM     11  H16 ACR d         -20.915  -7.316  -6.422  0.00  0.00     0.086 H 
ENDROOT
BRANCH   1  12
ATOM     12  O4C ACR d         -19.976  -6.035  -4.290  0.00  0.00    -0.348 OA
BRANCH  12  13
ATOM     13  C4C ACR d         -19.987  -6.108  -2.864  0.00  0.00     0.096 C 
ATOM     14  C3C ACR d         -20.361  -4.729  -2.318  0.00  0.00     0.092 C 
ATOM     15  C2C ACR d         -20.660  -4.730  -0.815  0.00  0.00     0.110 C 
ATOM     16  H26 ACR d         -21.279  -4.407  -2.832  0.00  0.00     0.091 H 
ATOM     17  C1C ACR d         -21.622  -5.846  -0.420  0.00  0.00     0.159 C 
ATOM     18  H25 ACR d         -19.724  -4.829  -0.246  0.00  0.00     0.094 H 
ATOM     19  O5C ACR d         -21.136  -7.091  -0.951  0.00  0.00    -0.348 OA
ATOM     20  H24 ACR d         -21.683  -5.911   0.676  0.00  0.00     0.133 H 
ATOM     21  C5C ACR d         -20.995  -7.159  -2.386  0.00  0.00     0.089 C 
ATOM     22  H28 ACR d         -21.967  -6.936  -2.850  0.00  0.00     0.090 H 
ATOM     23  H27 ACR d         -18.985  -6.384  -2.506  0.00  0.00     0.091 H 
BRANCH  14  24
ATOM     24  O3C ACR d         -19.324  -3.790  -2.630  0.00  0.00    -0.390 OA
ATOM     25  H32 ACR d         -18.674  -3.797  -1.938  0.00  0.00     0.210 HD
ENDBRANCH  14  24
BRANCH  15  26
ATOM     26  O2C ACR d         -21.298  -3.491  -0.532  0.00  0.00    -0.388 OA
ATOM     27  H31 ACR d         -21.383  -3.388   0.409  0.00  0.00     0.210 HD
ENDBRANCH  15  26
BRANCH  17  28
ATOM     28  O4D ACR d         -22.922  -5.566  -0.955  0.00  0.00    -0.348 OA
BRANCH  28  29
ATOM     29  C4D ACR d         -24.066  -5.951  -0.180  0.00  0.00     0.096 C 
ATOM     30  C3D ACR d         -24.269  -7.430  -0.523  0.00  0.00     0.092 C 
ATOM     31  C2D ACR d         -25.371  -8.104   0.304  0.00  0.00     0.110 C 
ATOM     32  H36 ACR d         -23.328  -7.949  -0.288  0.00  0.00     0.091 H 
ATOM     33  C1D ACR d         -25.282  -7.788   1.820  0.00  0.00     0.156 C 
ATOM     34  H35 ACR d         -26.343  -7.733  -0.052  0.00  0.00     0.094 H 
ATOM     35  O5D ACR d         -24.935  -6.415   2.101  0.00  0.00    -0.349 OA
ATOM     36  H34 ACR d         -26.282  -7.965   2.242  0.00  0.00     0.133 H 
ATOM     37  C5D ACR d         -23.837  -5.849   1.347  0.00  0.00     0.089 C 
ATOM     38  H38 ACR d         -22.936  -6.440   1.570  0.00  0.00     0.090 H 
ATOM     39  H37 ACR d         -24.940  -5.347  -0.464  0.00  0.00     0.091 H 
BRANCH  30  40
ATOM     40  O3D ACR d         -24.517  -7.594  -1.935  0.00  0.00    -0.390 OA
ATOM     41  H43 ACR d         -23.831  -7.159  -2.427  0.00  0.00     0.210 HD
ENDBRANCH  30  40
BRANCH  31  42
ATOM     42  O2D ACR d         -25.301  -9.521   0.048  0.00  0.00    -0.388 OA
ATOM     43  H42 ACR d         -24.467  -9.727  -0.359  0.00  0.00     0.210 HD
ENDBRANCH  31  42
BRANCH  33  44
ATOM     44  O1D ACR d         -24.363  -8.666   2.494  0.00  0.00    -0.369 OA
ATOM     45  H41 ACR d         -24.830  -9.164   3.155  0.00  0.00     0.212 HD
ENDBRANCH  33  44
BRANCH  37  46
ATOM     46  C6D ACR d         -23.589  -4.426   1.856  0.00  0.00     0.043 C 
ATOM     47  H39 ACR d         -22.529  -4.310   2.124  0.00  0.00     0.078 H 
ATOM     48  H40 ACR d         -24.214  -4.238   2.741  0.00  0.00     0.078 H 
BRANCH  46  49
ATOM     49  O6D ACR d         -23.929  -3.488   0.818  0.00  0.00    -0.398 OA
ATOM     50  H44 ACR d         -23.165  -3.326   0.277  0.00  0.00     0.209 HD
ENDBRANCH  46  49
ENDBRANCH  37  46
ENDBRANCH  28  29
ENDBRANCH  17  28
BRANCH  21  51
ATOM     51  C6C ACR d         -20.593  -8.579  -2.770  0.00  0.00     0.043 C 
ATOM     52  H29 ACR d         -20.903  -9.274  -1.977  0.00  0.00     0.078 H 
ATOM     53  H30 ACR d         -19.501  -8.629  -2.896  0.00  0.00     0.078 H 
BRANCH  51  54
ATOM     54  O6C ACR d         -21.233  -8.944  -4.002  0.00  0.00    -0.398 OA
ATOM     55  H33 ACR d         -21.972  -8.367  -4.157  0.00  0.00     0.209 HD
ENDBRANCH  51  54
ENDBRANCH  21  51
ENDBRANCH  12  13
ENDBRANCH   1  12
BRANCH   2  56
ATOM     56  O2B ACR d         -18.188  -4.133  -5.192  0.00  0.00    -0.388 OA
ATOM     57  H22 ACR d         -18.752  -4.162  -4.428  0.00  0.00     0.210 HD
ENDBRANCH   2  56
BRANCH   3  58
ATOM     58  O3B ACR d         -18.887  -4.187  -7.961  0.00  0.00    -0.391 OA
ATOM     59  H23 ACR d         -19.533  -4.085  -8.650  0.00  0.00     0.210 HD
ENDBRANCH   3  58
BRANCH   5  60
ATOM     60  C6B ACR d         -19.992  -8.969  -7.439  0.00  0.00    -0.050 C 
ATOM     61  H17 ACR d         -20.769  -8.977  -8.217  0.00  0.00     0.031 H 
ATOM     62  H18 ACR d         -20.237  -9.712  -6.667  0.00  0.00     0.031 H 
ATOM     63  H19 ACR d         -19.020  -9.216  -7.891  0.00  0.00     0.031 H 
ENDBRANCH   5  60
BRANCH   4  64
ATOM     64  N4B ACR d         -20.316  -6.352  -9.023  0.00  0.00    -0.056 N 
ATOM     65  H20 ACR d         -20.893  -7.176  -9.089  0.00  0.00     0.278 HD
ATOM     66  H21 ACR d         -20.901  -5.543  -8.883  0.00  0.00     0.278 HD
BRANCH  64  67
ATOM     67  C1A ACR d         -19.637  -6.182 -10.336  0.00  0.00     0.146 C 
ATOM     68  C2A ACR d         -20.549  -5.745 -11.501  0.00  0.00     0.093 C 
ATOM     69  C3A ACR d         -21.463  -6.903 -11.904  0.00  0.00     0.091 C 
ATOM     70  H2  ACR d         -19.922  -5.459 -12.359  0.00  0.00     0.090 H 
ATOM     71  C4A ACR d         -20.610  -7.996 -12.519  0.00  0.00     0.086 C 
ATOM     72  H3  ACR d         -21.905  -7.300 -10.979  0.00  0.00     0.091 H 
ATOM     73  C5A ACR d         -19.389  -8.285 -11.672  0.00  0.00    -0.027 C 
ATOM     74  H4  ACR d         -20.281  -7.673 -13.517  0.00  0.00     0.094 H 
ATOM     75  C7A ACR d         -18.871  -7.424 -10.782  0.00  0.00    -0.064 C 
ATOM     76  H7  ACR d         -17.882  -7.616 -10.368  0.00  0.00     0.080 H 
ATOM     77  H1  ACR d         -18.900  -5.379 -10.190  0.00  0.00     0.095 H 
BRANCH  68  78
ATOM     78  O2A ACR d         -21.353  -4.636 -11.121  0.00  0.00    -0.390 OA
ATOM     79  H8  ACR d         -21.563  -4.700 -10.197  0.00  0.00     0.210 HD
ENDBRANCH  68  78
BRANCH  69  80
ATOM     80  O3A ACR d         -22.589  -6.552 -12.784  0.00  0.00    -0.390 OA
ATOM     81  H9  ACR d         -22.812  -5.637 -12.661  0.00  0.00     0.210 HD
ENDBRANCH  69  80
BRANCH  71  82
ATOM     82  O4A ACR d         -21.396  -9.181 -12.644  0.00  0.00    -0.388 OA
ATOM     83  H10 ACR d         -21.174  -9.623 -13.455  0.00  0.00     0.210 HD
ENDBRANCH  71  82
BRANCH  73  84
ATOM     84  C6A ACR d         -18.731  -9.609 -11.910  0.00  0.00     0.039 C 
ATOM     85  H5  ACR d         -19.404 -10.295 -12.446  0.00  0.00     0.081 H 
ATOM     86  H6  ACR d         -18.415 -10.071 -10.964  0.00  0.00     0.081 H 
BRANCH  84  87
ATOM     87  O6A ACR d         -17.594  -9.260 -12.723  0.00  0.00    -0.397 OA
ATOM     88  H11 ACR d         -17.894  -8.867 -13.534  0.00  0.00     0.209 HD
ENDBRANCH  84  87
ENDBRANCH  73  84
ENDBRANCH  64  67
ENDBRANCH   4  64
TORSDOF 23
ENDMDL
MODEL 3
REMARK VINA RESULT:      -5.8      1.832      2.427
REMARK  23 active torsions:
REMARK  status: ('A' for Active; 'I' for Inactive)
REMARK    1  A    between atoms: N4B_18  and  C1A_1 
REMARK    2  A    between atoms: C2A_2  and  O2A_8 
REMARK    3  A    between atoms: C3A_3  and  O3A_9 
REMARK    4  A    between atoms: C4A_4  and  O4A_10 
REMARK    5  A    between atoms: C5A_5  and  C6A_6 
REMARK    6  A    between atoms: C6A_6  and  O6A_11 
REMARK    7  A    between atoms: O4C_30  and  C1B_12 
REMARK    8  A    between atoms: C2B_13  and  O2B_19 
REMARK    9  A    between atoms: C3B_14  and  O3B_20 
REMARK   10  A    between atoms: C4B_15  and  N4B_18 
REMARK   11  A    between atoms: C5B_16  and  C6B_17 
REMARK   12  A    between atoms: O4D_42  and  C1C_22 
REMARK   13  A    between atoms: C2C_23  and  O2C_28 
REMARK   14  A    between atoms: C3C_24  and  O3C_29 
REMARK   15  A    between atoms: C4C_25  and  O4C_30 
REMARK   16  A    between atoms: C5C_26  and  C6C_27 
REMARK   17  A    between atoms: C6C_27  and  O6C_32 
REMARK   18  A    between atoms: C1D_33  and  O1D_39 
REMARK   19  A    between atoms: C2D_34  and  O2D_40 
REMARK   20  A    between atoms: C3D_35  and  O3D_41 
REMARK   21  A    between atoms: C4D_36  and  O4D_42 
REMARK   22  A    between atoms: C5D_37  and  C6D_38 
REMARK   23  A    between atoms: C6D_38  and  O6D_44 
ROOT
ATOM      1  C1B ACR d         -18.070  -6.359  -4.952  0.00  0.00     0.159 C 
ATOM      2  C2B ACR d         -17.852  -5.229  -5.957  0.00  0.00     0.110 C 
ATOM      3  C3B ACR d         -18.985  -5.214  -6.996  0.00  0.00     0.094 C 
ATOM      4  C4B ACR d         -19.026  -6.547  -7.743  0.00  0.00     0.154 C 
ATOM      5  C5B ACR d         -19.223  -7.666  -6.698  0.00  0.00     0.068 C 
ATOM      6  O5B ACR d         -18.188  -7.582  -5.685  0.00  0.00    -0.351 OA
ATOM      7  H12 ACR d         -17.211  -6.421  -4.267  0.00  0.00     0.133 H 
ATOM      8  H13 ACR d         -16.889  -5.372  -6.468  0.00  0.00     0.094 H 
ATOM      9  H14 ACR d         -19.943  -5.050  -6.482  0.00  0.00     0.090 H 
ATOM     10  H15 ACR d         -18.034  -6.705  -8.191  0.00  0.00     0.092 H 
ATOM     11  H16 ACR d         -20.207  -7.533  -6.226  0.00  0.00     0.086 H 
ENDROOT
BRANCH   1  12
ATOM     12  O4C ACR d         -19.268  -6.105  -4.190  0.00  0.00    -0.348 OA
BRANCH  12  13
ATOM     13  C4C ACR d         -19.104  -5.947  -2.781  0.00  0.00     0.096 C 
ATOM     14  C3C ACR d         -19.888  -4.709  -2.344  0.00  0.00     0.092 C 
ATOM     15  C2C ACR d         -20.009  -4.570  -0.823  0.00  0.00     0.110 C 
ATOM     16  H26 ACR d         -20.908  -4.804  -2.745  0.00  0.00     0.091 H 
ATOM     17  C1C ACR d         -20.462  -5.867  -0.161  0.00  0.00     0.159 C 
ATOM     18  H25 ACR d         -19.046  -4.252  -0.396  0.00  0.00     0.094 H 
ATOM     19  O5C ACR d         -19.620  -6.941  -0.615  0.00  0.00    -0.348 OA
ATOM     20  H24 ACR d         -20.382  -5.772   0.932  0.00  0.00     0.133 H 
ATOM     21  C5C ACR d         -19.614  -7.186  -2.037  0.00  0.00     0.089 C 
ATOM     22  H28 ACR d         -20.644  -7.384  -2.369  0.00  0.00     0.090 H 
ATOM     23  H27 ACR d         -18.038  -5.805  -2.551  0.00  0.00     0.091 H 
BRANCH  14  24
ATOM     24  O3C ACR d         -19.294  -3.537  -2.916  0.00  0.00    -0.390 OA
ATOM     25  H32 ACR d         -19.091  -3.700  -3.829  0.00  0.00     0.210 HD
ENDBRANCH  14  24
BRANCH  15  26
ATOM     26  O2C ACR d         -21.016  -3.592  -0.588  0.00  0.00    -0.388 OA
ATOM     27  H31 ACR d         -21.092  -3.028  -1.350  0.00  0.00     0.210 HD
ENDBRANCH  15  26
BRANCH  17  28
ATOM     28  O4D ACR d         -21.824  -6.135  -0.518  0.00  0.00    -0.348 OA
BRANCH  28  29
ATOM     29  C4D ACR d         -22.192  -7.493  -0.798  0.00  0.00     0.096 C 
ATOM     30  C3D ACR d         -22.507  -8.086   0.579  0.00  0.00     0.092 C 
ATOM     31  C2D ACR d         -23.064  -9.514   0.517  0.00  0.00     0.110 C 
ATOM     32  H36 ACR d         -23.287  -7.456   1.032  0.00  0.00     0.091 H 
ATOM     33  C1D ACR d         -24.179  -9.693  -0.546  0.00  0.00     0.156 C 
ATOM     34  H35 ACR d         -22.241 -10.192   0.247  0.00  0.00     0.094 H 
ATOM     35  O5D ACR d         -23.916  -8.989  -1.778  0.00  0.00    -0.349 OA
ATOM     36  H34 ACR d         -24.223 -10.766  -0.785  0.00  0.00     0.133 H 
ATOM     37  C5D ACR d         -23.466  -7.618  -1.667  0.00  0.00     0.089 C 
ATOM     38  H38 ACR d         -24.254  -7.047  -1.155  0.00  0.00     0.090 H 
ATOM     39  H37 ACR d         -21.359  -8.022  -1.284  0.00  0.00     0.091 H 
BRANCH  30  40
ATOM     40  O3D ACR d         -21.347  -8.026   1.434  0.00  0.00    -0.390 OA
ATOM     41  H43 ACR d         -21.581  -7.604   2.253  0.00  0.00     0.210 HD
ENDBRANCH  30  40
BRANCH  31  42
ATOM     42  O2D ACR d         -23.524  -9.857   1.840  0.00  0.00    -0.388 OA
ATOM     43  H42 ACR d         -24.337 -10.345   1.773  0.00  0.00     0.210 HD
ENDBRANCH  31  42
BRANCH  33  44
ATOM     44  O1D ACR d         -25.468  -9.309  -0.036  0.00  0.00    -0.369 OA
ATOM     45  H41 ACR d         -25.455  -9.344   0.913  0.00  0.00     0.212 HD
ENDBRANCH  33  44
BRANCH  37  46
ATOM     46  C6D ACR d         -23.327  -7.043  -3.080  0.00  0.00     0.043 C 
ATOM     47  H39 ACR d         -22.688  -7.704  -3.685  0.00  0.00     0.078 H 
ATOM     48  H40 ACR d         -22.874  -6.042  -3.027  0.00  0.00     0.078 H 
BRANCH  46  49
ATOM     49  O6D ACR d         -24.631  -6.951  -3.681  0.00  0.00    -0.398 OA
ATOM     50  H44 ACR d         -24.888  -7.804  -4.012  0.00  0.00     0.209 HD
ENDBRANCH  46  49
ENDBRANCH  37  46
ENDBRANCH  28  29
ENDBRANCH  17  28
BRANCH  21  51
ATOM     51  C6C ACR d         -18.772  -8.428  -2.314  0.00  0.00     0.043 C 
ATOM     52  H29 ACR d         -17.784  -8.312  -1.847  0.00  0.00     0.078 H 
ATOM     53  H30 ACR d         -18.653  -8.554  -3.401  0.00  0.00     0.078 H 
BRANCH  51  54
ATOM     54  O6C ACR d         -19.425  -9.584  -1.768  0.00  0.00    -0.398 OA
ATOM     55  H33 ACR d         -20.325  -9.367  -1.555  0.00  0.00     0.209 HD
ENDBRANCH  51  54
ENDBRANCH  21  51
ENDBRANCH  12  13
ENDBRANCH   1  12
BRANCH   2  56
ATOM     56  O2B ACR d         -17.846  -3.989  -5.253  0.00  0.00    -0.388 OA
ATOM     57  H22 ACR d         -17.041  -3.912  -4.754  0.00  0.00     0.210 HD
ENDBRANCH   2  56
BRANCH   3  58
ATOM     58  O3B ACR d         -18.774  -4.177  -7.948  0.00  0.00    -0.391 OA
ATOM     59  H23 ACR d         -18.158  -4.474  -8.607  0.00  0.00     0.210 HD
ENDBRANCH   3  58
BRANCH   5  60
ATOM     60  C6B ACR d         -19.158  -9.057  -7.320  0.00  0.00    -0.050 C 
ATOM     61  H17 ACR d         -19.817  -9.739  -6.761  0.00  0.00     0.031 H 
ATOM     62  H18 ACR d         -18.125  -9.430  -7.279  0.00  0.00     0.031 H 
ATOM     63  H19 ACR d         -19.489  -9.006  -8.368  0.00  0.00     0.031 H 
ENDBRANCH   5  60
BRANCH   4  64
ATOM     64  N4B ACR d         -19.980  -6.532  -8.872  0.00  0.00    -0.056 N 
ATOM     65  H20 ACR d         -20.442  -7.428  -8.885  0.00  0.00     0.278 HD
ATOM     66  H21 ACR d         -20.656  -5.809  -8.682  0.00  0.00     0.278 HD
BRANCH  64  67
ATOM     67  C1A ACR d         -19.450  -6.290 -10.242  0.00  0.00     0.146 C 
ATOM     68  C2A ACR d         -20.490  -5.818 -11.279  0.00  0.00     0.093 C 
ATOM     69  C3A ACR d         -21.426  -6.973 -11.636  0.00  0.00     0.091 C 
ATOM     70  H2  ACR d         -19.964  -5.482 -12.185  0.00  0.00     0.090 H 
ATOM     71  C4A ACR d         -20.629  -8.021 -12.390  0.00  0.00     0.086 C 
ATOM     72  H3  ACR d         -21.759  -7.421 -10.688  0.00  0.00     0.091 H 
ATOM     73  C5A ACR d         -19.319  -8.325 -11.694  0.00  0.00    -0.027 C 
ATOM     74  H4  ACR d         -20.415  -7.647 -13.401  0.00  0.00     0.094 H 
ATOM     75  C7A ACR d         -18.720  -7.496 -10.826  0.00  0.00    -0.064 C 
ATOM     76  H7  ACR d         -17.690  -7.688 -10.530  0.00  0.00     0.080 H 
ATOM     77  H1  ACR d         -18.713  -5.480 -10.139  0.00  0.00     0.095 H 
BRANCH  68  78
ATOM     78  O2A ACR d         -21.262  -4.743 -10.764  0.00  0.00    -0.390 OA
ATOM     79  H8  ACR d         -21.822  -5.063 -10.065  0.00  0.00     0.210 HD
ENDBRANCH  68  78
BRANCH  69  80
ATOM     80  O3A ACR d         -22.645  -6.604 -12.372  0.00  0.00    -0.390 OA
ATOM     81  H9  ACR d         -22.564  -5.713 -12.691  0.00  0.00     0.210 HD
ENDBRANCH  69  80
BRANCH  71  82
ATOM     82  O4A ACR d         -21.408  -9.214 -12.485  0.00  0.00    -0.388 OA
ATOM     83  H10 ACR d         -20.913  -9.944 -12.131  0.00  0.00     0.210 HD
ENDBRANCH  71  82
BRANCH  73  84
ATOM     84  C6A ACR d         -18.673  -9.624 -12.065  0.00  0.00     0.039 C 
ATOM     85  H5  ACR d         -19.388 -10.293 -12.567  0.00  0.00     0.081 H 
ATOM     86  H6  ACR d         -18.260 -10.128 -11.179  0.00  0.00     0.081 H 
BRANCH  84  87
ATOM     87  O6A ACR d         -17.626  -9.215 -12.966  0.00  0.00    -0.397 OA
ATOM     88  H11 ACR d         -16.782  -9.438 -12.590  0.00  0.00     0.209 HD
ENDBRANCH  84  87
ENDBRANCH  73  84
ENDBRANCH  64  67
ENDBRANCH   4  64
TORSDOF 23
ENDMDL
MODEL 4
REMARK VINA RESULT:      -4.8      1.875      3.288
REMARK  23 active torsions:
REMARK  status: ('A' for Active; 'I' for Inactive)
REMARK    1  A    between atoms: N4B_18  and  C1A_1 
REMARK    2  A    between atoms: C2A_2  and  O2A_8 
REMARK    3  A    between atoms: C3A_3  and  O3A_9 
REMARK    4  A    between atoms: C4A_4  and  O4A_10 
REMARK    5  A    between atoms: C5A_5  and  C6A_6 
REMARK    6  A    between atoms: C6A_6  and  O6A_11 
REMARK    7  A    between atoms: O4C_30  and  C1B_12 
REMARK    8  A    between atoms: C2B_13  and  O2B_19 
REMARK    9  A    between atoms: C3B_14  and  O3B_20 
REMARK   10  A    between atoms: C4B_15  and  N4B_18 
REMARK   11  A    between atoms: C5B_16  and  C6B_17 
REMARK   12  A    between atoms: O4D_42  and  C1C_22 
REMARK   13  A    between atoms: C2C_23  and  O2C_28 
REMARK   14  A    between atoms: C3C_24  and  O3C_29 
REMARK   15  A    between atoms: C4C_25  and  O4C_30 
REMARK   16  A    between atoms: C5C_26  and  C6C_27 
REMARK   17  A    between atoms: C6C_27  and  O6C_32 
REMARK   18  A    between atoms: C1D_33  and  O1D_39 
REMARK   19  A    between atoms: C2D_34  and  O2D_40 
REMARK   20  A    between atoms: C3D_35  and  O3D_41 
REMARK   21  A    between atoms: C4D_36  and  O4D_42 
REMARK   22  A    between atoms: C5D_37  and  C6D_38 
REMARK   23  A    between atoms: C6D_38  and  O6D_44 
ROOT
ATOM      1  C1B ACR d         -18.896  -7.237  -3.420  0.00  0.00     0.159 C 
ATOM      2  C2B ACR d         -18.417  -8.512  -4.113  0.00  0.00     0.110 C 
ATOM      3  C3B ACR d         -18.561  -8.376  -5.638  0.00  0.00     0.094 C 
ATOM      4  C4B ACR d         -20.025  -8.127  -6.003  0.00  0.00     0.154 C 
ATOM      5  C5B ACR d         -20.482  -6.848  -5.269  0.00  0.00     0.068 C 
ATOM      6  O5B ACR d         -20.238  -6.984  -3.846  0.00  0.00    -0.351 OA
ATOM      7  H12 ACR d         -18.875  -7.375  -2.329  0.00  0.00     0.133 H 
ATOM      8  H13 ACR d         -19.014  -9.367  -3.764  0.00  0.00     0.094 H 
ATOM      9  H14 ACR d         -17.946  -7.532  -5.984  0.00  0.00     0.090 H 
ATOM     10  H15 ACR d         -20.614  -8.957  -5.588  0.00  0.00     0.092 H 
ATOM     11  H16 ACR d         -19.905  -5.997  -5.659  0.00  0.00     0.086 H 
ENDROOT
BRANCH   1  12
ATOM     12  O4C ACR d         -18.032  -6.139  -3.777  0.00  0.00    -0.348 OA
BRANCH  12  13
ATOM     13  C4C ACR d         -18.039  -5.012  -2.900  0.00  0.00     0.096 C 
ATOM     14  C3C ACR d         -19.327  -4.225  -3.142  0.00  0.00     0.092 C 
ATOM     15  C2C ACR d         -19.584  -3.139  -2.093  0.00  0.00     0.110 C 
ATOM     16  H26 ACR d         -20.165  -4.936  -3.087  0.00  0.00     0.091 H 
ATOM     17  C1C ACR d         -19.426  -3.665  -0.670  0.00  0.00     0.159 C 
ATOM     18  H25 ACR d         -18.901  -2.292  -2.253  0.00  0.00     0.094 H 
ATOM     19  O5C ACR d         -18.161  -4.340  -0.559  0.00  0.00    -0.348 OA
ATOM     20  H24 ACR d         -19.460  -2.825   0.041  0.00  0.00     0.133 H 
ATOM     21  C5C ACR d         -17.963  -5.467  -1.438  0.00  0.00     0.089 C 
ATOM     22  H28 ACR d         -18.766  -6.198  -1.266  0.00  0.00     0.090 H 
ATOM     23  H27 ACR d         -17.172  -4.373  -3.121  0.00  0.00     0.091 H 
BRANCH  14  24
ATOM     24  O3C ACR d         -19.308  -3.664  -4.461  0.00  0.00    -0.390 OA
ATOM     25  H32 ACR d         -19.857  -4.186  -5.033  0.00  0.00     0.210 HD
ENDBRANCH  14  24
BRANCH  15  26
ATOM     26  O2C ACR d         -20.938  -2.736  -2.255  0.00  0.00    -0.388 OA
ATOM     27  H31 ACR d         -21.218  -2.250  -1.487  0.00  0.00     0.210 HD
ENDBRANCH  15  26
BRANCH  17  28
ATOM     28  O4D ACR d         -20.490  -4.580  -0.378  0.00  0.00    -0.348 OA
BRANCH  28  29
ATOM     29  C4D ACR d         -20.985  -4.631   0.967  0.00  0.00     0.096 C 
ATOM     30  C3D ACR d         -22.419  -4.103   0.858  0.00  0.00     0.092 C 
ATOM     31  C2D ACR d         -23.205  -4.194   2.172  0.00  0.00     0.110 C 
ATOM     32  H36 ACR d         -22.941  -4.736   0.125  0.00  0.00     0.091 H 
ATOM     33  C1D ACR d         -23.063  -5.568   2.879  0.00  0.00     0.156 C 
ATOM     34  H35 ACR d         -22.816  -3.429   2.859  0.00  0.00     0.094 H 
ATOM     35  O5D ACR d         -21.724  -6.105   2.825  0.00  0.00    -0.349 OA
ATOM     36  H34 ACR d         -23.308  -5.407   3.940  0.00  0.00     0.133 H 
ATOM     37  C5D ACR d         -21.053  -6.065   1.543  0.00  0.00     0.089 C 
ATOM     38  H38 ACR d         -21.647  -6.661   0.835  0.00  0.00     0.090 H 
ATOM     39  H37 ACR d         -20.370  -3.998   1.624  0.00  0.00     0.091 H 
BRANCH  30  40
ATOM     40  O3D ACR d         -22.425  -2.753   0.351  0.00  0.00    -0.390 OA
ATOM     41  H43 ACR d         -22.273  -2.767  -0.586  0.00  0.00     0.210 HD
ENDBRANCH  30  40
BRANCH  31  42
ATOM     42  O2D ACR d         -24.582  -3.885   1.875  0.00  0.00    -0.388 OA
ATOM     43  H42 ACR d         -25.147  -4.344   2.486  0.00  0.00     0.210 HD
ENDBRANCH  31  42
BRANCH  33  44
ATOM     44  O1D ACR d         -23.993  -6.534   2.359  0.00  0.00    -0.369 OA
ATOM     45  H41 ACR d         -24.261  -7.121   3.056  0.00  0.00     0.212 HD
ENDBRANCH  33  44
BRANCH  37  46
ATOM     46  C6D ACR d         -19.693  -6.753   1.693  0.00  0.00     0.043 C 
ATOM     47  H39 ACR d         -19.434  -7.264   0.754  0.00  0.00     0.078 H 
ATOM     48  H40 ACR d         -19.740  -7.488   2.510  0.00  0.00     0.078 H 
BRANCH  46  49
ATOM     49  O6D ACR d         -18.694  -5.762   1.994  0.00  0.00    -0.398 OA
ATOM     50  H44 ACR d         -18.431  -5.325   1.193  0.00  0.00     0.209 HD
ENDBRANCH  46  49
ENDBRANCH  37  46
ENDBRANCH  28  29
ENDBRANCH  17  28
BRANCH  21  51
ATOM     51  C6C ACR d         -16.631  -6.125  -1.094  0.00  0.00     0.043 C 
ATOM     52  H29 ACR d         -16.289  -5.769  -0.112  0.00  0.00     0.078 H 
ATOM     53  H30 ACR d         -15.884  -5.863  -1.860  0.00  0.00     0.078 H 
BRANCH  51  54
ATOM     54  O6C ACR d         -16.794  -7.551  -1.054  0.00  0.00    -0.398 OA
ATOM     55  H33 ACR d         -17.571  -7.765  -0.552  0.00  0.00     0.209 HD
ENDBRANCH  51  54
ENDBRANCH  21  51
ENDBRANCH  12  13
ENDBRANCH   1  12
BRANCH   2  56
ATOM     56  O2B ACR d         -17.043  -8.717  -3.790  0.00  0.00    -0.388 OA
ATOM     57  H22 ACR d         -16.892  -9.641  -3.625  0.00  0.00     0.210 HD
ENDBRANCH   2  56
BRANCH   3  58
ATOM     58  O3B ACR d         -18.137  -9.570  -6.287  0.00  0.00    -0.391 OA
ATOM     59  H23 ACR d         -17.459  -9.362  -6.918  0.00  0.00     0.210 HD
ENDBRANCH   3  58
BRANCH   5  60
ATOM     60  C6B ACR d         -21.968  -6.568  -5.465  0.00  0.00    -0.050 C 
ATOM     61  H17 ACR d         -22.201  -5.556  -5.103  0.00  0.00     0.031 H 
ATOM     62  H18 ACR d         -22.558  -7.305  -4.901  0.00  0.00     0.031 H 
ATOM     63  H19 ACR d         -22.217  -6.640  -6.534  0.00  0.00     0.031 H 
ENDBRANCH   5  60
BRANCH   4  64
ATOM     64  N4B ACR d         -20.255  -8.160  -7.464  0.00  0.00    -0.056 N 
ATOM     65  H20 ACR d         -20.536  -9.099  -7.700  0.00  0.00     0.278 HD
ATOM     66  H21 ACR d         -21.011  -7.523  -7.661  0.00  0.00     0.278 HD
BRANCH  64  67
ATOM     67  C1A ACR d         -19.127  -7.797  -8.365  0.00  0.00     0.146 C 
ATOM     68  C2A ACR d         -19.177  -6.369  -8.944  0.00  0.00     0.093 C 
ATOM     69  C3A ACR d         -20.293  -6.272  -9.985  0.00  0.00     0.091 C 
ATOM     70  H2  ACR d         -18.212  -6.143  -9.423  0.00  0.00     0.090 H 
ATOM     71  C4A ACR d         -19.911  -7.122 -11.181  0.00  0.00     0.086 C 
ATOM     72  H3  ACR d         -21.193  -6.713  -9.531  0.00  0.00     0.091 H 
ATOM     73  C5A ACR d         -19.422  -8.490 -10.752  0.00  0.00    -0.027 C 
ATOM     74  H4  ACR d         -19.106  -6.616 -11.735  0.00  0.00     0.094 H 
ATOM     75  C7A ACR d         -18.950  -8.769  -9.528  0.00  0.00    -0.064 C 
ATOM     76  H7  ACR d         -18.429  -9.710  -9.360  0.00  0.00     0.080 H 
ATOM     77  H1  ACR d         -18.219  -7.859  -7.747  0.00  0.00     0.095 H 
BRANCH  68  78
ATOM     78  O2A ACR d         -19.421  -5.418  -7.917  0.00  0.00    -0.390 OA
ATOM     79  H8  ACR d         -20.358  -5.339  -7.776  0.00  0.00     0.210 HD
ENDBRANCH  68  78
BRANCH  69  80
ATOM     80  O3A ACR d         -20.664  -4.909 -10.400  0.00  0.00    -0.390 OA
ATOM     81  H9  ACR d         -20.296  -4.282  -9.788  0.00  0.00     0.210 HD
ENDBRANCH  69  80
BRANCH  71  82
ATOM     82  O4A ACR d         -21.049  -7.265 -12.030  0.00  0.00    -0.388 OA
ATOM     83  H10 ACR d         -21.764  -6.740 -11.691  0.00  0.00     0.210 HD
ENDBRANCH  71  82
BRANCH  73  84
ATOM     84  C6A ACR d         -19.451  -9.550 -11.810  0.00  0.00     0.039 C 
ATOM     85  H5  ACR d         -20.459  -9.977 -11.914  0.00  0.00     0.081 H 
ATOM     86  H6  ACR d         -18.734 -10.352 -11.586  0.00  0.00     0.081 H 
BRANCH  84  87
ATOM     87  O6A ACR d         -19.069  -8.828 -12.996  0.00  0.00    -0.397 OA
ATOM     88  H11 ACR d         -19.799  -8.296 -13.291  0.00  0.00     0.209 HD
ENDBRANCH  84  87
ENDBRANCH  73  84
ENDBRANCH  64  67
ENDBRANCH   4  64
TORSDOF 23
ENDMDL
MODEL 5
REMARK VINA RESULT:      -4.3      2.377      9.789
REMARK  23 active torsions:
REMARK  status: ('A' for Active; 'I' for Inactive)
REMARK    1  A    between atoms: N4B_18  and  C1A_1 
REMARK    2  A    between atoms: C2A_2  and  O2A_8 
REMARK    3  A    between atoms: C3A_3  and  O3A_9 
REMARK    4  A    between atoms: C4A_4  and  O4A_10 
REMARK    5  A    between atoms: C5A_5  and  C6A_6 
REMARK    6  A    between atoms: C6A_6  and  O6A_11 
REMARK    7  A    between atoms: O4C_30  and  C1B_12 
REMARK    8  A    between atoms: C2B_13  and  O2B_19 
REMARK    9  A    between atoms: C3B_14  and  O3B_20 
REMARK   10  A    between atoms: C4B_15  and  N4B_18 
REMARK   11  A    between atoms: C5B_16  and  C6B_17 
REMARK   12  A    between atoms: O4D_42  and  C1C_22 
REMARK   13  A    between atoms: C2C_23  and  O2C_28 
REMARK   14  A    between atoms: C3C_24  and  O3C_29 
REMARK   15  A    between atoms: C4C_25  and  O4C_30 
REMARK   16  A    between atoms: C5C_26  and  C6C_27 
REMARK   17  A    between atoms: C6C_27  and  O6C_32 
REMARK   18  A    between atoms: C1D_33  and  O1D_39 
REMARK   19  A    between atoms: C2D_34  and  O2D_40 
REMARK   20  A    between atoms: C3D_35  and  O3D_41 
REMARK   21  A    between atoms: C4D_36  and  O4D_42 
REMARK   22  A    between atoms: C5D_37  and  C6D_38 
REMARK   23  A    between atoms: C6D_38  and  O6D_44 
ROOT
ATOM      1  C1B ACR d         -20.643  -6.212  -3.789  0.00  0.00     0.159 C 
ATOM      2  C2B ACR d         -20.712  -5.171  -2.674  0.00  0.00     0.110 C 
ATOM      3  C3B ACR d         -21.705  -5.617  -1.589  0.00  0.00     0.094 C 
ATOM      4  C4B ACR d         -23.098  -5.793  -2.196  0.00  0.00     0.154 C 
ATOM      5  C5B ACR d         -22.987  -6.832  -3.333  0.00  0.00     0.068 C 
ATOM      6  O5B ACR d         -21.971  -6.418  -4.281  0.00  0.00    -0.351 OA
ATOM      7  H12 ACR d         -20.001  -5.845  -4.603  0.00  0.00     0.133 H 
ATOM      8  H13 ACR d         -21.035  -4.206  -3.091  0.00  0.00     0.094 H 
ATOM      9  H14 ACR d         -21.367  -6.571  -1.161  0.00  0.00     0.090 H 
ATOM     10  H15 ACR d         -23.376  -4.839  -2.667  0.00  0.00     0.092 H 
ATOM     11  H16 ACR d         -22.704  -7.800  -2.894  0.00  0.00     0.086 H 
ENDROOT
BRANCH   1  12
ATOM     12  O4C ACR d         -20.097  -7.441  -3.270  0.00  0.00    -0.348 OA
BRANCH  12  13
ATOM     13  C4C ACR d         -19.399  -8.271  -4.199  0.00  0.00     0.096 C 
ATOM     14  C3C ACR d         -20.428  -9.106  -4.961  0.00  0.00     0.092 C 
ATOM     15  C2C ACR d         -19.840  -9.850  -6.164  0.00  0.00     0.110 C 
ATOM     16  H26 ACR d         -21.194  -8.417  -5.348  0.00  0.00     0.091 H 
ATOM     17  C1C ACR d         -18.992  -8.939  -7.045  0.00  0.00     0.159 C 
ATOM     18  H25 ACR d         -19.234 -10.702  -5.819  0.00  0.00     0.094 H 
ATOM     19  O5C ACR d         -18.036  -8.250  -6.221  0.00  0.00    -0.348 OA
ATOM     20  H24 ACR d         -18.462  -9.541  -7.799  0.00  0.00     0.133 H 
ATOM     21  C5C ACR d         -18.582  -7.418  -5.176  0.00  0.00     0.089 C 
ATOM     22  H28 ACR d         -19.256  -6.675  -5.627  0.00  0.00     0.090 H 
ATOM     23  H27 ACR d         -18.718  -8.939  -3.652  0.00  0.00     0.091 H 
BRANCH  14  24
ATOM     24  O3C ACR d         -21.068 -10.020  -4.061  0.00  0.00    -0.390 OA
ATOM     25  H32 ACR d         -21.617 -10.617  -4.554  0.00  0.00     0.210 HD
ENDBRANCH  14  24
BRANCH  15  26
ATOM     26  O2C ACR d         -20.945 -10.295  -6.941  0.00  0.00    -0.388 OA
ATOM     27  H31 ACR d         -21.635 -10.600  -6.362  0.00  0.00     0.210 HD
ENDBRANCH  15  26
BRANCH  17  28
ATOM     28  O4D ACR d         -19.839  -7.989  -7.704  0.00  0.00    -0.348 OA
BRANCH  28  29
ATOM     29  C4D ACR d         -19.411  -7.468  -8.969  0.00  0.00     0.096 C 
ATOM     30  C3D ACR d         -20.494  -7.929  -9.949  0.00  0.00     0.092 C 
ATOM     31  C2D ACR d         -20.318  -7.366 -11.365  0.00  0.00     0.110 C 
ATOM     32  H36 ACR d         -21.455  -7.551  -9.570  0.00  0.00     0.091 H 
ATOM     33  C1D ACR d         -20.016  -5.844 -11.388  0.00  0.00     0.156 C 
ATOM     34  H35 ACR d         -19.465  -7.877 -11.834  0.00  0.00     0.094 H 
ATOM     35  O5D ACR d         -19.107  -5.424 -10.348  0.00  0.00    -0.349 OA
ATOM     36  H34 ACR d         -19.531  -5.630 -12.352  0.00  0.00     0.133 H 
ATOM     37  C5D ACR d         -19.363  -5.922  -9.014  0.00  0.00     0.089 C 
ATOM     38  H38 ACR d         -20.358  -5.567  -8.707  0.00  0.00     0.090 H 
ATOM     39  H37 ACR d         -18.425  -7.876  -9.236  0.00  0.00     0.091 H 
BRANCH  30  40
ATOM     40  O3D ACR d         -20.573  -9.369  -9.978  0.00  0.00    -0.390 OA
ATOM     41  H43 ACR d         -21.471  -9.632 -10.134  0.00  0.00     0.210 HD
ENDBRANCH  30  40
BRANCH  31  42
ATOM     42  O2D ACR d         -21.510  -7.686 -12.111  0.00  0.00    -0.388 OA
ATOM     43  H42 ACR d         -21.349  -7.546 -13.037  0.00  0.00     0.210 HD
ENDBRANCH  31  42
BRANCH  33  44
ATOM     44  O1D ACR d         -21.221  -5.061 -11.323  0.00  0.00    -0.369 OA
ATOM     45  H41 ACR d         -21.935  -5.605 -11.012  0.00  0.00     0.212 HD
ENDBRANCH  33  44
BRANCH  37  46
ATOM     46  C6D ACR d         -18.340  -5.293  -8.064  0.00  0.00     0.043 C 
ATOM     47  H39 ACR d         -17.609  -4.710  -8.643  0.00  0.00     0.078 H 
ATOM     48  H40 ACR d         -17.818  -6.086  -7.507  0.00  0.00     0.078 H 
BRANCH  46  49
ATOM     49  O6D ACR d         -19.024  -4.427  -7.140  0.00  0.00    -0.398 OA
ATOM     50  H44 ACR d         -19.957  -4.605  -7.172  0.00  0.00     0.209 HD
ENDBRANCH  46  49
ENDBRANCH  37  46
ENDBRANCH  28  29
ENDBRANCH  17  28
BRANCH  21  51
ATOM     51  C6C ACR d         -17.436  -6.677  -4.495  0.00  0.00     0.043 C 
ATOM     52  H29 ACR d         -16.486  -6.950  -4.975  0.00  0.00     0.078 H 
ATOM     53  H30 ACR d         -17.402  -6.954  -3.430  0.00  0.00     0.078 H 
BRANCH  51  54
ATOM     54  O6C ACR d         -17.641  -5.261  -4.613  0.00  0.00    -0.398 OA
ATOM     55  H33 ACR d         -18.007  -4.926  -3.803  0.00  0.00     0.209 HD
ENDBRANCH  51  54
ENDBRANCH  21  51
ENDBRANCH  12  13
ENDBRANCH   1  12
BRANCH   2  56
ATOM     56  O2B ACR d         -19.416  -5.037  -2.095  0.00  0.00    -0.388 OA
ATOM     57  H22 ACR d         -18.857  -4.540  -2.681  0.00  0.00     0.210 HD
ENDBRANCH   2  56
BRANCH   3  58
ATOM     58  O3B ACR d         -21.790  -4.638  -0.558  0.00  0.00    -0.391 OA
ATOM     59  H23 ACR d         -22.004  -3.795  -0.940  0.00  0.00     0.210 HD
ENDBRANCH   3  58
BRANCH   5  60
ATOM     60  C6B ACR d         -24.298  -7.000  -4.093  0.00  0.00    -0.050 C 
ATOM     61  H17 ACR d         -24.241  -6.455  -5.047  0.00  0.00     0.031 H 
ATOM     62  H18 ACR d         -25.126  -6.599  -3.491  0.00  0.00     0.031 H 
ATOM     63  H19 ACR d         -24.472  -8.068  -4.292  0.00  0.00     0.031 H 
ENDBRANCH   5  60
BRANCH   4  64
ATOM     64  N4B ACR d         -24.132  -6.053  -1.171  0.00  0.00    -0.056 N 
ATOM     65  H20 ACR d         -23.978  -5.398  -0.420  0.00  0.00     0.278 HD
ATOM     66  H21 ACR d         -25.026  -5.872  -1.597  0.00  0.00     0.278 HD
BRANCH  64  67
ATOM     67  C1A ACR d         -24.199  -7.410  -0.565  0.00  0.00     0.146 C 
ATOM     68  C2A ACR d         -24.543  -7.446   0.939  0.00  0.00     0.093 C 
ATOM     69  C3A ACR d         -23.355  -6.931   1.753  0.00  0.00     0.091 C 
ATOM     70  H2  ACR d         -24.762  -8.484   1.231  0.00  0.00     0.090 H 
ATOM     71  C4A ACR d         -22.219  -7.928   1.629  0.00  0.00     0.086 C 
ATOM     72  H3  ACR d         -23.030  -5.990   1.285  0.00  0.00     0.091 H 
ATOM     73  C5A ACR d         -21.999  -8.338   0.188  0.00  0.00    -0.027 C 
ATOM     74  H4  ACR d         -22.464  -8.823   2.219  0.00  0.00     0.094 H 
ATOM     75  C7A ACR d         -22.928  -8.227  -0.775  0.00  0.00    -0.064 C 
ATOM     76  H7  ACR d         -22.771  -8.731  -1.727  0.00  0.00     0.080 H 
ATOM     77  H1  ACR d         -25.013  -7.932  -1.090  0.00  0.00     0.095 H 
BRANCH  68  78
ATOM     78  O2A ACR d         -25.676  -6.635   1.215  0.00  0.00    -0.390 OA
ATOM     79  H8  ACR d         -25.424  -5.927   1.797  0.00  0.00     0.210 HD
ENDBRANCH  68  78
BRANCH  69  80
ATOM     80  O3A ACR d         -23.635  -6.618   3.163  0.00  0.00    -0.390 OA
ATOM     81  H9  ACR d         -24.473  -6.176   3.229  0.00  0.00     0.210 HD
ENDBRANCH  69  80
BRANCH  71  82
ATOM     82  O4A ACR d         -21.026  -7.337   2.145  0.00  0.00    -0.388 OA
ATOM     83  H10 ACR d         -20.388  -8.017   2.322  0.00  0.00     0.210 HD
ENDBRANCH  71  82
BRANCH  73  84
ATOM     84  C6A ACR d         -20.662  -8.937  -0.119  0.00  0.00     0.039 C 
ATOM     85  H5  ACR d         -20.330  -9.602   0.691  0.00  0.00     0.081 H 
ATOM     86  H6  ACR d         -19.907  -8.156  -0.285  0.00  0.00     0.081 H 
BRANCH  84  87
ATOM     87  O6A ACR d         -20.914  -9.679  -1.328  0.00  0.00    -0.397 OA
ATOM     88  H11 ACR d         -20.111 -10.100  -1.614  0.00  0.00     0.209 HD
ENDBRANCH  84  87
ENDBRANCH  73  84
ENDBRANCH  64  67
ENDBRANCH   4  64
TORSDOF 23
ENDMDL
