MODEL 1
REMARK VINA RESULT:      -5.8      0.000      0.000
REMARK  2 active torsions:
REMARK  status: ('A' for Active; 'I' for Inactive)
REMARK    1  A    between atoms: OAH_8  and  CAA_1 
REMARK    2  A    between atoms: OAH_8  and  CAI_9 
ROOT
ATOM      1  CAB BZ3 d          14.898  10.428  -0.100  0.00  0.00    -0.022 A 
ATOM      2  CAC BZ3 d          14.527   9.716  -4.614  0.00  0.00    -0.049 A 
ATOM      3  CAD BZ3 d          13.593  10.265  -0.545  0.00  0.00    -0.056 A 
ATOM      4  CAE BZ3 d          15.503   9.931  -3.639  0.00  0.00    -0.054 A 
ATOM      5  CAF BZ3 d          12.792   9.851  -2.924  0.00  0.00    -0.039 A 
ATOM      6  NAG BZ3 d          15.764  10.322  -1.146  0.00  0.00    -0.365 N 
ATOM      7  CAI BZ3 d          13.182   9.666  -4.256  0.00  0.00     0.069 A 
ATOM      8  CAJ BZ3 d          13.769  10.064  -1.946  0.00  0.00    -0.005 A 
ATOM      9  CAK BZ3 d          15.101  10.109  -2.306  0.00  0.00     0.042 A 
ATOM     10  H4  BZ3 d          15.187  10.615   0.934  0.00  0.00     0.111 H 
ATOM     11  H5  BZ3 d          14.817   9.588  -5.651  0.00  0.00     0.087 H 
ATOM     12  H6  BZ3 d          12.668  10.284   0.030  0.00  0.00     0.086 H 
ATOM     13  H7  BZ3 d          16.553   9.961  -3.907  0.00  0.00     0.087 H 
ATOM     14  H8  BZ3 d          11.743   9.829  -2.654  0.00  0.00     0.089 H 
ATOM     15  H9  BZ3 d          16.789  10.393  -1.065  0.00  0.00     0.165 HD
ENDROOT
BRANCH   7  16
ATOM     16  OAH BZ3 d          12.238   9.459  -5.235  0.00  0.00    -0.356 OA
BRANCH  16  17
ATOM     17  CAA BZ3 d          10.843   9.563  -4.942  0.00  0.00     0.010 C 
ATOM     18  H1  BZ3 d          10.660   9.245  -3.905  0.00  0.00     0.066 H 
ATOM     19  H2  BZ3 d          10.275   8.917  -5.629  0.00  0.00     0.066 H 
ATOM     20  H3  BZ3 d          10.518  10.606  -5.068  0.00  0.00     0.066 H 
ENDBRANCH  16  17
ENDBRANCH   7  16
TORSDOF 2
ENDMDL
MODEL 2
REMARK VINA RESULT:      -5.8      2.545      4.544
REMARK  2 active torsions:
REMARK  status: ('A' for Active; 'I' for Inactive)
REMARK    1  A    between atoms: OAH_8  and  CAA_1 
REMARK    2  A    between atoms: OAH_8  and  CAI_9 
ROOT
ATOM      1  CAB BZ3 d          12.355   9.191  -4.589  0.00  0.00    -0.022 A 
ATOM      2  CAC BZ3 d          14.395  10.758  -0.793  0.00  0.00    -0.049 A 
ATOM      3  CAD BZ3 d          13.742   9.134  -4.623  0.00  0.00    -0.056 A 
ATOM      4  CAE BZ3 d          13.118  10.565  -1.322  0.00  0.00    -0.054 A 
ATOM      5  CAF BZ3 d          15.382   9.865  -2.821  0.00  0.00    -0.039 A 
ATOM      6  NAG BZ3 d          11.939   9.703  -3.396  0.00  0.00    -0.365 N 
ATOM      7  CAI BZ3 d          15.519  10.401  -1.535  0.00  0.00     0.069 A 
ATOM      8  CAJ BZ3 d          14.103   9.669  -3.350  0.00  0.00    -0.005 A 
ATOM      9  CAK BZ3 d          12.992  10.021  -2.610  0.00  0.00     0.042 A 
ATOM     10  H4  BZ3 d          11.696   8.873  -5.396  0.00  0.00     0.111 H 
ATOM     11  H5  BZ3 d          14.512  11.187   0.196  0.00  0.00     0.087 H 
ATOM     12  H6  BZ3 d          14.390   8.773  -5.420  0.00  0.00     0.086 H 
ATOM     13  H7  BZ3 d          12.237  10.830  -0.748  0.00  0.00     0.087 H 
ATOM     14  H8  BZ3 d          16.260   9.605  -3.401  0.00  0.00     0.089 H 
ATOM     15  H9  BZ3 d          10.952   9.829  -3.128  0.00  0.00     0.165 HD
ENDROOT
BRANCH   7  16
ATOM     16  OAH BZ3 d          16.767  10.606  -0.995  0.00  0.00    -0.356 OA
BRANCH  16  17
ATOM     17  CAA BZ3 d          16.919  11.134   0.324  0.00  0.00     0.010 C 
ATOM     18  H1  BZ3 d          16.631  12.196   0.330  0.00  0.00     0.066 H 
ATOM     19  H2  BZ3 d          17.968  11.037   0.640  0.00  0.00     0.066 H 
ATOM     20  H3  BZ3 d          16.274  10.577   1.019  0.00  0.00     0.066 H 
ENDBRANCH  16  17
ENDBRANCH   7  16
TORSDOF 2
ENDMDL
MODEL 3
REMARK VINA RESULT:      -5.1      1.192      2.180
REMARK  2 active torsions:
REMARK  status: ('A' for Active; 'I' for Inactive)
REMARK    1  A    between atoms: OAH_8  and  CAA_1 
REMARK    2  A    between atoms: OAH_8  and  CAI_9 
ROOT
ATOM      1  CAB BZ3 d          16.495  10.913   0.076  0.00  0.00    -0.022 A 
ATOM      2  CAC BZ3 d          12.656  10.113  -2.300  0.00  0.00    -0.049 A 
ATOM      3  CAD BZ3 d          16.711  10.484  -1.226  0.00  0.00    -0.056 A 
ATOM      4  CAE BZ3 d          13.065  10.537  -1.035  0.00  0.00    -0.054 A 
ATOM      5  CAF BZ3 d          14.972   9.889  -2.986  0.00  0.00    -0.039 A 
ATOM      6  NAG BZ3 d          15.157  11.001   0.322  0.00  0.00    -0.365 N 
ATOM      7  CAI BZ3 d          13.605   9.801  -3.272  0.00  0.00     0.069 A 
ATOM      8  CAJ BZ3 d          15.383  10.317  -1.719  0.00  0.00    -0.005 A 
ATOM      9  CAK BZ3 d          14.439  10.628  -0.761  0.00  0.00     0.042 A 
ATOM     10  H4  BZ3 d          17.279  11.145   0.796  0.00  0.00     0.111 H 
ATOM     11  H5  BZ3 d          11.600  10.026  -2.527  0.00  0.00     0.087 H 
ATOM     12  H6  BZ3 d          17.656  10.317  -1.742  0.00  0.00     0.086 H 
ATOM     13  H7  BZ3 d          12.334  10.792  -0.276  0.00  0.00     0.087 H 
ATOM     14  H8  BZ3 d          15.706   9.629  -3.739  0.00  0.00     0.089 H 
ATOM     15  H9  BZ3 d          14.747  11.312   1.215  0.00  0.00     0.165 HD
ENDROOT
BRANCH   7  16
ATOM     16  OAH BZ3 d          13.178   9.379  -4.510  0.00  0.00    -0.356 OA
BRANCH  16  17
ATOM     17  CAA BZ3 d          11.785   9.307  -4.821  0.00  0.00     0.010 C 
ATOM     18  H1  BZ3 d          11.561   8.332  -5.279  0.00  0.00     0.066 H 
ATOM     19  H2  BZ3 d          11.525  10.111  -5.525  0.00  0.00     0.066 H 
ATOM     20  H3  BZ3 d          11.197   9.422  -3.899  0.00  0.00     0.066 H 
ENDBRANCH  16  17
ENDBRANCH   7  16
TORSDOF 2
ENDMDL
MODEL 4
REMARK VINA RESULT:      -3.4      2.351      3.807
REMARK  2 active torsions:
REMARK  status: ('A' for Active; 'I' for Inactive)
REMARK    1  A    between atoms: OAH_8  and  CAA_1 
REMARK    2  A    between atoms: OAH_8  and  CAI_9 
ROOT
ATOM      1  CAB BZ3 d          14.702   9.682  -5.626  0.00  0.00    -0.022 A 
ATOM      2  CAC BZ3 d          15.781  10.318  -1.215  0.00  0.00    -0.049 A 
ATOM      3  CAD BZ3 d          13.610   9.683  -4.768  0.00  0.00    -0.056 A 
ATOM      4  CAE BZ3 d          16.393  10.229  -2.466  0.00  0.00    -0.054 A 
ATOM      5  CAF BZ3 d          13.608   9.981  -2.241  0.00  0.00    -0.039 A 
ATOM      6  NAG BZ3 d          15.850   9.888  -4.921  0.00  0.00    -0.365 N 
ATOM      7  CAI BZ3 d          14.396  10.204  -1.105  0.00  0.00     0.069 A 
ATOM      8  CAJ BZ3 d          14.221   9.895  -3.496  0.00  0.00    -0.005 A 
ATOM      9  CAK BZ3 d          15.592  10.011  -3.599  0.00  0.00     0.042 A 
ATOM     10  H4  BZ3 d          14.648   9.539  -6.705  0.00  0.00     0.111 H 
ATOM     11  H5  BZ3 d          16.383  10.475  -0.328  0.00  0.00     0.087 H 
ATOM     12  H6  BZ3 d          12.556   9.553  -5.005  0.00  0.00     0.086 H 
ATOM     13  H7  BZ3 d          17.468  10.326  -2.563  0.00  0.00     0.087 H 
ATOM     14  H8  BZ3 d          12.534   9.876  -2.148  0.00  0.00     0.089 H 
ATOM     15  H9  BZ3 d          16.790   9.944  -5.340  0.00  0.00     0.165 HD
ENDROOT
BRANCH   7  16
ATOM     16  OAH BZ3 d          13.816  10.289   0.139  0.00  0.00    -0.356 OA
BRANCH  16  17
ATOM     17  CAA BZ3 d          12.431   9.990   0.324  0.00  0.00     0.010 C 
ATOM     18  H1  BZ3 d          11.835  10.531  -0.426  0.00  0.00     0.066 H 
ATOM     19  H2  BZ3 d          12.121  10.301   1.333  0.00  0.00     0.066 H 
ATOM     20  H3  BZ3 d          12.270   8.908   0.208  0.00  0.00     0.066 H 
ENDBRANCH  16  17
ENDBRANCH   7  16
TORSDOF 2
ENDMDL
MODEL 5
REMARK VINA RESULT:      -2.9      1.550      2.151
REMARK  2 active torsions:
REMARK  status: ('A' for Active; 'I' for Inactive)
REMARK    1  A    between atoms: OAH_8  and  CAA_1 
REMARK    2  A    between atoms: OAH_8  and  CAI_9 
ROOT
ATOM      1  CAB BZ3 d          13.322  10.753   0.324  0.00  0.00    -0.022 A 
ATOM      2  CAC BZ3 d          15.993  10.134  -3.351  0.00  0.00    -0.049 A 
ATOM      3  CAD BZ3 d          12.628  10.439  -0.837  0.00  0.00    -0.056 A 
ATOM      4  CAE BZ3 d          16.092  10.441  -1.994  0.00  0.00    -0.054 A 
ATOM      5  CAF BZ3 d          13.579   9.999  -3.156  0.00  0.00    -0.039 A 
ATOM      6  NAG BZ3 d          14.661  10.787   0.072  0.00  0.00    -0.365 N 
ATOM      7  CAI BZ3 d          14.744   9.904  -3.926  0.00  0.00     0.069 A 
ATOM      8  CAJ BZ3 d          13.678  10.304  -1.794  0.00  0.00    -0.005 A 
ATOM      9  CAK BZ3 d          14.917  10.527  -1.230  0.00  0.00     0.042 A 
ATOM     10  H4  BZ3 d          12.864  10.944   1.294  0.00  0.00     0.111 H 
ATOM     11  H5  BZ3 d          16.888  10.073  -3.960  0.00  0.00     0.087 H 
ATOM     12  H6  BZ3 d          11.555  10.325  -0.981  0.00  0.00     0.086 H 
ATOM     13  H7  BZ3 d          17.060  10.611  -1.536  0.00  0.00     0.087 H 
ATOM     14  H8  BZ3 d          12.609   9.837  -3.611  0.00  0.00     0.089 H 
ATOM     15  H9  BZ3 d          15.383  10.984   0.781  0.00  0.00     0.165 HD
ENDROOT
BRANCH   7  16
ATOM     16  OAH BZ3 d          14.670   9.608  -5.267  0.00  0.00    -0.356 OA
BRANCH  16  17
ATOM     17  CAA BZ3 d          15.841   9.254  -6.006  0.00  0.00     0.010 C 
ATOM     18  H1  BZ3 d          16.708   9.226  -5.328  0.00  0.00     0.066 H 
ATOM     19  H2  BZ3 d          16.016  10.000  -6.795  0.00  0.00     0.066 H 
ATOM     20  H3  BZ3 d          15.702   8.264  -6.463  0.00  0.00     0.066 H 
ENDBRANCH  16  17
ENDBRANCH   7  16
TORSDOF 2
ENDMDL
