MODEL 1
REMARK VINA RESULT:      -7.2      0.000      0.000
REMARK  5 active torsions:
REMARK  status: ('A' for Active; 'I' for Inactive)
REMARK    1  A    between atoms: C2_2  and  O2_12 
REMARK    2  A    between atoms: C3_4  and  O3_11 
REMARK    3  A    between atoms: C4_5  and  O4_13 
REMARK    4  A    between atoms: C5_6  and  C6_7 
REMARK    5  A    between atoms: C6_7  and  O6_14 
ROOT
ATOM      1  C1  GIM d          30.171  65.848   9.811  0.00  0.00     0.138 A 
ATOM      2  C2  GIM d          31.474  65.294   9.232  0.00  0.00     0.119 C 
ATOM      3  N10 GIM d          29.305  66.512   8.962  0.00  0.00    -0.332 N 
ATOM      4  C3  GIM d          32.034  66.345   8.270  0.00  0.00     0.093 C 
ATOM      5  C4  GIM d          31.053  66.498   7.123  0.00  0.00     0.085 C 
ATOM      6  C5  GIM d          29.618  66.841   7.563  0.00  0.00     0.065 C 
ATOM      7  C7  GIM d          28.474  66.452  10.980  0.00  0.00     0.019 A 
ATOM      8  C8  GIM d          28.231  66.843   9.727  0.00  0.00    -0.001 A 
ATOM      9  N1  GIM d          29.665  65.827  11.024  0.00  0.00    -0.243 NA
ATOM     10  H1  GIM d          31.223  64.397   8.649  0.00  0.00     0.099 H 
ATOM     11  H2  GIM d          32.199  67.308   8.774  0.00  0.00     0.091 H 
ATOM     12  H3  GIM d          31.036  65.555   6.557  0.00  0.00     0.090 H 
ATOM     13  H4  GIM d          29.472  67.925   7.442  0.00  0.00     0.080 H 
ATOM     14  H7  GIM d          27.814  66.613  11.831  0.00  0.00     0.117 H 
ATOM     15  H8  GIM d          27.327  67.340   9.379  0.00  0.00     0.113 H 
ENDROOT
BRANCH   6  16
ATOM     16  C6  GIM d          28.670  66.090   6.589  0.00  0.00     0.038 C 
ATOM     17  H5  GIM d          28.521  66.692   5.681  0.00  0.00     0.077 H 
ATOM     18  H6  GIM d          27.699  65.918   7.078  0.00  0.00     0.077 H 
BRANCH  16  19
ATOM     19  O6  GIM d          29.262  64.828   6.239  0.00  0.00    -0.399 OA
ATOM     20  H12 GIM d          28.618  64.138   6.339  0.00  0.00     0.209 HD
ENDBRANCH  16  19
ENDBRANCH   6  16
BRANCH   5  21
ATOM     21  O4  GIM d          31.476  67.569   6.268  0.00  0.00    -0.391 OA
ATOM     22  H11 GIM d          30.713  68.024   5.931  0.00  0.00     0.210 HD
ENDBRANCH   5  21
BRANCH   4  23
ATOM     23  O3  GIM d          33.284  65.786   7.769  0.00  0.00    -0.390 OA
ATOM     24  H9  GIM d          33.512  66.209   6.950  0.00  0.00     0.210 HD
ENDBRANCH   4  23
BRANCH   2  25
ATOM     25  O2  GIM d          32.424  64.901  10.189  0.00  0.00    -0.385 OA
ATOM     26  H10 GIM d          32.055  64.220  10.738  0.00  0.00     0.210 HD
ENDBRANCH   2  25
TORSDOF 5
ENDMDL
MODEL 2
REMARK VINA RESULT:      -6.1      1.771      3.650
REMARK  5 active torsions:
REMARK  status: ('A' for Active; 'I' for Inactive)
REMARK    1  A    between atoms: C2_2  and  O2_12 
REMARK    2  A    between atoms: C3_4  and  O3_11 
REMARK    3  A    between atoms: C4_5  and  O4_13 
REMARK    4  A    between atoms: C5_6  and  C6_7 
REMARK    5  A    between atoms: C6_7  and  O6_14 
ROOT
ATOM      1  C1  GIM d          30.486  66.189   7.644  0.00  0.00     0.138 A 
ATOM      2  C2  GIM d          31.700  66.215   8.575  0.00  0.00     0.119 C 
ATOM      3  N10 GIM d          29.226  66.139   8.210  0.00  0.00    -0.332 N 
ATOM      4  C3  GIM d          31.433  65.224   9.709  0.00  0.00     0.093 C 
ATOM      5  C4  GIM d          30.241  65.728  10.500  0.00  0.00     0.085 C 
ATOM      6  C5  GIM d          28.979  65.970   9.650  0.00  0.00     0.065 C 
ATOM      7  C7  GIM d          29.067  66.181   6.033  0.00  0.00     0.019 A 
ATOM      8  C8  GIM d          28.358  66.174   7.164  0.00  0.00    -0.001 A 
ATOM      9  N1  GIM d          30.378  66.204   6.334  0.00  0.00    -0.243 NA
ATOM     10  H1  GIM d          31.763  67.223   9.009  0.00  0.00     0.099 H 
ATOM     11  H2  GIM d          31.247  64.210   9.325  0.00  0.00     0.091 H 
ATOM     12  H3  GIM d          30.526  66.671  10.989  0.00  0.00     0.090 H 
ATOM     13  H4  GIM d          28.314  65.102   9.769  0.00  0.00     0.080 H 
ATOM     14  H7  GIM d          28.650  66.170   5.027  0.00  0.00     0.117 H 
ATOM     15  H8  GIM d          27.271  66.194   7.236  0.00  0.00     0.113 H 
ENDROOT
BRANCH   6  16
ATOM     16  C6  GIM d          28.284  67.225  10.246  0.00  0.00     0.038 C 
ATOM     17  H5  GIM d          27.193  67.094  10.211  0.00  0.00     0.077 H 
ATOM     18  H6  GIM d          28.566  68.115   9.662  0.00  0.00     0.077 H 
BRANCH  16  19
ATOM     19  O6  GIM d          28.706  67.391  11.610  0.00  0.00    -0.399 OA
ATOM     20  H12 GIM d          28.015  67.097  12.192  0.00  0.00     0.209 HD
ENDBRANCH  16  19
ENDBRANCH   6  16
BRANCH   5  21
ATOM     21  O4  GIM d          29.875  64.758  11.491  0.00  0.00    -0.391 OA
ATOM     22  H11 GIM d          29.960  63.885  11.125  0.00  0.00     0.210 HD
ENDBRANCH   5  21
BRANCH   4  23
ATOM     23  O3  GIM d          32.624  65.263  10.549  0.00  0.00    -0.390 OA
ATOM     24  H9  GIM d          32.393  65.594  11.409  0.00  0.00     0.210 HD
ENDBRANCH   4  23
BRANCH   2  25
ATOM     25  O2  GIM d          32.932  65.971   7.945  0.00  0.00    -0.385 OA
ATOM     26  H10 GIM d          33.174  65.061   8.068  0.00  0.00     0.210 HD
ENDBRANCH   2  25
TORSDOF 5
ENDMDL
MODEL 3
REMARK VINA RESULT:      -6.1      1.649      3.465
REMARK  5 active torsions:
REMARK  status: ('A' for Active; 'I' for Inactive)
REMARK    1  A    between atoms: C2_2  and  O2_12 
REMARK    2  A    between atoms: C3_4  and  O3_11 
REMARK    3  A    between atoms: C4_5  and  O4_13 
REMARK    4  A    between atoms: C5_6  and  C6_7 
REMARK    5  A    between atoms: C6_7  and  O6_14 
ROOT
ATOM      1  C1  GIM d          29.384  66.365   7.388  0.00  0.00     0.138 A 
ATOM      2  C2  GIM d          30.854  66.781   7.306  0.00  0.00     0.119 C 
ATOM      3  N10 GIM d          28.900  65.899   8.596  0.00  0.00    -0.332 N 
ATOM      4  C3  GIM d          31.669  65.747   8.086  0.00  0.00     0.093 C 
ATOM      5  C4  GIM d          31.253  65.825   9.542  0.00  0.00     0.085 C 
ATOM      6  C5  GIM d          29.742  65.647   9.775  0.00  0.00     0.065 C 
ATOM      7  C7  GIM d          27.306  65.906   7.105  0.00  0.00     0.019 A 
ATOM      8  C8  GIM d          27.578  65.657   8.387  0.00  0.00    -0.001 A 
ATOM      9  N1  GIM d          28.419  66.356   6.496  0.00  0.00    -0.243 NA
ATOM     10  H1  GIM d          30.953  67.750   7.816  0.00  0.00     0.099 H 
ATOM     11  H2  GIM d          31.519  64.731   7.690  0.00  0.00     0.091 H 
ATOM     12  H3  GIM d          31.561  66.805   9.935  0.00  0.00     0.090 H 
ATOM     13  H4  GIM d          29.563  64.608  10.089  0.00  0.00     0.080 H 
ATOM     14  H7  GIM d          26.337  65.767   6.627  0.00  0.00     0.117 H 
ATOM     15  H8  GIM d          26.864  65.319   9.137  0.00  0.00     0.113 H 
ENDROOT
BRANCH   6  16
ATOM     16  C6  GIM d          29.364  66.600  10.943  0.00  0.00     0.038 C 
ATOM     17  H5  GIM d          29.147  67.602  10.546  0.00  0.00     0.077 H 
ATOM     18  H6  GIM d          30.200  66.660  11.655  0.00  0.00     0.077 H 
BRANCH  16  19
ATOM     19  O6  GIM d          28.200  66.085  11.610  0.00  0.00    -0.399 OA
ATOM     20  H12 GIM d          27.815  66.768  12.146  0.00  0.00     0.209 HD
ENDBRANCH  16  19
ENDBRANCH   6  16
BRANCH   5  21
ATOM     21  O4  GIM d          31.898  64.780  10.284  0.00  0.00    -0.391 OA
ATOM     22  H11 GIM d          31.276  64.082  10.451  0.00  0.00     0.210 HD
ENDBRANCH   5  21
BRANCH   4  23
ATOM     23  O3  GIM d          33.059  66.168   7.954  0.00  0.00    -0.390 OA
ATOM     24  H9  GIM d          33.623  65.404   7.977  0.00  0.00     0.210 HD
ENDBRANCH   4  23
BRANCH   2  25
ATOM     25  O2  GIM d          31.344  66.959   6.002  0.00  0.00    -0.385 OA
ATOM     26  H10 GIM d          30.700  67.426   5.484  0.00  0.00     0.210 HD
ENDBRANCH   2  25
TORSDOF 5
ENDMDL
MODEL 4
REMARK VINA RESULT:      -4.5      1.392      3.406
REMARK  5 active torsions:
REMARK  status: ('A' for Active; 'I' for Inactive)
REMARK    1  A    between atoms: C2_2  and  O2_12 
REMARK    2  A    between atoms: C3_4  and  O3_11 
REMARK    3  A    between atoms: C4_5  and  O4_13 
REMARK    4  A    between atoms: C5_6  and  C6_7 
REMARK    5  A    between atoms: C6_7  and  O6_14 
ROOT
ATOM      1  C1  GIM d          28.933  65.958   8.534  0.00  0.00     0.138 A 
ATOM      2  C2  GIM d          29.497  66.938   7.504  0.00  0.00     0.119 C 
ATOM      3  N10 GIM d          29.809  65.365   9.425  0.00  0.00    -0.332 N 
ATOM      4  C3  GIM d          30.808  66.350   6.978  0.00  0.00     0.093 C 
ATOM      5  C4  GIM d          31.789  66.288   8.133  0.00  0.00     0.085 C 
ATOM      6  C5  GIM d          31.271  65.511   9.358  0.00  0.00     0.065 C 
ATOM      7  C7  GIM d          27.773  64.679   9.810  0.00  0.00     0.019 A 
ATOM      8  C8  GIM d          29.034  64.597  10.236  0.00  0.00    -0.001 A 
ATOM      9  N1  GIM d          27.713  65.530   8.769  0.00  0.00    -0.243 NA
ATOM     10  H1  GIM d          29.729  67.875   8.030  0.00  0.00     0.099 H 
ATOM     11  H2  GIM d          30.658  65.353   6.539  0.00  0.00     0.091 H 
ATOM     12  H3  GIM d          32.026  67.318   8.440  0.00  0.00     0.090 H 
ATOM     13  H4  GIM d          31.699  64.498   9.328  0.00  0.00     0.080 H 
ATOM     14  H7  GIM d          26.926  64.143  10.236  0.00  0.00     0.117 H 
ATOM     15  H8  GIM d          29.384  64.014  11.088  0.00  0.00     0.113 H 
ENDROOT
BRANCH   6  16
ATOM     16  C6  GIM d          31.814  66.254  10.609  0.00  0.00     0.038 C 
ATOM     17  H5  GIM d          31.122  66.111  11.452  0.00  0.00     0.077 H 
ATOM     18  H6  GIM d          31.906  67.328  10.389  0.00  0.00     0.077 H 
BRANCH  16  19
ATOM     19  O6  GIM d          33.103  65.718  10.949  0.00  0.00    -0.399 OA
ATOM     20  H12 GIM d          33.755  66.408  10.897  0.00  0.00     0.209 HD
ENDBRANCH  16  19
ENDBRANCH   6  16
BRANCH   5  21
ATOM     21  O4  GIM d          32.986  65.619   7.713  0.00  0.00    -0.391 OA
ATOM     22  H11 GIM d          33.100  65.734   6.777  0.00  0.00     0.210 HD
ENDBRANCH   5  21
BRANCH   4  23
ATOM     23  O3  GIM d          31.290  67.301   5.983  0.00  0.00    -0.390 OA
ATOM     24  H9  GIM d          32.109  66.988   5.618  0.00  0.00     0.210 HD
ENDBRANCH   4  23
BRANCH   2  25
ATOM     25  O2  GIM d          28.616  67.269   6.461  0.00  0.00    -0.385 OA
ATOM     26  H10 GIM d          28.393  66.484   5.976  0.00  0.00     0.210 HD
ENDBRANCH   2  25
TORSDOF 5
ENDMDL
