MODEL 1
REMARK VINA RESULT:      -4.9      0.000      0.000
REMARK  4 active torsions:
REMARK  status: ('A' for Active; 'I' for Inactive)
REMARK    1  A    between atoms: C3_2  and  O3_3 
REMARK    2  A    between atoms: C4_4  and  O4_5 
REMARK    3  A    between atoms: C_8  and  C1_12 
REMARK    4  A    between atoms: C1_12  and  O30_10 
ROOT
ATOM      1  C2  FA1 d          44.167   6.273  25.432  0.00  0.00    -0.001 C 
ATOM      2  C3  FA1 d          44.822   5.070  26.090  0.00  0.00     0.067 C 
ATOM      3  C4  FA1 d          45.902   5.554  27.060  0.00  0.00     0.076 C 
ATOM      4  C5  FA1 d          45.339   6.605  27.999  0.00  0.00    -0.074 C 
ATOM      5  C6  FA1 d          44.207   7.338  27.663  0.00  0.00    -0.066 C 
ATOM      6  C1  FA1 d          43.451   7.169  26.476  0.00  0.00     0.145 C 
ATOM      7  H1  FA1 d          43.428   5.921  24.696  0.00  0.00     0.042 H 
ATOM      8  H2  FA1 d          44.940   6.866  24.921  0.00  0.00     0.042 H 
ATOM      9  H3  FA1 d          44.060   4.511  26.654  0.00  0.00     0.087 H 
ATOM     10  H5  FA1 d          46.744   5.985  26.498  0.00  0.00     0.093 H 
ATOM     11  H7  FA1 d          45.831   6.788  28.953  0.00  0.00     0.080 H 
ATOM     12  H8  FA1 d          43.875   8.100  28.366  0.00  0.00     0.081 H 
ENDROOT
BRANCH   6  13
ATOM     13  C   FA1 d          43.259   8.608  25.960  0.00  0.00     0.327 C 
ATOM     14  O1  FA1 d          44.449   9.321  25.638  0.00  0.00    -0.184 OA
ATOM     15  O2  FA1 d          42.258   8.647  24.973  0.00  0.00    -0.184 OA
ENDBRANCH   6  13
BRANCH   6  16
ATOM     16  O30 FA1 d          42.165   6.596  26.911  0.00  0.00    -0.380 OA
ATOM     17  H9  FA1 d          41.812   7.116  27.623  0.00  0.00     0.211 HD
ENDBRANCH   6  16
BRANCH   2  18
ATOM     18  O3  FA1 d          45.393   4.192  25.082  0.00  0.00    -0.393 OA
ATOM     19  H4  FA1 d          44.698   3.699  24.662  0.00  0.00     0.210 HD
ENDBRANCH   2  18
BRANCH   3  20
ATOM     20  O4  FA1 d          46.334   4.427  27.783  0.00  0.00    -0.389 OA
ATOM     21  H6  FA1 d          46.793   3.835  27.199  0.00  0.00     0.210 HD
ENDBRANCH   3  20
TORSDOF 4
ENDMDL
MODEL 2
REMARK VINA RESULT:      -4.7      1.431      2.540
REMARK  4 active torsions:
REMARK  status: ('A' for Active; 'I' for Inactive)
REMARK    1  A    between atoms: C3_2  and  O3_3 
REMARK    2  A    between atoms: C4_4  and  O4_5 
REMARK    3  A    between atoms: C_8  and  C1_12 
REMARK    4  A    between atoms: C1_12  and  O30_10 
ROOT
ATOM      1  C2  FA1 d          44.398   7.632  26.764  0.00  0.00    -0.001 C 
ATOM      2  C3  FA1 d          45.555   6.770  27.242  0.00  0.00     0.067 C 
ATOM      3  C4  FA1 d          45.173   5.294  27.101  0.00  0.00     0.076 C 
ATOM      4  C5  FA1 d          44.661   5.010  25.701  0.00  0.00    -0.074 C 
ATOM      5  C6  FA1 d          44.156   6.026  24.900  0.00  0.00    -0.066 C 
ATOM      6  C1  FA1 d          44.099   7.396  25.261  0.00  0.00     0.145 C 
ATOM      7  H1  FA1 d          44.654   8.691  26.917  0.00  0.00     0.042 H 
ATOM      8  H2  FA1 d          43.501   7.383  27.351  0.00  0.00     0.042 H 
ATOM      9  H3  FA1 d          46.436   6.972  26.614  0.00  0.00     0.087 H 
ATOM     10  H5  FA1 d          44.391   5.038  27.831  0.00  0.00     0.093 H 
ATOM     11  H7  FA1 d          44.691   3.991  25.318  0.00  0.00     0.080 H 
ATOM     12  H8  FA1 d          43.774   5.749  23.919  0.00  0.00     0.081 H 
ENDROOT
BRANCH   6  13
ATOM     13  C   FA1 d          42.662   7.810  24.890  0.00  0.00     0.327 C 
ATOM     14  O1  FA1 d          42.211   9.050  25.427  0.00  0.00    -0.184 OA
ATOM     15  O2  FA1 d          42.443   7.645  23.511  0.00  0.00    -0.184 OA
ENDBRANCH   6  13
BRANCH   6  16
ATOM     16  O30 FA1 d          45.077   8.070  24.388  0.00  0.00    -0.380 OA
ATOM     17  H9  FA1 d          44.627   8.699  23.837  0.00  0.00     0.211 HD
ENDBRANCH   6  16
BRANCH   2  18
ATOM     18  O3  FA1 d          45.884   7.085  28.622  0.00  0.00    -0.393 OA
ATOM     19  H4  FA1 d          46.822   7.209  28.703  0.00  0.00     0.210 HD
ENDBRANCH   2  18
BRANCH   3  20
ATOM     20  O4  FA1 d          46.336   4.546  27.363  0.00  0.00    -0.389 OA
ATOM     21  H6  FA1 d          47.093   5.119  27.329  0.00  0.00     0.210 HD
ENDBRANCH   3  20
TORSDOF 4
ENDMDL
MODEL 3
REMARK VINA RESULT:      -4.2      1.242      2.767
REMARK  4 active torsions:
REMARK  status: ('A' for Active; 'I' for Inactive)
REMARK    1  A    between atoms: C3_2  and  O3_3 
REMARK    2  A    between atoms: C4_4  and  O4_5 
REMARK    3  A    between atoms: C_8  and  C1_12 
REMARK    4  A    between atoms: C1_12  and  O30_10 
ROOT
ATOM      1  C2  FA1 d          44.486   6.109  26.413  0.00  0.00    -0.001 C 
ATOM      2  C3  FA1 d          45.584   5.293  25.750  0.00  0.00     0.067 C 
ATOM      3  C4  FA1 d          45.082   4.781  24.398  0.00  0.00     0.076 C 
ATOM      4  C5  FA1 d          44.510   5.923  23.578  0.00  0.00    -0.074 C 
ATOM      5  C6  FA1 d          44.065   7.091  24.183  0.00  0.00    -0.066 C 
ATOM      6  C1  FA1 d          44.128   7.363  25.573  0.00  0.00     0.145 C 
ATOM      7  H1  FA1 d          44.831   6.431  27.407  0.00  0.00     0.042 H 
ATOM      8  H2  FA1 d          43.589   5.482  26.520  0.00  0.00     0.042 H 
ATOM      9  H3  FA1 d          46.460   5.938  25.585  0.00  0.00     0.087 H 
ATOM     10  H5  FA1 d          44.303   4.020  24.551  0.00  0.00     0.093 H 
ATOM     11  H7  FA1 d          44.448   5.824  22.495  0.00  0.00     0.080 H 
ATOM     12  H8  FA1 d          43.635   7.857  23.541  0.00  0.00     0.081 H 
ENDROOT
BRANCH   6  13
ATOM     13  C   FA1 d          42.719   7.890  25.904  0.00  0.00     0.327 C 
ATOM     14  O1  FA1 d          41.933   8.314  24.795  0.00  0.00    -0.184 OA
ATOM     15  O2  FA1 d          42.066   7.022  26.797  0.00  0.00    -0.184 OA
ENDBRANCH   6  13
BRANCH   6  16
ATOM     16  O30 FA1 d          45.132   8.433  25.716  0.00  0.00    -0.380 OA
ATOM     17  H9  FA1 d          45.508   8.628  24.866  0.00  0.00     0.211 HD
ENDBRANCH   6  16
BRANCH   2  18
ATOM     18  O3  FA1 d          45.976   4.185  26.605  0.00  0.00    -0.393 OA
ATOM     19  H4  FA1 d          45.236   3.602  26.725  0.00  0.00     0.210 HD
ENDBRANCH   2  18
BRANCH   3  20
ATOM     20  O4  FA1 d          46.188   4.209  23.744  0.00  0.00    -0.389 OA
ATOM     21  H6  FA1 d          45.889   3.524  23.157  0.00  0.00     0.210 HD
ENDBRANCH   3  20
TORSDOF 4
ENDMDL
MODEL 4
REMARK VINA RESULT:      -2.1      1.545      4.004
REMARK  4 active torsions:
REMARK  status: ('A' for Active; 'I' for Inactive)
REMARK    1  A    between atoms: C3_2  and  O3_3 
REMARK    2  A    between atoms: C4_4  and  O4_5 
REMARK    3  A    between atoms: C_8  and  C1_12 
REMARK    4  A    between atoms: C1_12  and  O30_10 
ROOT
ATOM      1  C2  FA1 d          44.245   7.453  25.199  0.00  0.00    -0.001 C 
ATOM      2  C3  FA1 d          43.499   8.135  26.335  0.00  0.00     0.067 C 
ATOM      3  C4  FA1 d          42.396   7.203  26.842  0.00  0.00     0.076 C 
ATOM      4  C5  FA1 d          42.962   5.828  27.145  0.00  0.00    -0.074 C 
ATOM      5  C6  FA1 d          44.144   5.391  26.559  0.00  0.00    -0.066 C 
ATOM      6  C1  FA1 d          44.950   6.159  25.682  0.00  0.00     0.145 C 
ATOM      7  H1  FA1 d          45.002   8.146  24.802  0.00  0.00     0.042 H 
ATOM      8  H2  FA1 d          43.529   7.196  24.405  0.00  0.00     0.042 H 
ATOM      9  H3  FA1 d          44.203   8.335  27.157  0.00  0.00     0.087 H 
ATOM     10  H5  FA1 d          41.606   7.110  26.083  0.00  0.00     0.093 H 
ATOM     11  H7  FA1 d          42.431   5.171  27.833  0.00  0.00     0.080 H 
ATOM     12  H8  FA1 d          44.476   4.381  26.793  0.00  0.00     0.081 H 
ENDROOT
BRANCH   6  13
ATOM     13  C   FA1 d          45.238   5.194  24.516  0.00  0.00     0.327 C 
ATOM     14  O1  FA1 d          44.261   4.186  24.282  0.00  0.00    -0.184 OA
ATOM     15  O2  FA1 d          45.638   5.911  23.373  0.00  0.00    -0.184 OA
ENDBRANCH   6  13
BRANCH   6  16
ATOM     16  O30 FA1 d          46.183   6.447  26.437  0.00  0.00    -0.380 OA
ATOM     17  H9  FA1 d          46.105   6.093  27.315  0.00  0.00     0.211 HD
ENDBRANCH   6  16
BRANCH   2  18
ATOM     18  O3  FA1 d          42.938   9.397  25.883  0.00  0.00    -0.393 OA
ATOM     19  H4  FA1 d          43.202  10.091  26.476  0.00  0.00     0.210 HD
ENDBRANCH   2  18
BRANCH   3  20
ATOM     20  O4  FA1 d          41.873   7.789  28.009  0.00  0.00    -0.389 OA
ATOM     21  H6  FA1 d          41.772   7.123  28.678  0.00  0.00     0.210 HD
ENDBRANCH   3  20
TORSDOF 4
ENDMDL
MODEL 5
REMARK VINA RESULT:      -1.9      1.480      4.028
REMARK  4 active torsions:
REMARK  status: ('A' for Active; 'I' for Inactive)
REMARK    1  A    between atoms: C3_2  and  O3_3 
REMARK    2  A    between atoms: C4_4  and  O4_5 
REMARK    3  A    between atoms: C_8  and  C1_12 
REMARK    4  A    between atoms: C1_12  and  O30_10 
ROOT
ATOM      1  C2  FA1 d          44.877   6.192  25.424  0.00  0.00    -0.001 C 
ATOM      2  C3  FA1 d          44.003   7.237  24.752  0.00  0.00     0.067 C 
ATOM      3  C4  FA1 d          42.695   7.377  25.535  0.00  0.00     0.076 C 
ATOM      4  C5  FA1 d          42.982   7.594  27.010  0.00  0.00    -0.074 C 
ATOM      5  C6  FA1 d          44.191   7.204  27.573  0.00  0.00    -0.066 C 
ATOM      6  C1  FA1 d          45.270   6.622  26.861  0.00  0.00     0.145 C 
ATOM      7  H1  FA1 d          45.792   6.054  24.829  0.00  0.00     0.042 H 
ATOM      8  H2  FA1 d          44.325   5.241  25.474  0.00  0.00     0.042 H 
ATOM      9  H3  FA1 d          44.529   8.203  24.759  0.00  0.00     0.087 H 
ATOM     10  H5  FA1 d          42.087   6.469  25.415  0.00  0.00     0.093 H 
ATOM     11  H7  FA1 d          42.227   8.064  27.638  0.00  0.00     0.080 H 
ATOM     12  H8  FA1 d          44.319   7.358  28.643  0.00  0.00     0.081 H 
ENDROOT
BRANCH   6  13
ATOM     13  C   FA1 d          45.671   5.416  27.732  0.00  0.00     0.327 C 
ATOM     14  O1  FA1 d          44.660   4.904  28.594  0.00  0.00    -0.184 OA
ATOM     15  O2  FA1 d          46.335   4.449  26.956  0.00  0.00    -0.184 OA
ENDBRANCH   6  13
BRANCH   6  16
ATOM     16  O30 FA1 d          46.334   7.642  26.864  0.00  0.00    -0.380 OA
ATOM     17  H9  FA1 d          47.182   7.214  26.891  0.00  0.00     0.211 HD
ENDBRANCH   6  16
BRANCH   2  18
ATOM     18  O3  FA1 d          43.736   6.861  23.373  0.00  0.00    -0.393 OA
ATOM     19  H4  FA1 d          43.650   5.917  23.314  0.00  0.00     0.210 HD
ENDBRANCH   2  18
BRANCH   3  20
ATOM     20  O4  FA1 d          42.015   8.485  24.997  0.00  0.00    -0.389 OA
ATOM     21  H6  FA1 d          42.581   9.247  25.026  0.00  0.00     0.210 HD
ENDBRANCH   3  20
TORSDOF 4
ENDMDL
