MODEL 1
REMARK VINA RESULT:      -8.7      0.000      0.000
REMARK  5 active torsions:
REMARK  status: ('A' for Active; 'I' for Inactive)
REMARK    1  A    between atoms: C1_1  and  C7_7 
REMARK    2  A    between atoms: C7_7  and  N1_8 
REMARK    3  A    between atoms: C8_12  and  C1'_13 
REMARK    4  A    between atoms: C5'_17  and  C1''_20 
REMARK    5  A    between atoms: C6'_18  and  O6'_19 
ROOT
ATOM      1  C1' MOL d          43.195  -2.220  32.170  0.00  0.00     0.025 A 
ATOM      2  C2' MOL d          42.291  -3.096  32.761  0.00  0.00    -0.068 A 
ATOM      3  C3' MOL d          41.999  -3.040  34.104  0.00  0.00    -0.081 A 
ATOM      4  C4' MOL d          42.608  -2.096  34.897  0.00  0.00    -0.070 A 
ATOM      5  C5' MOL d          43.537  -1.169  34.374  0.00  0.00     0.008 A 
ATOM      6  C6' MOL d          43.807  -1.264  33.007  0.00  0.00     0.089 A 
ATOM      7  H10 MOL d          41.802  -3.843  32.146  0.00  0.00     0.085 H 
ATOM      8  H11 MOL d          41.291  -3.739  34.536  0.00  0.00     0.083 H 
ATOM      9  H12 MOL d          42.368  -2.063  35.954  0.00  0.00     0.085 H 
ENDROOT
BRANCH   1  10
ATOM     10  C8  MOL d          43.478  -2.284  30.804  0.00  0.00     0.046 A 
ATOM     11  N3  MOL d          43.693  -1.227  30.082  0.00  0.00    -0.355 N 
ATOM     12  C4  MOL d          43.859  -1.666  28.888  0.00  0.00     0.043 A 
ATOM     13  H8  MOL d          43.723  -0.248  30.399  0.00  0.00     0.166 HD
ATOM     14  C3  MOL d          44.129  -0.965  27.760  0.00  0.00    -0.055 A 
ATOM     15  C5  MOL d          43.740  -2.997  28.931  0.00  0.00    -0.006 A 
ATOM     16  C2  MOL d          44.284  -1.705  26.588  0.00  0.00    -0.067 A 
ATOM     17  H2  MOL d          44.220   0.115  27.768  0.00  0.00     0.087 H 
ATOM     18  C1  MOL d          44.167  -3.137  26.555  0.00  0.00     0.008 A 
ATOM     19  H1  MOL d          44.502  -1.180  25.666  0.00  0.00     0.085 H 
ATOM     20  C6  MOL d          43.883  -3.789  27.788  0.00  0.00    -0.057 A 
ATOM     21  H3  MOL d          43.780  -4.867  27.839  0.00  0.00     0.086 H 
ATOM     22  CN4 MOL d          43.490  -3.435  30.159  0.00  0.00    -0.044 A 
ATOM     23  H9  MOL d          43.338  -4.449  30.527  0.00  0.00     0.088 H 
BRANCH  18  24
ATOM     24  C7  MOL d          44.347  -3.824  25.339  0.00  0.00     0.102 C 
ATOM     25  N2  MOL d          44.728  -3.163  24.264  0.00  0.00    -0.385 N 
ATOM     26  H6  MOL d          44.895  -2.148  24.316  0.00  0.00     0.157 HD
ATOM     27  H7  MOL d          44.859  -3.661  23.372  0.00  0.00     0.157 HD
BRANCH  24  28
ATOM     28  N1  MOL d          44.135  -5.118  25.268  0.00  0.00    -0.385 N 
ATOM     29  H4  MOL d          44.677  -5.762  25.862  0.00  0.00     0.157 HD
ATOM     30  H5  MOL d          43.428  -5.489  24.617  0.00  0.00     0.157 HD
ENDBRANCH  24  28
ENDBRANCH  18  24
ENDBRANCH   1  10
BRANCH   6  31
ATOM     31  O6' MOL d          44.726  -0.396  32.456  0.00  0.00    -0.359 OA
ATOM     32  H13 MOL d          45.350  -0.887  31.934  0.00  0.00     0.217 HD
ENDBRANCH   6  31
BRANCH   5  33
ATOM     33  C1' MOL d          44.125  -0.194  35.214  0.00  0.00    -0.023 A 
ATOM     34  C2' MOL d          45.181  -0.475  36.069  0.00  0.00    -0.072 A 
ATOM     35  C3' MOL d          45.726   0.476  36.905  0.00  0.00    -0.082 A 
ATOM     36  H14 MOL d          45.591  -1.478  36.080  0.00  0.00     0.084 H 
ATOM     37  C4' MOL d          45.237   1.758  36.916  0.00  0.00    -0.083 A 
ATOM     38  H15 MOL d          46.548   0.208  37.560  0.00  0.00     0.083 H 
ATOM     39  C5' MOL d          44.183   2.101  36.079  0.00  0.00    -0.082 A 
ATOM     40  H16 MOL d          45.672   2.501  37.575  0.00  0.00     0.083 H 
ATOM     41  C6' MOL d          43.642   1.130  35.240  0.00  0.00    -0.072 A 
ATOM     42  H17 MOL d          43.788   3.111  36.078  0.00  0.00     0.083 H 
ATOM     43  H18 MOL d          42.821   1.401  34.586  0.00  0.00     0.084 H 
ENDBRANCH   5  33
TORSDOF 5
ENDMDL
MODEL 2
REMARK VINA RESULT:      -6.9      2.869      8.347
REMARK  5 active torsions:
REMARK  status: ('A' for Active; 'I' for Inactive)
REMARK    1  A    between atoms: C1_1  and  C7_7 
REMARK    2  A    between atoms: C7_7  and  N1_8 
REMARK    3  A    between atoms: C8_12  and  C1'_13 
REMARK    4  A    between atoms: C5'_17  and  C1''_20 
REMARK    5  A    between atoms: C6'_18  and  O6'_19 
ROOT
ATOM      1  C1' MOL d          43.442  -2.450  31.307  0.00  0.00     0.025 A 
ATOM      2  C2' MOL d          43.106  -3.728  31.740  0.00  0.00    -0.068 A 
ATOM      3  C3' MOL d          43.019  -4.789  30.869  0.00  0.00    -0.081 A 
ATOM      4  C4' MOL d          43.271  -4.598  29.531  0.00  0.00    -0.070 A 
ATOM      5  C5' MOL d          43.620  -3.331  29.011  0.00  0.00     0.008 A 
ATOM      6  C6' MOL d          43.692  -2.282  29.929  0.00  0.00     0.089 A 
ATOM      7  H10 MOL d          42.907  -3.893  32.793  0.00  0.00     0.085 H 
ATOM      8  H11 MOL d          42.752  -5.773  31.236  0.00  0.00     0.083 H 
ATOM      9  H12 MOL d          43.200  -5.443  28.856  0.00  0.00     0.085 H 
ENDROOT
BRANCH   1  10
ATOM     10  C8  MOL d          43.532  -1.382  32.202  0.00  0.00     0.046 A 
ATOM     11  N3  MOL d          44.598  -0.651  32.317  0.00  0.00    -0.355 N 
ATOM     12  C4  MOL d          44.334   0.179  33.259  0.00  0.00     0.043 A 
ATOM     13  H8  MOL d          45.467  -0.721  31.769  0.00  0.00     0.166 HD
ATOM     14  C3  MOL d          45.115   1.170  33.756  0.00  0.00    -0.055 A 
ATOM     15  C5  MOL d          43.095  -0.082  33.687  0.00  0.00    -0.006 A 
ATOM     16  C2  MOL d          44.565   1.944  34.776  0.00  0.00    -0.067 A 
ATOM     17  H2  MOL d          46.115   1.350  33.379  0.00  0.00     0.087 H 
ATOM     18  C1  MOL d          43.242   1.722  35.291  0.00  0.00     0.008 A 
ATOM     19  H1  MOL d          45.159   2.747  35.198  0.00  0.00     0.085 H 
ATOM     20  C6  MOL d          42.494   0.660  34.708  0.00  0.00    -0.057 A 
ATOM     21  H3  MOL d          41.489   0.433  35.046  0.00  0.00     0.086 H 
ATOM     22  CN4 MOL d          42.542  -1.092  33.025  0.00  0.00    -0.044 A 
ATOM     23  H9  MOL d          41.559  -1.548  33.131  0.00  0.00     0.088 H 
BRANCH  18  24
ATOM     24  C7  MOL d          42.742   2.549  36.315  0.00  0.00     0.102 C 
ATOM     25  N2  MOL d          42.954   3.849  36.267  0.00  0.00    -0.385 N 
ATOM     26  H6  MOL d          43.481   4.256  35.481  0.00  0.00     0.157 HD
ATOM     27  H7  MOL d          42.592   4.458  37.015  0.00  0.00     0.157 HD
BRANCH  24  28
ATOM     28  N1  MOL d          42.070   2.034  37.319  0.00  0.00    -0.385 N 
ATOM     29  H4  MOL d          41.356   1.312  37.144  0.00  0.00     0.157 HD
ATOM     30  H5  MOL d          42.256   2.353  38.280  0.00  0.00     0.157 HD
ENDBRANCH  24  28
ENDBRANCH  18  24
ENDBRANCH   1  10
BRANCH   6  31
ATOM     31  O6' MOL d          44.006  -1.022  29.465  0.00  0.00    -0.359 OA
ATOM     32  H13 MOL d          43.213  -0.585  29.177  0.00  0.00     0.217 HD
ENDBRANCH   6  31
BRANCH   5  33
ATOM     33  C1' MOL d          43.899  -3.176  27.633  0.00  0.00    -0.023 A 
ATOM     34  C2' MOL d          44.273  -1.962  27.073  0.00  0.00    -0.072 A 
ATOM     35  C3' MOL d          44.514  -1.815  25.723  0.00  0.00    -0.082 A 
ATOM     36  H14 MOL d          44.380  -1.099  27.720  0.00  0.00     0.084 H 
ATOM     37  C4' MOL d          44.395  -2.885  24.873  0.00  0.00    -0.083 A 
ATOM     38  H15 MOL d          44.800  -0.846  25.331  0.00  0.00     0.083 H 
ATOM     39  C5' MOL d          44.027  -4.127  25.375  0.00  0.00    -0.082 A 
ATOM     40  H16 MOL d          44.586  -2.763  23.813  0.00  0.00     0.083 H 
ATOM     41  C6' MOL d          43.786  -4.261  26.740  0.00  0.00    -0.072 A 
ATOM     42  H17 MOL d          43.929  -4.981  24.713  0.00  0.00     0.083 H 
ATOM     43  H18 MOL d          43.502  -5.232  27.130  0.00  0.00     0.084 H 
ENDBRANCH   5  33
TORSDOF 5
ENDMDL
MODEL 3
REMARK VINA RESULT:      -6.8      2.893      8.389
REMARK  5 active torsions:
REMARK  status: ('A' for Active; 'I' for Inactive)
REMARK    1  A    between atoms: C1_1  and  C7_7 
REMARK    2  A    between atoms: C7_7  and  N1_8 
REMARK    3  A    between atoms: C8_12  and  C1'_13 
REMARK    4  A    between atoms: C5'_17  and  C1''_20 
REMARK    5  A    between atoms: C6'_18  and  O6'_19 
ROOT
ATOM      1  C1' MOL d          43.032  -2.088  31.710  0.00  0.00     0.025 A 
ATOM      2  C2' MOL d          42.076  -3.054  32.003  0.00  0.00    -0.068 A 
ATOM      3  C3' MOL d          41.607  -3.924  31.045  0.00  0.00    -0.081 A 
ATOM      4  C4' MOL d          42.089  -3.850  29.760  0.00  0.00    -0.070 A 
ATOM      5  C5' MOL d          43.063  -2.898  29.382  0.00  0.00     0.008 A 
ATOM      6  C6' MOL d          43.507  -2.033  30.383  0.00  0.00     0.089 A 
ATOM      7  H10 MOL d          41.689  -3.125  33.013  0.00  0.00     0.085 H 
ATOM      8  H11 MOL d          40.859  -4.665  31.304  0.00  0.00     0.083 H 
ATOM      9  H12 MOL d          41.712  -4.542  29.016  0.00  0.00     0.085 H 
ENDROOT
BRANCH   1  10
ATOM     10  C8  MOL d          43.504  -1.215  32.693  0.00  0.00     0.046 A 
ATOM     11  N3  MOL d          44.620  -1.408  33.326  0.00  0.00    -0.355 N 
ATOM     12  C4  MOL d          44.692  -0.450  34.176  0.00  0.00     0.043 A 
ATOM     13  H8  MOL d          45.300  -2.167  33.178  0.00  0.00     0.166 HD
ATOM     14  C3  MOL d          45.676  -0.186  35.071  0.00  0.00    -0.055 A 
ATOM     15  C5  MOL d          43.600   0.305  34.021  0.00  0.00    -0.006 A 
ATOM     16  C2  MOL d          45.508   0.946  35.866  0.00  0.00    -0.067 A 
ATOM     17  H2  MOL d          46.548  -0.824  35.163  0.00  0.00     0.087 H 
ATOM     18  C1  MOL d          44.360   1.803  35.761  0.00  0.00     0.008 A 
ATOM     19  H1  MOL d          46.274   1.190  36.593  0.00  0.00     0.085 H 
ATOM     20  C6  MOL d          43.378   1.450  34.793  0.00  0.00    -0.057 A 
ATOM     21  H3  MOL d          42.485   2.050  34.658  0.00  0.00     0.086 H 
ATOM     22  CN4 MOL d          42.802  -0.162  33.068  0.00  0.00    -0.044 A 
ATOM     23  H9  MOL d          41.848   0.214  32.703  0.00  0.00     0.088 H 
BRANCH  18  24
ATOM     24  C7  MOL d          44.257   2.939  36.588  0.00  0.00     0.102 C 
ATOM     25  N2  MOL d          45.088   3.087  37.601  0.00  0.00    -0.385 N 
ATOM     26  H6  MOL d          45.809   2.374  37.784  0.00  0.00     0.157 HD
ATOM     27  H7  MOL d          45.015   3.914  38.210  0.00  0.00     0.157 HD
BRANCH  24  28
ATOM     28  N1  MOL d          43.340   3.849  36.359  0.00  0.00    -0.385 N 
ATOM     29  H4  MOL d          43.492   4.822  36.664  0.00  0.00     0.157 HD
ATOM     30  H5  MOL d          42.468   3.591  35.875  0.00  0.00     0.157 HD
ENDBRANCH  24  28
ENDBRANCH  18  24
ENDBRANCH   1  10
BRANCH   6  31
ATOM     31  O6' MOL d          44.439  -1.071  30.056  0.00  0.00    -0.359 OA
ATOM     32  H13 MOL d          44.984  -0.889  30.813  0.00  0.00     0.217 HD
ENDBRANCH   6  31
BRANCH   5  33
ATOM     33  C1' MOL d          43.557  -2.867  28.056  0.00  0.00    -0.023 A 
ATOM     34  C2' MOL d          43.957  -1.696  27.429  0.00  0.00    -0.072 A 
ATOM     35  C3' MOL d          44.409  -1.674  26.127  0.00  0.00    -0.082 A 
ATOM     36  H14 MOL d          43.913  -0.766  27.983  0.00  0.00     0.084 H 
ATOM     37  C4' MOL d          44.484  -2.832  25.394  0.00  0.00    -0.083 A 
ATOM     38  H15 MOL d          44.707  -0.733  25.677  0.00  0.00     0.083 H 
ATOM     39  C5' MOL d          44.101  -4.037  25.970  0.00  0.00    -0.082 A 
ATOM     40  H16 MOL d          44.841  -2.807  24.371  0.00  0.00     0.083 H 
ATOM     41  C6' MOL d          43.645  -4.044  27.286  0.00  0.00    -0.072 A 
ATOM     42  H17 MOL d          44.155  -4.959  25.401  0.00  0.00     0.083 H 
ATOM     43  H18 MOL d          43.349  -4.987  27.732  0.00  0.00     0.084 H 
ENDBRANCH   5  33
TORSDOF 5
ENDMDL
MODEL 4
REMARK VINA RESULT:      -6.3      2.235      3.309
REMARK  5 active torsions:
REMARK  status: ('A' for Active; 'I' for Inactive)
REMARK    1  A    between atoms: C1_1  and  C7_7 
REMARK    2  A    between atoms: C7_7  and  N1_8 
REMARK    3  A    between atoms: C8_12  and  C1'_13 
REMARK    4  A    between atoms: C5'_17  and  C1''_20 
REMARK    5  A    between atoms: C6'_18  and  O6'_19 
ROOT
ATOM      1  C1' MOL d          42.718  -1.869  32.063  0.00  0.00     0.025 A 
ATOM      2  C2' MOL d          42.074  -0.697  32.443  0.00  0.00    -0.068 A 
ATOM      3  C3' MOL d          41.603  -0.509  33.722  0.00  0.00    -0.081 A 
ATOM      4  C4' MOL d          41.769  -1.497  34.663  0.00  0.00    -0.070 A 
ATOM      5  C5' MOL d          42.415  -2.716  34.359  0.00  0.00     0.008 A 
ATOM      6  C6' MOL d          42.872  -2.867  33.049  0.00  0.00     0.089 A 
ATOM      7  H10 MOL d          41.939   0.091  31.710  0.00  0.00     0.085 H 
ATOM      8  H11 MOL d          41.102   0.415  33.986  0.00  0.00     0.083 H 
ATOM      9  H12 MOL d          41.394  -1.335  35.668  0.00  0.00     0.085 H 
ENDROOT
BRANCH   1  10
ATOM     10  C8  MOL d          43.197  -2.045  30.763  0.00  0.00     0.046 A 
ATOM     11  N3  MOL d          44.023  -1.218  30.202  0.00  0.00    -0.355 N 
ATOM     12  C4  MOL d          44.189  -1.667  29.011  0.00  0.00     0.043 A 
ATOM     13  H8  MOL d          44.453  -0.381  30.621  0.00  0.00     0.166 HD
ATOM     14  C3  MOL d          44.973  -1.172  28.023  0.00  0.00    -0.055 A 
ATOM     15  C5  MOL d          43.446  -2.772  28.894  0.00  0.00    -0.006 A 
ATOM     16  C2  MOL d          44.983  -1.879  26.822  0.00  0.00    -0.067 A 
ATOM     17  H2  MOL d          45.563  -0.272  28.160  0.00  0.00     0.087 H 
ATOM     18  C1  MOL d          44.208  -3.072  26.619  0.00  0.00     0.008 A 
ATOM     19  H1  MOL d          45.599  -1.514  26.008  0.00  0.00     0.085 H 
ATOM     20  C6  MOL d          43.414  -3.519  27.712  0.00  0.00    -0.057 A 
ATOM     21  H3  MOL d          42.804  -4.412  27.632  0.00  0.00     0.086 H 
ATOM     22  CN4 MOL d          42.784  -3.049  30.012  0.00  0.00    -0.044 A 
ATOM     23  H9  MOL d          42.101  -3.865  30.241  0.00  0.00     0.088 H 
BRANCH  18  24
ATOM     24  C7  MOL d          44.272  -3.745  25.383  0.00  0.00     0.102 C 
ATOM     25  N2  MOL d          44.269  -5.063  25.356  0.00  0.00    -0.385 N 
ATOM     26  H6  MOL d          44.218  -5.596  26.236  0.00  0.00     0.157 HD
ATOM     27  H7  MOL d          44.318  -5.560  24.455  0.00  0.00     0.157 HD
BRANCH  24  28
ATOM     28  N1  MOL d          44.337  -3.070  24.259  0.00  0.00    -0.385 N 
ATOM     29  H4  MOL d          43.476  -2.713  23.822  0.00  0.00     0.157 HD
ATOM     30  H5  MOL d          45.251  -2.897  23.815  0.00  0.00     0.157 HD
ENDBRANCH  24  28
ENDBRANCH  18  24
ENDBRANCH   1  10
BRANCH   6  31
ATOM     31  O6' MOL d          43.488  -4.050  32.698  0.00  0.00    -0.359 OA
ATOM     32  H13 MOL d          43.515  -4.627  33.452  0.00  0.00     0.217 HD
ENDBRANCH   6  31
BRANCH   5  33
ATOM     33  C1' MOL d          42.592  -3.701  35.359  0.00  0.00    -0.023 A 
ATOM     34  C2' MOL d          42.394  -5.055  35.127  0.00  0.00    -0.072 A 
ATOM     35  C3' MOL d          42.541  -6.002  36.118  0.00  0.00    -0.082 A 
ATOM     36  H14 MOL d          42.113  -5.378  34.132  0.00  0.00     0.084 H 
ATOM     37  C4' MOL d          42.901  -5.633  37.389  0.00  0.00    -0.083 A 
ATOM     38  H15 MOL d          42.370  -7.049  35.890  0.00  0.00     0.083 H 
ATOM     39  C5' MOL d          43.117  -4.292  37.682  0.00  0.00    -0.082 A 
ATOM     40  H16 MOL d          43.015  -6.384  38.162  0.00  0.00     0.083 H 
ATOM     41  C6' MOL d          42.964  -3.346  36.672  0.00  0.00    -0.072 A 
ATOM     42  H17 MOL d          43.402  -3.987  38.683  0.00  0.00     0.083 H 
ATOM     43  H18 MOL d          43.136  -2.301  36.903  0.00  0.00     0.084 H 
ENDBRANCH   5  33
TORSDOF 5
ENDMDL
