MODEL 1
REMARK VINA RESULT:      -6.0      0.000      0.000
REMARK  7 active torsions:
REMARK  status: ('A' for Active; 'I' for Inactive)
REMARK    1  A    between atoms: C1_1  and  O2_2 
REMARK    2  A    between atoms: O2_2  and  C12_16 
REMARK    3  A    between atoms: C4_7  and  C7_10 
REMARK    4  A    between atoms: C7_10  and  C8_12 
REMARK    5  A    between atoms: C8_12  and  C9_13 
REMARK    6  A    between atoms: C9_13  and  C10_14 
REMARK    7  A    between atoms: C12_16  and  C13_17 
ROOT
ATOM      1  C1  EAA d           9.042   2.076  27.459  0.00  0.00     0.092 A 
ATOM      2  C2  EAA d           8.319   3.249  27.756  0.00  0.00     0.090 A 
ATOM      3 CL1  EAA d           8.759   4.691  26.927  0.00  0.00    -0.080 Cl
ATOM      4  C3  EAA d           7.292   3.228  28.640  0.00  0.00     0.072 A 
ATOM      5 CL2  EAA d           6.438   4.703  28.997  0.00  0.00    -0.081 Cl
ATOM      6  C4  EAA d           6.928   2.059  29.312  0.00  0.00     0.038 A 
ATOM      7  C5  EAA d           7.659   0.903  29.022  0.00  0.00    -0.065 A 
ATOM      8  C6  EAA d           8.693   0.915  28.127  0.00  0.00    -0.048 A 
ATOM      9  H1  EAA d           7.400  -0.026  29.517  0.00  0.00     0.085 H 
ATOM     10  H2  EAA d           9.248   0.003  27.938  0.00  0.00     0.087 H 
ENDROOT
BRANCH   6  11
ATOM     11  C7  EAA d           5.713   1.984  30.187  0.00  0.00     0.189 C 
ATOM     12  O1  EAA d           4.622   1.821  29.700  0.00  0.00    -0.287 OA
BRANCH  11  13
ATOM     13  C8  EAA d           5.840   2.078  31.664  0.00  0.00    -0.017 C 
ATOM     14  C11 EAA d           6.099   0.999  32.345  0.00  0.00    -0.112 C 
ATOM     15  H8  EAA d           6.170   0.039  31.838  0.00  0.00     0.067 H 
ATOM     16  H9  EAA d           6.243   1.058  33.423  0.00  0.00     0.067 H 
BRANCH  13  17
ATOM     17  C9  EAA d           5.719   3.440  32.244  0.00  0.00    -0.041 C 
ATOM     18  H3  EAA d           6.485   4.066  31.763  0.00  0.00     0.039 H 
ATOM     19  H4  EAA d           5.935   3.355  33.319  0.00  0.00     0.039 H 
BRANCH  17  20
ATOM     20  C10 EAA d           4.450   4.142  32.117  0.00  0.00    -0.073 C 
ATOM     21  H5  EAA d           3.727   3.723  32.832  0.00  0.00     0.028 H 
ATOM     22  H6  EAA d           4.065   4.022  31.093  0.00  0.00     0.028 H 
ATOM     23  H7  EAA d           4.599   5.210  32.330  0.00  0.00     0.028 H 
ENDBRANCH  17  20
ENDBRANCH  13  17
ENDBRANCH  11  13
ENDBRANCH   6  11
BRANCH   1  24
ATOM     24  O2  EAA d          10.050   2.196  26.557  0.00  0.00    -0.339 OA
BRANCH  24  25
ATOM     25  C12 EAA d          10.181   1.195  25.572  0.00  0.00     0.106 C 
ATOM     26  H10 EAA d           9.343   0.489  25.657  0.00  0.00     0.091 H 
ATOM     27  H11 EAA d          11.129   0.659  25.721  0.00  0.00     0.091 H 
BRANCH  25  28
ATOM     28  C13 EAA d          10.171   1.811  24.223  0.00  0.00     0.198 C 
ATOM     29  O   EAA d          10.159   3.074  24.208  0.00  0.00    -0.646 OA
ATOM     30  OXT EAA d          10.206   1.103  23.178  0.00  0.00    -0.646 OA
ENDBRANCH  25  28
ENDBRANCH  24  25
ENDBRANCH   1  24
TORSDOF 7
ENDMDL
MODEL 2
REMARK VINA RESULT:      -5.2      2.116      6.202
REMARK  7 active torsions:
REMARK  status: ('A' for Active; 'I' for Inactive)
REMARK    1  A    between atoms: C1_1  and  O2_2 
REMARK    2  A    between atoms: O2_2  and  C12_16 
REMARK    3  A    between atoms: C4_7  and  C7_10 
REMARK    4  A    between atoms: C7_10  and  C8_12 
REMARK    5  A    between atoms: C8_12  and  C9_13 
REMARK    6  A    between atoms: C9_13  and  C10_14 
REMARK    7  A    between atoms: C12_16  and  C13_17 
ROOT
ATOM      1  C1  EAA d           6.985   1.532  28.587  0.00  0.00     0.092 A 
ATOM      2  C2  EAA d           6.529   2.461  27.631  0.00  0.00     0.090 A 
ATOM      3 CL1  EAA d           4.873   2.921  27.689  0.00  0.00    -0.080 Cl
ATOM      4  C3  EAA d           7.380   2.996  26.720  0.00  0.00     0.072 A 
ATOM      5 CL2  EAA d           6.772   4.124  25.541  0.00  0.00    -0.081 Cl
ATOM      6  C4  EAA d           8.727   2.630  26.672  0.00  0.00     0.038 A 
ATOM      7  C5  EAA d           9.167   1.697  27.616  0.00  0.00    -0.065 A 
ATOM      8  C6  EAA d           8.317   1.157  28.541  0.00  0.00    -0.048 A 
ATOM      9  H1  EAA d          10.208   1.395  27.614  0.00  0.00     0.085 H 
ATOM     10  H2  EAA d           8.690   0.425  29.247  0.00  0.00     0.087 H 
ENDROOT
BRANCH   6  11
ATOM     11  C7  EAA d           9.708   3.309  25.765  0.00  0.00     0.189 C 
ATOM     12  O1  EAA d          10.206   2.707  24.847  0.00  0.00    -0.287 OA
BRANCH  11  13
ATOM     13  C8  EAA d          10.054   4.739  25.966  0.00  0.00    -0.017 C 
ATOM     14  C11 EAA d          10.155   5.517  24.926  0.00  0.00    -0.112 C 
ATOM     15  H8  EAA d          10.034   5.106  23.925  0.00  0.00     0.067 H 
ATOM     16  H9  EAA d          10.361   6.578  25.058  0.00  0.00     0.067 H 
BRANCH  13  17
ATOM     17  C9  EAA d          10.200   5.184  27.375  0.00  0.00    -0.041 C 
ATOM     18  H3  EAA d          11.233   5.540  27.497  0.00  0.00     0.039 H 
ATOM     19  H4  EAA d          10.037   4.301  28.012  0.00  0.00     0.039 H 
BRANCH  17  20
ATOM     20  C10 EAA d           9.323   6.235  27.870  0.00  0.00    -0.073 C 
ATOM     21  H5  EAA d           8.301   6.062  27.503  0.00  0.00     0.028 H 
ATOM     22  H6  EAA d           9.682   7.211  27.509  0.00  0.00     0.028 H 
ATOM     23  H7  EAA d           9.325   6.227  28.969  0.00  0.00     0.028 H 
ENDBRANCH  17  20
ENDBRANCH  13  17
ENDBRANCH  11  13
ENDBRANCH   6  11
BRANCH   1  24
ATOM     24  O2  EAA d           6.061   1.056  29.460  0.00  0.00    -0.339 OA
BRANCH  24  25
ATOM     25  C12 EAA d           6.456   0.851  30.798  0.00  0.00     0.106 C 
ATOM     26  H10 EAA d           7.527   1.080  30.901  0.00  0.00     0.091 H 
ATOM     27  H11 EAA d           6.278  -0.199  31.074  0.00  0.00     0.091 H 
BRANCH  25  28
ATOM     28  C13 EAA d           5.675   1.735  31.696  0.00  0.00     0.198 C 
ATOM     29  O   EAA d           4.640   2.245  31.182  0.00  0.00    -0.646 OA
ATOM     30  OXT EAA d           6.021   1.924  32.896  0.00  0.00    -0.646 OA
ENDBRANCH  25  28
ENDBRANCH  24  25
ENDBRANCH   1  24
TORSDOF 7
ENDMDL
MODEL 3
REMARK VINA RESULT:      -5.1      1.876      2.206
REMARK  7 active torsions:
REMARK  status: ('A' for Active; 'I' for Inactive)
REMARK    1  A    between atoms: C1_1  and  O2_2 
REMARK    2  A    between atoms: O2_2  and  C12_16 
REMARK    3  A    between atoms: C4_7  and  C7_10 
REMARK    4  A    between atoms: C7_10  and  C8_12 
REMARK    5  A    between atoms: C8_12  and  C9_13 
REMARK    6  A    between atoms: C9_13  and  C10_14 
REMARK    7  A    between atoms: C12_16  and  C13_17 
ROOT
ATOM      1  C1  EAA d           8.354   2.965  26.553  0.00  0.00     0.092 A 
ATOM      2  C2  EAA d           7.011   3.379  26.643  0.00  0.00     0.090 A 
ATOM      3 CL1  EAA d           6.410   4.422  25.414  0.00  0.00    -0.080 Cl
ATOM      4  C3  EAA d           6.214   2.940  27.649  0.00  0.00     0.072 A 
ATOM      5 CL2  EAA d           4.565   3.493  27.739  0.00  0.00    -0.081 Cl
ATOM      6  C4  EAA d           6.695   2.090  28.647  0.00  0.00     0.038 A 
ATOM      7  C5  EAA d           8.033   1.695  28.557  0.00  0.00    -0.065 A 
ATOM      8  C6  EAA d           8.842   2.129  27.542  0.00  0.00    -0.048 A 
ATOM      9  H1  EAA d           8.440   1.028  29.309  0.00  0.00     0.085 H 
ATOM     10  H2  EAA d           9.879   1.814  27.513  0.00  0.00     0.087 H 
ENDROOT
BRANCH   6  11
ATOM     11  C7  EAA d           5.798   1.487  29.685  0.00  0.00     0.189 C 
ATOM     12  O1  EAA d           4.967   0.672  29.372  0.00  0.00    -0.287 OA
BRANCH  11  13
ATOM     13  C8  EAA d           5.942   1.862  31.115  0.00  0.00    -0.017 C 
ATOM     14  C11 EAA d           6.020   0.920  32.011  0.00  0.00    -0.112 C 
ATOM     15  H8  EAA d           5.932  -0.124  31.712  0.00  0.00     0.067 H 
ATOM     16  H9  EAA d           6.174   1.175  33.058  0.00  0.00     0.067 H 
BRANCH  13  17
ATOM     17  C9  EAA d           6.047   3.315  31.402  0.00  0.00    -0.041 C 
ATOM     18  H3  EAA d           6.534   3.782  30.533  0.00  0.00     0.039 H 
ATOM     19  H4  EAA d           6.691   3.425  32.287  0.00  0.00     0.039 H 
BRANCH  17  20
ATOM     20  C10 EAA d           4.828   4.065  31.664  0.00  0.00    -0.073 C 
ATOM     21  H5  EAA d           5.070   4.967  32.244  0.00  0.00     0.028 H 
ATOM     22  H6  EAA d           4.127   3.438  32.236  0.00  0.00     0.028 H 
ATOM     23  H7  EAA d           4.364   4.356  30.710  0.00  0.00     0.028 H 
ENDBRANCH  17  20
ENDBRANCH  13  17
ENDBRANCH  11  13
ENDBRANCH   6  11
BRANCH   1  24
ATOM     24  O2  EAA d           9.071   3.454  25.508  0.00  0.00    -0.339 OA
BRANCH  24  25
ATOM     25  C12 EAA d           9.987   4.496  25.763  0.00  0.00     0.106 C 
ATOM     26  H10 EAA d          10.973   4.067  25.990  0.00  0.00     0.091 H 
ATOM     27  H11 EAA d           9.637   5.087  26.622  0.00  0.00     0.091 H 
BRANCH  25  28
ATOM     28  C13 EAA d          10.094   5.374  24.573  0.00  0.00     0.198 C 
ATOM     29  O   EAA d          10.166   4.773  23.464  0.00  0.00    -0.646 OA
ATOM     30  OXT EAA d          10.080   6.633  24.682  0.00  0.00    -0.646 OA
ENDBRANCH  25  28
ENDBRANCH  24  25
ENDBRANCH   1  24
TORSDOF 7
ENDMDL
MODEL 4
REMARK VINA RESULT:      -5.0      1.533      2.043
REMARK  7 active torsions:
REMARK  status: ('A' for Active; 'I' for Inactive)
REMARK    1  A    between atoms: C1_1  and  O2_2 
REMARK    2  A    between atoms: O2_2  and  C12_16 
REMARK    3  A    between atoms: C4_7  and  C7_10 
REMARK    4  A    between atoms: C7_10  and  C8_12 
REMARK    5  A    between atoms: C8_12  and  C9_13 
REMARK    6  A    between atoms: C9_13  and  C10_14 
REMARK    7  A    between atoms: C12_16  and  C13_17 
ROOT
ATOM      1  C1  EAA d           8.344   2.868  27.284  0.00  0.00     0.092 A 
ATOM      2  C2  EAA d           7.567   3.741  28.069  0.00  0.00     0.090 A 
ATOM      3 CL1  EAA d           7.508   5.397  27.606  0.00  0.00    -0.080 Cl
ATOM      4  C3  EAA d           6.864   3.280  29.133  0.00  0.00     0.072 A 
ATOM      5 CL2  EAA d           5.933   4.396  30.093  0.00  0.00    -0.081 Cl
ATOM      6  C4  EAA d           6.904   1.936  29.511  0.00  0.00     0.038 A 
ATOM      7  C5  EAA d           7.689   1.079  28.734  0.00  0.00    -0.065 A 
ATOM      8  C6  EAA d           8.397   1.536  27.656  0.00  0.00    -0.048 A 
ATOM      9  H1  EAA d           7.738   0.028  28.991  0.00  0.00     0.085 H 
ATOM     10  H2  EAA d           9.007   0.845  27.085  0.00  0.00     0.087 H 
ENDROOT
BRANCH   6  11
ATOM     11  C7  EAA d           6.030   1.384  30.596  0.00  0.00     0.189 C 
ATOM     12  O1  EAA d           6.503   1.080  31.663  0.00  0.00    -0.287 OA
BRANCH  11  13
ATOM     13  C8  EAA d           4.568   1.236  30.384  0.00  0.00    -0.017 C 
ATOM     14  C11 EAA d           3.750   1.652  31.308  0.00  0.00    -0.112 C 
ATOM     15  H8  EAA d           4.142   2.056  32.241  0.00  0.00     0.067 H 
ATOM     16  H9  EAA d           2.674   1.595  31.149  0.00  0.00     0.067 H 
BRANCH  13  17
ATOM     17  C9  EAA d           4.153   0.667  29.077  0.00  0.00    -0.041 C 
ATOM     18  H3  EAA d           3.431  -0.136  29.288  0.00  0.00     0.039 H 
ATOM     19  H4  EAA d           5.052   0.238  28.610  0.00  0.00     0.039 H 
BRANCH  17  20
ATOM     20  C10 EAA d           3.539   1.548  28.095  0.00  0.00    -0.073 C 
ATOM     21  H5  EAA d           4.105   2.490  28.044  0.00  0.00     0.028 H 
ATOM     22  H6  EAA d           2.501   1.760  28.391  0.00  0.00     0.028 H 
ATOM     23  H7  EAA d           3.548   1.061  27.109  0.00  0.00     0.028 H 
ENDBRANCH  17  20
ENDBRANCH  13  17
ENDBRANCH  11  13
ENDBRANCH   6  11
BRANCH   1  24
ATOM     24  O2  EAA d           9.008   3.422  26.236  0.00  0.00    -0.339 OA
BRANCH  24  25
ATOM     25  C12 EAA d           9.925   2.615  25.532  0.00  0.00     0.106 C 
ATOM     26  H10 EAA d           9.749   1.559  25.782  0.00  0.00     0.091 H 
ATOM     27  H11 EAA d          10.950   2.893  25.817  0.00  0.00     0.091 H 
BRANCH  25  28
ATOM     28  C13 EAA d           9.750   2.810  24.072  0.00  0.00     0.198 C 
ATOM     29  O   EAA d           9.253   3.921  23.733  0.00  0.00    -0.646 OA
ATOM     30  OXT EAA d          10.112   1.928  23.243  0.00  0.00    -0.646 OA
ENDBRANCH  25  28
ENDBRANCH  24  25
ENDBRANCH   1  24
TORSDOF 7
ENDMDL
MODEL 5
REMARK VINA RESULT:      -5.0      2.350      6.850
REMARK  7 active torsions:
REMARK  status: ('A' for Active; 'I' for Inactive)
REMARK    1  A    between atoms: C1_1  and  O2_2 
REMARK    2  A    between atoms: O2_2  and  C12_16 
REMARK    3  A    between atoms: C4_7  and  C7_10 
REMARK    4  A    between atoms: C7_10  and  C8_12 
REMARK    5  A    between atoms: C8_12  and  C9_13 
REMARK    6  A    between atoms: C9_13  and  C10_14 
REMARK    7  A    between atoms: C12_16  and  C13_17 
ROOT
ATOM      1  C1  EAA d           6.330   2.858  28.731  0.00  0.00     0.092 A 
ATOM      2  C2  EAA d           7.556   2.237  28.422  0.00  0.00     0.090 A 
ATOM      3 CL1  EAA d           7.842   0.666  29.065  0.00  0.00    -0.080 Cl
ATOM      4  C3  EAA d           8.462   2.846  27.618  0.00  0.00     0.072 A 
ATOM      5 CL2  EAA d           9.975   2.055  27.279  0.00  0.00    -0.081 Cl
ATOM      6  C4  EAA d           8.233   4.119  27.090  0.00  0.00     0.038 A 
ATOM      7  C5  EAA d           7.019   4.734  27.413  0.00  0.00    -0.065 A 
ATOM      8  C6  EAA d           6.098   4.123  28.219  0.00  0.00    -0.048 A 
ATOM      9  H1  EAA d           6.802   5.718  27.015  0.00  0.00     0.085 H 
ATOM     10  H2  EAA d           5.174   4.636  28.461  0.00  0.00     0.087 H 
ENDROOT
BRANCH   6  11
ATOM     11  C7  EAA d           9.157   4.749  26.093  0.00  0.00     0.189 C 
ATOM     12  O1  EAA d          10.072   5.442  26.464  0.00  0.00    -0.287 OA
BRANCH  11  13
ATOM     13  C8  EAA d           8.979   4.503  24.639  0.00  0.00    -0.017 C 
ATOM     14  C11 EAA d           7.869   4.873  24.067  0.00  0.00    -0.112 C 
ATOM     15  H8  EAA d           7.070   5.311  24.662  0.00  0.00     0.067 H 
ATOM     16  H9  EAA d           7.741   4.744  22.993  0.00  0.00     0.067 H 
BRANCH  13  17
ATOM     17  C9  EAA d          10.135   3.895  23.934  0.00  0.00    -0.041 C 
ATOM     18  H3  EAA d          11.044   4.226  24.457  0.00  0.00     0.039 H 
ATOM     19  H4  EAA d          10.136   4.293  22.908  0.00  0.00     0.039 H 
BRANCH  17  20
ATOM     20  C10 EAA d          10.206   2.445  23.830  0.00  0.00    -0.073 C 
ATOM     21  H5  EAA d           9.257   2.060  23.429  0.00  0.00     0.028 H 
ATOM     22  H6  EAA d          10.385   2.014  24.826  0.00  0.00     0.028 H 
ATOM     23  H7  EAA d          11.029   2.165  23.156  0.00  0.00     0.028 H 
ENDBRANCH  17  20
ENDBRANCH  13  17
ENDBRANCH  11  13
ENDBRANCH   6  11
BRANCH   1  24
ATOM     24  O2  EAA d           5.486   2.167  29.541  0.00  0.00    -0.339 OA
BRANCH  24  25
ATOM     25  C12 EAA d           4.956   2.831  30.667  0.00  0.00     0.106 C 
ATOM     26  H10 EAA d           3.887   2.591  30.762  0.00  0.00     0.091 H 
ATOM     27  H11 EAA d           5.078   3.916  30.541  0.00  0.00     0.091 H 
BRANCH  25  28
ATOM     28  C13 EAA d           5.670   2.394  31.891  0.00  0.00     0.198 C 
ATOM     29  O   EAA d           5.683   3.233  32.835  0.00  0.00    -0.646 OA
ATOM     30  OXT EAA d           6.190   1.246  31.973  0.00  0.00    -0.646 OA
ENDBRANCH  25  28
ENDBRANCH  24  25
ENDBRANCH   1  24
TORSDOF 7
ENDMDL
MODEL 6
REMARK VINA RESULT:      -4.6      2.465      3.224
REMARK  7 active torsions:
REMARK  status: ('A' for Active; 'I' for Inactive)
REMARK    1  A    between atoms: C1_1  and  O2_2 
REMARK    2  A    between atoms: O2_2  and  C12_16 
REMARK    3  A    between atoms: C4_7  and  C7_10 
REMARK    4  A    between atoms: C7_10  and  C8_12 
REMARK    5  A    between atoms: C8_12  and  C9_13 
REMARK    6  A    between atoms: C9_13  and  C10_14 
REMARK    7  A    between atoms: C12_16  and  C13_17 
ROOT
ATOM      1  C1  EAA d           8.301   5.489  26.168  0.00  0.00     0.092 A 
ATOM      2  C2  EAA d           6.927   5.177  26.190  0.00  0.00     0.090 A 
ATOM      3 CL1  EAA d           6.170   4.795  24.693  0.00  0.00    -0.080 Cl
ATOM      4  C3  EAA d           6.239   5.147  27.357  0.00  0.00     0.072 A 
ATOM      5 CL2  EAA d           4.537   4.778  27.339  0.00  0.00    -0.081 Cl
ATOM      6  C4  EAA d           6.849   5.452  28.576  0.00  0.00     0.038 A 
ATOM      7  C5  EAA d           8.210   5.774  28.544  0.00  0.00    -0.065 A 
ATOM      8  C6  EAA d           8.912   5.801  27.370  0.00  0.00    -0.048 A 
ATOM      9  H1  EAA d           8.720   6.009  29.471  0.00  0.00     0.085 H 
ATOM     10  H2  EAA d           9.962   6.071  27.382  0.00  0.00     0.087 H 
ENDROOT
BRANCH   6  11
ATOM     11  C7  EAA d           6.141   5.292  29.887  0.00  0.00     0.189 C 
ATOM     12  O1  EAA d           5.585   6.231  30.397  0.00  0.00    -0.287 OA
BRANCH  11  13
ATOM     13  C8  EAA d           6.088   3.968  30.558  0.00  0.00    -0.017 C 
ATOM     14  C11 EAA d           6.443   2.907  29.891  0.00  0.00    -0.112 C 
ATOM     15  H8  EAA d           6.726   2.992  28.843  0.00  0.00     0.067 H 
ATOM     16  H9  EAA d           6.457   1.934  30.382  0.00  0.00     0.067 H 
BRANCH  13  17
ATOM     17  C9  EAA d           5.682   3.976  31.986  0.00  0.00    -0.041 C 
ATOM     18  H3  EAA d           4.664   4.388  32.031  0.00  0.00     0.039 H 
ATOM     19  H4  EAA d           6.374   4.648  32.516  0.00  0.00     0.039 H 
BRANCH  17  20
ATOM     20  C10 EAA d           5.668   2.717  32.715  0.00  0.00    -0.073 C 
ATOM     21  H5  EAA d           4.701   2.217  32.565  0.00  0.00     0.028 H 
ATOM     22  H6  EAA d           5.817   2.912  33.788  0.00  0.00     0.028 H 
ATOM     23  H7  EAA d           6.477   2.069  32.345  0.00  0.00     0.028 H 
ENDBRANCH  17  20
ENDBRANCH  13  17
ENDBRANCH  11  13
ENDBRANCH   6  11
BRANCH   1  24
ATOM     24  O2  EAA d           8.905   5.490  24.952  0.00  0.00    -0.339 OA
BRANCH  24  25
ATOM     25  C12 EAA d          10.066   4.706  24.789  0.00  0.00     0.106 C 
ATOM     26  H10 EAA d          10.668   4.749  25.708  0.00  0.00     0.091 H 
ATOM     27  H11 EAA d          10.655   5.097  23.946  0.00  0.00     0.091 H 
BRANCH  25  28
ATOM     28  C13 EAA d           9.689   3.298  24.513  0.00  0.00     0.198 C 
ATOM     29  O   EAA d          10.055   2.853  23.389  0.00  0.00    -0.646 OA
ATOM     30  OXT EAA d           9.075   2.603  25.371  0.00  0.00    -0.646 OA
ENDBRANCH  25  28
ENDBRANCH  24  25
ENDBRANCH   1  24
TORSDOF 7
ENDMDL
MODEL 7
REMARK VINA RESULT:      -4.3      2.725      6.564
REMARK  7 active torsions:
REMARK  status: ('A' for Active; 'I' for Inactive)
REMARK    1  A    between atoms: C1_1  and  O2_2 
REMARK    2  A    between atoms: O2_2  and  C12_16 
REMARK    3  A    between atoms: C4_7  and  C7_10 
REMARK    4  A    between atoms: C7_10  and  C8_12 
REMARK    5  A    between atoms: C8_12  and  C9_13 
REMARK    6  A    between atoms: C9_13  and  C10_14 
REMARK    7  A    between atoms: C12_16  and  C13_17 
ROOT
ATOM      1  C1  EAA d           6.206   4.076  30.178  0.00  0.00     0.092 A 
ATOM      2  C2  EAA d           6.835   3.040  29.460  0.00  0.00     0.090 A 
ATOM      3 CL1  EAA d           6.580   1.425  29.997  0.00  0.00    -0.080 Cl
ATOM      4  C3  EAA d           7.586   3.309  28.363  0.00  0.00     0.072 A 
ATOM      5 CL2  EAA d           8.364   2.002  27.517  0.00  0.00    -0.081 Cl
ATOM      6  C4  EAA d           7.792   4.617  27.920  0.00  0.00     0.038 A 
ATOM      7  C5  EAA d           7.175   5.641  28.647  0.00  0.00    -0.065 A 
ATOM      8  C6  EAA d           6.412   5.377  29.751  0.00  0.00    -0.048 A 
ATOM      9  H1  EAA d           7.306   6.668  28.328  0.00  0.00     0.085 H 
ATOM     10  H2  EAA d           5.962   6.196  30.298  0.00  0.00     0.087 H 
ENDROOT
BRANCH   6  11
ATOM     11  C7  EAA d           8.502   4.924  26.637  0.00  0.00     0.189 C 
ATOM     12  O1  EAA d           9.641   5.320  26.651  0.00  0.00    -0.287 OA
BRANCH  11  13
ATOM     13  C8  EAA d           7.826   4.713  25.332  0.00  0.00    -0.017 C 
ATOM     14  C11 EAA d           8.438   4.034  24.405  0.00  0.00    -0.112 C 
ATOM     15  H8  EAA d           9.451   3.671  24.575  0.00  0.00     0.067 H 
ATOM     16  H9  EAA d           7.938   3.828  23.459  0.00  0.00     0.067 H 
BRANCH  13  17
ATOM     17  C9  EAA d           6.450   5.258  25.215  0.00  0.00    -0.041 C 
ATOM     18  H3  EAA d           6.296   5.527  24.159  0.00  0.00     0.039 H 
ATOM     19  H4  EAA d           6.407   6.166  25.835  0.00  0.00     0.039 H 
BRANCH  17  20
ATOM     20  C10 EAA d           5.330   4.417  25.610  0.00  0.00    -0.073 C 
ATOM     21  H5  EAA d           4.900   4.795  26.549  0.00  0.00     0.028 H 
ATOM     22  H6  EAA d           5.681   3.384  25.757  0.00  0.00     0.028 H 
ATOM     23  H7  EAA d           4.562   4.434  24.823  0.00  0.00     0.028 H 
ENDBRANCH  17  20
ENDBRANCH  13  17
ENDBRANCH  11  13
ENDBRANCH   6  11
BRANCH   1  24
ATOM     24  O2  EAA d           5.471   3.707  31.259  0.00  0.00    -0.339 OA
BRANCH  24  25
ATOM     25  C12 EAA d           4.090   3.995  31.251  0.00  0.00     0.106 C 
ATOM     26  H10 EAA d           3.934   5.023  30.894  0.00  0.00     0.091 H 
ATOM     27  H11 EAA d           3.691   3.896  32.271  0.00  0.00     0.091 H 
BRANCH  25  28
ATOM     28  C13 EAA d           3.384   3.050  30.352  0.00  0.00     0.198 C 
ATOM     29  O   EAA d           3.086   1.937  30.868  0.00  0.00    -0.646 OA
ATOM     30  OXT EAA d           3.083   3.371  29.168  0.00  0.00    -0.646 OA
ENDBRANCH  25  28
ENDBRANCH  24  25
ENDBRANCH   1  24
TORSDOF 7
ENDMDL
MODEL 8
REMARK VINA RESULT:      -4.2      1.908      2.490
REMARK  7 active torsions:
REMARK  status: ('A' for Active; 'I' for Inactive)
REMARK    1  A    between atoms: C1_1  and  O2_2 
REMARK    2  A    between atoms: O2_2  and  C12_16 
REMARK    3  A    between atoms: C4_7  and  C7_10 
REMARK    4  A    between atoms: C7_10  and  C8_12 
REMARK    5  A    between atoms: C8_12  and  C9_13 
REMARK    6  A    between atoms: C9_13  and  C10_14 
REMARK    7  A    between atoms: C12_16  and  C13_17 
ROOT
ATOM      1  C1  EAA d           8.221   3.386  26.420  0.00  0.00     0.092 A 
ATOM      2  C2  EAA d           8.374   2.421  27.435  0.00  0.00     0.090 A 
ATOM      3 CL1  EAA d           9.967   1.868  27.780  0.00  0.00    -0.080 Cl
ATOM      4  C3  EAA d           7.304   1.973  28.136  0.00  0.00     0.072 A 
ATOM      5 CL2  EAA d           7.532   0.764  29.367  0.00  0.00    -0.081 Cl
ATOM      6  C4  EAA d           6.009   2.422  27.863  0.00  0.00     0.038 A 
ATOM      7  C5  EAA d           5.865   3.369  26.844  0.00  0.00    -0.065 A 
ATOM      8  C6  EAA d           6.941   3.830  26.136  0.00  0.00    -0.048 A 
ATOM      9  H1  EAA d           4.877   3.747  26.610  0.00  0.00     0.085 H 
ATOM     10  H2  EAA d           6.789   4.553  25.343  0.00  0.00     0.087 H 
ENDROOT
BRANCH   6  11
ATOM     11  C7  EAA d           4.836   2.042  28.714  0.00  0.00     0.189 C 
ATOM     12  O1  EAA d           4.226   1.026  28.492  0.00  0.00    -0.287 OA
BRANCH  11  13
ATOM     13  C8  EAA d           4.429   2.895  29.860  0.00  0.00    -0.017 C 
ATOM     14  C11 EAA d           3.472   3.762  29.694  0.00  0.00    -0.112 C 
ATOM     15  H8  EAA d           3.016   3.889  28.713  0.00  0.00     0.067 H 
ATOM     16  H9  EAA d           3.128   4.362  30.536  0.00  0.00     0.067 H 
BRANCH  13  17
ATOM     17  C9  EAA d           5.125   2.635  31.146  0.00  0.00    -0.041 C 
ATOM     18  H3  EAA d           4.728   3.352  31.880  0.00  0.00     0.039 H 
ATOM     19  H4  EAA d           6.195   2.833  30.981  0.00  0.00     0.039 H 
BRANCH  17  20
ATOM     20  C10 EAA d           5.022   1.311  31.741  0.00  0.00    -0.073 C 
ATOM     21  H5  EAA d           5.596   0.592  31.138  0.00  0.00     0.028 H 
ATOM     22  H6  EAA d           3.966   1.003  31.770  0.00  0.00     0.028 H 
ATOM     23  H7  EAA d           5.425   1.336  32.763  0.00  0.00     0.028 H 
ENDBRANCH  17  20
ENDBRANCH  13  17
ENDBRANCH  11  13
ENDBRANCH   6  11
BRANCH   1  24
ATOM     24  O2  EAA d           9.352   3.776  25.777  0.00  0.00    -0.339 OA
BRANCH  24  25
ATOM     25  C12 EAA d          10.207   2.774  25.273  0.00  0.00     0.106 C 
ATOM     26  H10 EAA d          10.131   1.878  25.905  0.00  0.00     0.091 H 
ATOM     27  H11 EAA d          11.244   3.141  25.281  0.00  0.00     0.091 H 
BRANCH  25  28
ATOM     28  C13 EAA d           9.818   2.431  23.884  0.00  0.00     0.198 C 
ATOM     29  O   EAA d           9.493   3.412  23.158  0.00  0.00    -0.646 OA
ATOM     30  OXT EAA d           9.848   1.238  23.469  0.00  0.00    -0.646 OA
ENDBRANCH  25  28
ENDBRANCH  24  25
ENDBRANCH   1  24
TORSDOF 7
ENDMDL
MODEL 9
REMARK VINA RESULT:      -3.8      3.188      4.298
REMARK  7 active torsions:
REMARK  status: ('A' for Active; 'I' for Inactive)
REMARK    1  A    between atoms: C1_1  and  O2_2 
REMARK    2  A    between atoms: O2_2  and  C12_16 
REMARK    3  A    between atoms: C4_7  and  C7_10 
REMARK    4  A    between atoms: C7_10  and  C8_12 
REMARK    5  A    between atoms: C8_12  and  C9_13 
REMARK    6  A    between atoms: C9_13  and  C10_14 
REMARK    7  A    between atoms: C12_16  and  C13_17 
ROOT
ATOM      1  C1  EAA d           8.621   3.998  27.189  0.00  0.00     0.092 A 
ATOM      2  C2  EAA d           8.049   4.299  25.938  0.00  0.00     0.090 A 
ATOM      3 CL1  EAA d           8.984   3.975  24.531  0.00  0.00    -0.080 Cl
ATOM      4  C3  EAA d           6.790   4.797  25.850  0.00  0.00     0.072 A 
ATOM      5 CL2  EAA d           6.127   5.177  24.286  0.00  0.00    -0.081 Cl
ATOM      6  C4  EAA d           6.025   5.058  26.989  0.00  0.00     0.038 A 
ATOM      7  C5  EAA d           6.606   4.769  28.227  0.00  0.00    -0.065 A 
ATOM      8  C6  EAA d           7.873   4.262  28.324  0.00  0.00    -0.048 A 
ATOM      9  H1  EAA d           6.039   4.951  29.133  0.00  0.00     0.085 H 
ATOM     10  H2  EAA d           8.297   4.065  29.301  0.00  0.00     0.087 H 
ENDROOT
BRANCH   6  11
ATOM     11  C7  EAA d           4.589   5.477  26.907  0.00  0.00     0.189 C 
ATOM     12  O1  EAA d           4.280   6.631  27.073  0.00  0.00    -0.287 OA
BRANCH  11  13
ATOM     13  C8  EAA d           3.531   4.484  26.590  0.00  0.00    -0.017 C 
ATOM     14  C11 EAA d           3.094   4.396  25.366  0.00  0.00    -0.112 C 
ATOM     15  H8  EAA d           3.469   5.077  24.604  0.00  0.00     0.067 H 
ATOM     16  H9  EAA d           2.353   3.641  25.105  0.00  0.00     0.067 H 
BRANCH  13  17
ATOM     17  C9  EAA d           3.095   3.614  27.711  0.00  0.00    -0.041 C 
ATOM     18  H3  EAA d           2.002   3.510  27.635  0.00  0.00     0.039 H 
ATOM     19  H4  EAA d           3.349   4.137  28.645  0.00  0.00     0.039 H 
BRANCH  17  20
ATOM     20  C10 EAA d           3.647   2.271  27.809  0.00  0.00    -0.073 C 
ATOM     21  H5  EAA d           3.528   1.899  28.837  0.00  0.00     0.028 H 
ATOM     22  H6  EAA d           4.717   2.295  27.550  0.00  0.00     0.028 H 
ATOM     23  H7  EAA d           3.117   1.605  27.114  0.00  0.00     0.028 H 
ENDBRANCH  17  20
ENDBRANCH  13  17
ENDBRANCH  11  13
ENDBRANCH   6  11
BRANCH   1  24
ATOM     24  O2  EAA d           9.885   3.500  27.175  0.00  0.00    -0.339 OA
BRANCH  24  25
ATOM     25  C12 EAA d          10.107   2.240  27.769  0.00  0.00     0.106 C 
ATOM     26  H10 EAA d           9.809   2.279  28.827  0.00  0.00     0.091 H 
ATOM     27  H11 EAA d          11.174   1.987  27.697  0.00  0.00     0.091 H 
BRANCH  25  28
ATOM     28  C13 EAA d           9.307   1.205  27.070  0.00  0.00     0.198 C 
ATOM     29  O   EAA d           9.721   0.892  25.919  0.00  0.00    -0.646 OA
ATOM     30  OXT EAA d           8.306   0.666  27.621  0.00  0.00    -0.646 OA
ENDBRANCH  25  28
ENDBRANCH  24  25
ENDBRANCH   1  24
TORSDOF 7
ENDMDL
MODEL 10
REMARK VINA RESULT:      -3.5      3.443      4.678
REMARK  7 active torsions:
REMARK  status: ('A' for Active; 'I' for Inactive)
REMARK    1  A    between atoms: C1_1  and  O2_2 
REMARK    2  A    between atoms: O2_2  and  C12_16 
REMARK    3  A    between atoms: C4_7  and  C7_10 
REMARK    4  A    between atoms: C7_10  and  C8_12 
REMARK    5  A    between atoms: C8_12  and  C9_13 
REMARK    6  A    between atoms: C9_13  and  C10_14 
REMARK    7  A    between atoms: C12_16  and  C13_17 
ROOT
ATOM      1  C1  EAA d           8.712   3.998  27.397  0.00  0.00     0.092 A 
ATOM      2  C2  EAA d           8.464   4.902  26.346  0.00  0.00     0.090 A 
ATOM      3 CL1  EAA d           9.757   5.247  25.264  0.00  0.00    -0.080 Cl
ATOM      4  C3  EAA d           7.236   5.453  26.177  0.00  0.00     0.072 A 
ATOM      5 CL2  EAA d           6.976   6.583  24.878  0.00  0.00    -0.081 Cl
ATOM      6  C4  EAA d           6.181   5.173  27.049  0.00  0.00     0.038 A 
ATOM      7  C5  EAA d           6.441   4.285  28.097  0.00  0.00    -0.065 A 
ATOM      8  C6  EAA d           7.675   3.721  28.271  0.00  0.00    -0.048 A 
ATOM      9  H1  EAA d           5.644   4.037  28.789  0.00  0.00     0.085 H 
ATOM     10  H2  EAA d           7.843   3.049  29.104  0.00  0.00     0.087 H 
ENDROOT
BRANCH   6  11
ATOM     11  C7  EAA d           4.787   5.662  26.800  0.00  0.00     0.189 C 
ATOM     12  O1  EAA d           4.388   6.663  27.340  0.00  0.00    -0.287 OA
BRANCH  11  13
ATOM     13  C8  EAA d           3.891   4.940  25.861  0.00  0.00    -0.017 C 
ATOM     14  C11 EAA d           3.086   4.029  26.329  0.00  0.00    -0.112 C 
ATOM     15  H8  EAA d           3.112   3.773  27.388  0.00  0.00     0.067 H 
ATOM     16  H9  EAA d           2.388   3.524  25.663  0.00  0.00     0.067 H 
BRANCH  13  17
ATOM     17  C9  EAA d           3.948   5.372  24.442  0.00  0.00    -0.041 C 
ATOM     18  H3  EAA d           3.698   4.496  23.826  0.00  0.00     0.039 H 
ATOM     19  H4  EAA d           4.985   5.680  24.238  0.00  0.00     0.039 H 
BRANCH  17  20
ATOM     20  C10 EAA d           3.086   6.461  24.008  0.00  0.00    -0.073 C 
ATOM     21  H5  EAA d           2.985   7.195  24.821  0.00  0.00     0.028 H 
ATOM     22  H6  EAA d           2.094   6.062  23.749  0.00  0.00     0.028 H 
ATOM     23  H7  EAA d           3.526   6.949  23.127  0.00  0.00     0.028 H 
ENDBRANCH  17  20
ENDBRANCH  13  17
ENDBRANCH  11  13
ENDBRANCH   6  11
BRANCH   1  24
ATOM     24  O2  EAA d           9.971   3.496  27.481  0.00  0.00    -0.339 OA
BRANCH  24  25
ATOM     25  C12 EAA d          10.118   2.113  27.719  0.00  0.00     0.106 C 
ATOM     26  H10 EAA d           9.705   1.867  28.708  0.00  0.00     0.091 H 
ATOM     27  H11 EAA d          11.186   1.851  27.692  0.00  0.00     0.091 H 
BRANCH  25  28
ATOM     28  C13 EAA d           9.396   1.344  26.677  0.00  0.00     0.198 C 
ATOM     29  O   EAA d           8.393   0.693  27.087  0.00  0.00    -0.646 OA
ATOM     30  OXT EAA d           9.756   1.378  25.467  0.00  0.00    -0.646 OA
ENDBRANCH  25  28
ENDBRANCH  24  25
ENDBRANCH   1  24
TORSDOF 7
ENDMDL
