MODEL 1
REMARK VINA RESULT:      -7.9      0.000      0.000
REMARK  5 active torsions:
REMARK  status: ('A' for Active; 'I' for Inactive)
REMARK    1  A    between atoms: C1_1  and  C14_14 
REMARK    2  A    between atoms: C2_2  and  C15_15 
REMARK    3  A    between atoms: C3_3  and  C13_13 
REMARK    4  A    between atoms: C8_8  and  C10_10 
REMARK       I    between atoms: C10_10  and  N12_12 
REMARK    5  A    between atoms: C15_15  and  N16_16 
ROOT
ATOM      1  C1  MOL d          48.381  50.192  35.333  0.00  0.00     0.078 A 
ATOM      2  C2  MOL d          47.431  50.879  34.616  0.00  0.00     0.021 A 
ATOM      3  C3  MOL d          47.785  51.376  33.333  0.00  0.00     0.060 A 
ATOM      4  N4  MOL d          48.976  51.271  32.757  0.00  0.00    -0.067 NA
ATOM      5  N5  MOL d          49.620  50.097  34.786  0.00  0.00    -0.150 N 
ATOM      6  C6  MOL d          49.944  50.607  33.497  0.00  0.00     0.734 A 
ATOM      7  N7  MOL d          51.242  50.345  33.170  0.00  0.00    -0.055 NA
ATOM      8  C8  MOL d          51.718  49.659  34.296  0.00  0.00     0.160 A 
ATOM      9  C9  MOL d          50.768  49.493  35.281  0.00  0.00     0.037 A 
ATOM     10  H1  MOL d          50.891  48.996  36.242  0.00  0.00     0.117 H 
ENDROOT
BRANCH   8  11
ATOM     11  C10 MOL d          53.109  49.154  34.368  0.00  0.00     0.274 C 
ATOM     12  O11 MOL d          53.447  48.179  33.666  0.00  0.00    -0.266 OA
ATOM     13  N12 MOL d          53.862  49.560  35.483  0.00  0.00    -0.343 N 
ATOM     14  C24 MOL d          53.939  50.952  35.977  0.00  0.00     0.018 C 
ATOM     15  C28 MOL d          55.024  48.752  35.909  0.00  0.00     0.018 C 
ATOM     16  C25 MOL d          55.268  51.627  35.455  0.00  0.00     0.034 C 
ATOM     17  H13 MOL d          53.937  50.950  37.077  0.00  0.00     0.067 H 
ATOM     18  H14 MOL d          53.071  51.520  35.610  0.00  0.00     0.067 H 
ATOM     19  O26 MOL d          56.446  50.818  35.670  0.00  0.00    -0.388 OA
ATOM     20  H15 MOL d          55.403  52.584  35.981  0.00  0.00     0.076 H 
ATOM     21  H16 MOL d          55.165  51.812  34.376  0.00  0.00     0.076 H 
ATOM     22  C27 MOL d          56.315  49.410  35.347  0.00  0.00     0.034 C 
ATOM     23  H17 MOL d          57.184  48.878  35.761  0.00  0.00     0.076 H 
ATOM     24  H18 MOL d          56.309  49.305  34.252  0.00  0.00     0.076 H 
ATOM     25  H19 MOL d          54.928  47.728  35.517  0.00  0.00     0.067 H 
ATOM     26  H20 MOL d          55.071  48.721  37.007  0.00  0.00     0.067 H 
ENDBRANCH   8  11
BRANCH   1  27
ATOM     27  C14 MOL d          48.191  49.661  36.693  0.00  0.00     0.014 A 
ATOM     28  C17 MOL d          47.656  48.396  36.861  0.00  0.00    -0.068 A 
ATOM     29  C18 MOL d          47.510  47.893  38.149  0.00  0.00    -0.061 A 
ATOM     30  H10 MOL d          47.357  47.806  36.003  0.00  0.00     0.085 H 
ATOM     31  C19 MOL d          47.913  48.675  39.234  0.00  0.00     0.035 A 
ATOM     32  H11 MOL d          47.088  46.907  38.310  0.00  0.00     0.086 H 
ATOM     33  C20 MOL d          48.438  49.924  39.100  0.00  0.00    -0.040 A 
ATOM     34 CL23 MOL d          47.798  48.051  40.809  0.00  0.00    -0.084 Cl
ATOM     35  C21 MOL d          48.580  50.397  37.825  0.00  0.00     0.048 A 
ATOM     36  H12 MOL d          48.730  50.514  39.961  0.00  0.00     0.088 H 
ATOM     37 CL22 MOL d          49.256  51.943  37.646  0.00  0.00    -0.083 Cl
ENDBRANCH   1  27
BRANCH   3  38
ATOM     38  C13 MOL d          46.791  52.124  32.517  0.00  0.00    -0.034 C 
ATOM     39  H2  MOL d          47.251  52.424  31.563  0.00  0.00     0.035 H 
ATOM     40  H3  MOL d          46.467  53.022  33.065  0.00  0.00     0.035 H 
ATOM     41  H4  MOL d          45.921  51.481  32.318  0.00  0.00     0.035 H 
ENDBRANCH   3  38
BRANCH   2  42
ATOM     42  C15 MOL d          46.021  51.020  35.119  0.00  0.00     0.107 C 
ATOM     43  H5  MOL d          45.662  50.053  35.500  0.00  0.00     0.083 H 
ATOM     44  H6  MOL d          45.366  51.359  34.303  0.00  0.00     0.083 H 
BRANCH  42  45
ATOM     45  N16 MOL d          46.022  51.989  36.178  0.00  0.00    -0.075 N 
ATOM     46  H7  MOL d          45.086  52.101  36.533  0.00  0.00     0.274 HD
ATOM     47  H8  MOL d          46.355  52.872  35.824  0.00  0.00     0.274 HD
ATOM     48  H9  MOL d          46.627  51.674  36.920  0.00  0.00     0.274 HD
ENDBRANCH  42  45
ENDBRANCH   2  42
TORSDOF 5
ENDMDL
