MODEL 1
REMARK VINA RESULT:      -6.7      0.000      0.000
REMARK  5 active torsions:
REMARK  status: ('A' for Active; 'I' for Inactive)
REMARK    1  A    between atoms: C1_1  and  C14_14 
REMARK    2  A    between atoms: C2_2  and  C15_15 
REMARK    3  A    between atoms: C3_3  and  C13_13 
REMARK    4  A    between atoms: C8_8  and  C10_10 
REMARK       I    between atoms: C10_10  and  N12_12 
REMARK    5  A    between atoms: C15_15  and  N16_16 
ROOT
ATOM      1  C1  MOL d          48.140  50.423  34.799  0.00  0.00     0.078 A 
ATOM      2  C2  MOL d          47.172  51.107  34.105  0.00  0.00     0.021 A 
ATOM      3  C3  MOL d          47.518  51.672  32.848  0.00  0.00     0.060 A 
ATOM      4  N4  MOL d          48.716  51.632  32.278  0.00  0.00    -0.067 NA
ATOM      5  N5  MOL d          49.386  50.393  34.259  0.00  0.00    -0.150 N 
ATOM      6  C6  MOL d          49.701  50.970  32.997  0.00  0.00     0.734 A 
ATOM      7  N7  MOL d          51.009  50.766  32.670  0.00  0.00    -0.055 NA
ATOM      8  C8  MOL d          51.501  50.049  33.768  0.00  0.00     0.160 A 
ATOM      9  C9  MOL d          50.550  49.808  34.738  0.00  0.00     0.037 A 
ATOM     10  H1  MOL d          50.683  49.273  35.677  0.00  0.00     0.117 H 
ENDROOT
BRANCH   8  11
ATOM     11  C10 MOL d          52.907  49.588  33.831  0.00  0.00     0.274 C 
ATOM     12  O11 MOL d          53.365  48.882  32.909  0.00  0.00    -0.266 OA
ATOM     13  N12 MOL d          53.531  49.660  35.088  0.00  0.00    -0.343 N 
ATOM     14  C24 MOL d          53.479  50.838  35.981  0.00  0.00     0.018 C 
ATOM     15  C28 MOL d          54.697  48.797  35.372  0.00  0.00     0.018 C 
ATOM     16  C25 MOL d          54.806  51.680  35.825  0.00  0.00     0.034 C 
ATOM     17  H13 MOL d          53.378  50.503  37.023  0.00  0.00     0.067 H 
ATOM     18  H14 MOL d          52.615  51.463  35.711  0.00  0.00     0.067 H 
ATOM     19  O26 MOL d          56.007  50.880  35.910  0.00  0.00    -0.388 OA
ATOM     20  H15 MOL d          54.835  52.437  36.623  0.00  0.00     0.076 H 
ATOM     21  H16 MOL d          54.789  52.181  34.846  0.00  0.00     0.076 H 
ATOM     22  C27 MOL d          55.991  49.633  35.169  0.00  0.00     0.034 C 
ATOM     23  H17 MOL d          56.850  49.027  35.494  0.00  0.00     0.076 H 
ATOM     24  H18 MOL d          56.090  49.865  34.098  0.00  0.00     0.076 H 
ATOM     25  H19 MOL d          54.699  47.937  34.685  0.00  0.00     0.067 H 
ATOM     26  H20 MOL d          54.647  48.436  36.409  0.00  0.00     0.067 H 
ENDBRANCH   8  11
BRANCH   1  27
ATOM     27  C14 MOL d          47.958  49.826  36.133  0.00  0.00     0.014 A 
ATOM     28  C17 MOL d          47.415  48.560  36.245  0.00  0.00    -0.068 A 
ATOM     29  C18 MOL d          47.276  47.995  37.508  0.00  0.00    -0.061 A 
ATOM     30  H10 MOL d          47.102  48.015  35.361  0.00  0.00     0.085 H 
ATOM     31  C19 MOL d          47.697  48.719  38.626  0.00  0.00     0.035 A 
ATOM     32  H11 MOL d          46.847  47.006  37.624  0.00  0.00     0.086 H 
ATOM     33  C20 MOL d          48.232  49.969  38.548  0.00  0.00    -0.040 A 
ATOM     34 CL23 MOL d          47.591  48.019  40.169  0.00  0.00    -0.084 Cl
ATOM     35  C21 MOL d          48.365  50.503  37.296  0.00  0.00     0.048 A 
ATOM     36  H12 MOL d          48.537  50.513  39.433  0.00  0.00     0.088 H 
ATOM     37 CL22 MOL d          49.052  52.050  37.187  0.00  0.00    -0.083 Cl
ENDBRANCH   1  27
BRANCH   3  38
ATOM     38  C13 MOL d          46.505  52.421  32.056  0.00  0.00    -0.034 C 
ATOM     39  H2  MOL d          46.989  53.270  31.550  0.00  0.00     0.035 H 
ATOM     40  H3  MOL d          45.717  52.795  32.727  0.00  0.00     0.035 H 
ATOM     41  H4  MOL d          46.060  51.752  31.304  0.00  0.00     0.035 H 
ENDBRANCH   3  38
BRANCH   2  42
ATOM     42  C15 MOL d          45.754  51.179  34.602  0.00  0.00     0.107 C 
ATOM     43  H5  MOL d          45.298  52.129  34.291  0.00  0.00     0.083 H 
ATOM     44  H6  MOL d          45.740  51.106  35.699  0.00  0.00     0.083 H 
BRANCH  42  45
ATOM     45  N16 MOL d          45.029  50.079  34.031  0.00  0.00    -0.075 N 
ATOM     46  H7  MOL d          44.105  50.387  33.768  0.00  0.00     0.274 HD
ATOM     47  H8  MOL d          44.955  49.337  34.709  0.00  0.00     0.274 HD
ATOM     48  H9  MOL d          45.516  49.743  33.215  0.00  0.00     0.274 HD
ENDBRANCH  42  45
ENDBRANCH   2  42
TORSDOF 5
ENDMDL
MODEL 2
REMARK VINA RESULT:      -6.4      1.089      1.419
REMARK  5 active torsions:
REMARK  status: ('A' for Active; 'I' for Inactive)
REMARK    1  A    between atoms: C1_1  and  C14_14 
REMARK    2  A    between atoms: C2_2  and  C15_15 
REMARK    3  A    between atoms: C3_3  and  C13_13 
REMARK    4  A    between atoms: C8_8  and  C10_10 
REMARK       I    between atoms: C10_10  and  N12_12 
REMARK    5  A    between atoms: C15_15  and  N16_16 
ROOT
ATOM      1  C1  MOL d          48.262  50.733  34.431  0.00  0.00     0.078 A 
ATOM      2  C2  MOL d          47.295  51.379  33.700  0.00  0.00     0.021 A 
ATOM      3  C3  MOL d          47.623  51.820  32.390  0.00  0.00     0.060 A 
ATOM      4  N4  MOL d          48.805  51.699  31.799  0.00  0.00    -0.067 NA
ATOM      5  N5  MOL d          49.493  50.623  33.868  0.00  0.00    -0.150 N 
ATOM      6  C6  MOL d          49.792  51.077  32.553  0.00  0.00     0.734 A 
ATOM      7  N7  MOL d          51.086  50.811  32.216  0.00  0.00    -0.055 NA
ATOM      8  C8  MOL d          51.587  50.181  33.364  0.00  0.00     0.160 A 
ATOM      9  C9  MOL d          50.655  50.052  34.371  0.00  0.00     0.037 A 
ATOM     10  H1  MOL d          50.798  49.600  35.351  0.00  0.00     0.117 H 
ENDROOT
BRANCH   8  11
ATOM     11  C10 MOL d          52.983  49.691  33.436  0.00  0.00     0.274 C 
ATOM     12  O11 MOL d          53.471  49.077  32.465  0.00  0.00    -0.266 OA
ATOM     13  N12 MOL d          53.553  49.621  34.718  0.00  0.00    -0.343 N 
ATOM     14  C24 MOL d          53.479  50.700  35.726  0.00  0.00     0.018 C 
ATOM     15  C28 MOL d          54.694  48.712  34.958  0.00  0.00     0.018 C 
ATOM     16  C25 MOL d          54.822  51.530  35.715  0.00  0.00     0.034 C 
ATOM     17  H13 MOL d          53.328  50.260  36.723  0.00  0.00     0.067 H 
ATOM     18  H14 MOL d          52.635  51.366  35.488  0.00  0.00     0.067 H 
ATOM     19  O26 MOL d          56.007  50.704  35.765  0.00  0.00    -0.388 OA
ATOM     20  H15 MOL d          54.827  52.199  36.588  0.00  0.00     0.076 H 
ATOM     21  H16 MOL d          54.855  52.130  34.794  0.00  0.00     0.076 H 
ATOM     22  C27 MOL d          56.007  49.542  34.898  0.00  0.00     0.034 C 
ATOM     23  H17 MOL d          56.842  48.890  35.193  0.00  0.00     0.076 H 
ATOM     24  H18 MOL d          56.154  49.882  33.862  0.00  0.00     0.076 H 
ATOM     25  H19 MOL d          54.713  47.929  34.186  0.00  0.00     0.067 H 
ATOM     26  H20 MOL d          54.594  48.246  35.949  0.00  0.00     0.067 H 
ENDBRANCH   8  11
BRANCH   1  27
ATOM     27  C14 MOL d          48.099  50.262  35.817  0.00  0.00     0.014 A 
ATOM     28  C17 MOL d          48.528  51.061  36.861  0.00  0.00    -0.068 A 
ATOM     29  C18 MOL d          48.342  50.619  38.167  0.00  0.00    -0.061 A 
ATOM     30  H10 MOL d          49.002  52.016  36.666  0.00  0.00     0.085 H 
ATOM     31  C19 MOL d          47.721  49.387  38.386  0.00  0.00     0.035 A 
ATOM     32  H11 MOL d          48.674  51.223  39.004  0.00  0.00     0.086 H 
ATOM     33  C20 MOL d          47.291  48.579  37.378  0.00  0.00    -0.040 A 
ATOM     34 CL23 MOL d          47.430  48.863  39.974  0.00  0.00    -0.084 Cl
ATOM     35  C21 MOL d          47.478  49.035  36.102  0.00  0.00     0.048 A 
ATOM     36  H12 MOL d          46.825  47.621  37.577  0.00  0.00     0.088 H 
ATOM     37 CL22 MOL d          46.926  48.044  34.841  0.00  0.00    -0.083 Cl
ENDBRANCH   1  27
BRANCH   3  38
ATOM     38  C13 MOL d          46.610  52.522  31.557  0.00  0.00    -0.034 C 
ATOM     39  H2  MOL d          47.100  52.963  30.676  0.00  0.00     0.035 H 
ATOM     40  H3  MOL d          46.136  53.319  32.150  0.00  0.00     0.035 H 
ATOM     41  H4  MOL d          45.843  51.804  31.229  0.00  0.00     0.035 H 
ENDBRANCH   3  38
BRANCH   2  42
ATOM     42  C15 MOL d          45.892  51.531  34.220  0.00  0.00     0.107 C 
ATOM     43  H5  MOL d          45.477  52.497  33.897  0.00  0.00     0.083 H 
ATOM     44  H6  MOL d          45.893  51.481  35.319  0.00  0.00     0.083 H 
BRANCH  42  45
ATOM     45  N16 MOL d          45.102  50.458  33.684  0.00  0.00    -0.075 N 
ATOM     46  H7  MOL d          44.244  50.829  33.305  0.00  0.00     0.274 HD
ATOM     47  H8  MOL d          44.888  49.800  34.417  0.00  0.00     0.274 HD
ATOM     48  H9  MOL d          45.618  49.993  32.954  0.00  0.00     0.274 HD
ENDBRANCH  42  45
ENDBRANCH   2  42
TORSDOF 5
ENDMDL
MODEL 3
REMARK VINA RESULT:      -6.0      1.220      1.811
REMARK  5 active torsions:
REMARK  status: ('A' for Active; 'I' for Inactive)
REMARK    1  A    between atoms: C1_1  and  C14_14 
REMARK    2  A    between atoms: C2_2  and  C15_15 
REMARK    3  A    between atoms: C3_3  and  C13_13 
REMARK    4  A    between atoms: C8_8  and  C10_10 
REMARK       I    between atoms: C10_10  and  N12_12 
REMARK    5  A    between atoms: C15_15  and  N16_16 
ROOT
ATOM      1  C1  MOL d          48.308  50.411  34.760  0.00  0.00     0.078 A 
ATOM      2  C2  MOL d          47.305  50.895  33.957  0.00  0.00     0.021 A 
ATOM      3  C3  MOL d          47.658  51.458  32.702  0.00  0.00     0.060 A 
ATOM      4  N4  MOL d          48.890  51.597  32.229  0.00  0.00    -0.067 NA
ATOM      5  N5  MOL d          49.584  50.569  34.320  0.00  0.00    -0.150 N 
ATOM      6  C6  MOL d          49.906  51.139  33.056  0.00  0.00     0.734 A 
ATOM      7  N7  MOL d          51.253  51.145  32.842  0.00  0.00    -0.055 NA
ATOM      8  C8  MOL d          51.761  50.565  34.013  0.00  0.00     0.160 A 
ATOM      9  C9  MOL d          50.783  50.207  34.918  0.00  0.00     0.037 A 
ATOM     10  H1  MOL d          50.922  49.741  35.892  0.00  0.00     0.117 H 
ENDROOT
BRANCH   8  11
ATOM     11  C10 MOL d          53.213  50.349  34.208  0.00  0.00     0.274 C 
ATOM     12  O11 MOL d          53.861  51.139  34.926  0.00  0.00    -0.266 OA
ATOM     13  N12 MOL d          53.846  49.495  33.290  0.00  0.00    -0.343 N 
ATOM     14  C24 MOL d          53.320  48.175  32.877  0.00  0.00     0.018 C 
ATOM     15  C28 MOL d          55.305  49.603  33.081  0.00  0.00     0.018 C 
ATOM     16  C25 MOL d          54.052  47.035  33.687  0.00  0.00     0.034 C 
ATOM     17  H13 MOL d          53.497  48.032  31.801  0.00  0.00     0.067 H 
ATOM     18  H14 MOL d          52.239  48.132  33.079  0.00  0.00     0.067 H 
ATOM     19  O26 MOL d          55.491  47.166  33.688  0.00  0.00    -0.388 OA
ATOM     20  H15 MOL d          53.791  46.065  33.239  0.00  0.00     0.076 H 
ATOM     21  H16 MOL d          53.699  47.065  34.729  0.00  0.00     0.076 H 
ATOM     22  C27 MOL d          56.007  48.501  33.923  0.00  0.00     0.034 C 
ATOM     23  H17 MOL d          57.079  48.506  33.675  0.00  0.00     0.076 H 
ATOM     24  H18 MOL d          55.874  48.741  34.988  0.00  0.00     0.076 H 
ATOM     25  H19 MOL d          55.653  50.596  33.404  0.00  0.00     0.067 H 
ATOM     26  H20 MOL d          55.538  49.462  32.016  0.00  0.00     0.067 H 
ENDBRANCH   8  11
BRANCH   1  27
ATOM     27  C14 MOL d          48.115  49.847  36.106  0.00  0.00     0.014 A 
ATOM     28  C17 MOL d          47.594  48.573  36.242  0.00  0.00    -0.068 A 
ATOM     29  C18 MOL d          47.444  48.039  37.518  0.00  0.00    -0.061 A 
ATOM     30  H10 MOL d          47.307  47.999  35.369  0.00  0.00     0.085 H 
ATOM     31  C19 MOL d          47.830  48.801  38.623  0.00  0.00     0.035 A 
ATOM     32  H11 MOL d          47.032  47.045  37.653  0.00  0.00     0.086 H 
ATOM     33  C20 MOL d          48.342  50.058  38.520  0.00  0.00    -0.040 A 
ATOM     34 CL23 MOL d          47.710  48.140  40.182  0.00  0.00    -0.084 Cl
ATOM     35  C21 MOL d          48.488  50.561  37.257  0.00  0.00     0.048 A 
ATOM     36  H12 MOL d          48.621  50.632  39.396  0.00  0.00     0.088 H 
ATOM     37 CL22 MOL d          49.147  52.118  37.119  0.00  0.00    -0.083 Cl
ENDBRANCH   1  27
BRANCH   3  38
ATOM     38  C13 MOL d          46.607  51.994  31.796  0.00  0.00    -0.034 C 
ATOM     39  H2  MOL d          45.652  51.488  32.001  0.00  0.00     0.035 H 
ATOM     40  H3  MOL d          46.899  51.816  30.750  0.00  0.00     0.035 H 
ATOM     41  H4  MOL d          46.493  53.075  31.966  0.00  0.00     0.035 H 
ENDBRANCH   3  38
BRANCH   2  42
ATOM     42  C15 MOL d          45.857  50.747  34.339  0.00  0.00     0.107 C 
ATOM     43  H5  MOL d          45.687  49.754  34.780  0.00  0.00     0.083 H 
ATOM     44  H6  MOL d          45.223  50.866  33.449  0.00  0.00     0.083 H 
BRANCH  42  45
ATOM     45  N16 MOL d          45.545  51.767  35.300  0.00  0.00    -0.075 N 
ATOM     46  H7  MOL d          46.385  52.038  35.787  0.00  0.00     0.274 HD
ATOM     47  H8  MOL d          44.874  51.411  35.962  0.00  0.00     0.274 HD
ATOM     48  H9  MOL d          45.159  52.568  34.826  0.00  0.00     0.274 HD
ENDBRANCH  42  45
ENDBRANCH   2  42
TORSDOF 5
ENDMDL
MODEL 4
REMARK VINA RESULT:      -5.6      3.065      4.322
REMARK  5 active torsions:
REMARK  status: ('A' for Active; 'I' for Inactive)
REMARK    1  A    between atoms: C1_1  and  C14_14 
REMARK    2  A    between atoms: C2_2  and  C15_15 
REMARK    3  A    between atoms: C3_3  and  C13_13 
REMARK    4  A    between atoms: C8_8  and  C10_10 
REMARK       I    between atoms: C10_10  and  N12_12 
REMARK    5  A    between atoms: C15_15  and  N16_16 
ROOT
ATOM      1  C1  MOL d          48.365  50.264  34.641  0.00  0.00     0.078 A 
ATOM      2  C2  MOL d          48.179  50.935  35.824  0.00  0.00     0.021 A 
ATOM      3  C3  MOL d          49.299  51.116  36.678  0.00  0.00     0.060 A 
ATOM      4  N4  MOL d          50.528  50.666  36.460  0.00  0.00    -0.067 NA
ATOM      5  N5  MOL d          49.603  49.759  34.403  0.00  0.00    -0.150 N 
ATOM      6  C6  MOL d          50.706  49.957  35.280  0.00  0.00     0.734 A 
ATOM      7  N7  MOL d          51.842  49.383  34.789  0.00  0.00    -0.055 NA
ATOM      8  C8  MOL d          51.412  48.817  33.581  0.00  0.00     0.160 A 
ATOM      9  C9  MOL d          50.074  49.027  33.321  0.00  0.00     0.037 A 
ATOM     10  H1  MOL d          49.508  48.692  32.453  0.00  0.00     0.117 H 
ENDROOT
BRANCH   8  11
ATOM     11  C10 MOL d          52.344  48.093  32.685  0.00  0.00     0.274 C 
ATOM     12  O11 MOL d          51.970  47.038  32.132  0.00  0.00    -0.266 OA
ATOM     13  N12 MOL d          53.703  48.430  32.797  0.00  0.00    -0.343 N 
ATOM     14  C24 MOL d          54.220  49.815  32.841  0.00  0.00     0.018 C 
ATOM     15  C28 MOL d          54.730  47.466  32.349  0.00  0.00     0.018 C 
ATOM     16  C25 MOL d          54.744  50.231  31.410  0.00  0.00     0.034 C 
ATOM     17  H13 MOL d          55.046  49.874  33.564  0.00  0.00     0.067 H 
ATOM     18  H14 MOL d          53.413  50.497  33.148  0.00  0.00     0.067 H 
ATOM     19  O26 MOL d          55.622  49.252  30.813  0.00  0.00    -0.388 OA
ATOM     20  H15 MOL d          55.292  51.181  31.501  0.00  0.00     0.076 H 
ATOM     21  H16 MOL d          53.877  50.371  30.748  0.00  0.00     0.076 H 
ATOM     22  C27 MOL d          55.198  47.869  30.923  0.00  0.00     0.034 C 
ATOM     23  H17 MOL d          56.043  47.224  30.640  0.00  0.00     0.076 H 
ATOM     24  H18 MOL d          54.363  47.706  30.226  0.00  0.00     0.076 H 
ATOM     25  H19 MOL d          54.303  46.452  32.328  0.00  0.00     0.067 H 
ATOM     26  H20 MOL d          55.585  47.489  33.040  0.00  0.00     0.067 H 
ENDBRANCH   8  11
BRANCH   1  27
ATOM     27  C14 MOL d          47.300  49.947  33.673  0.00  0.00     0.014 A 
ATOM     28  C17 MOL d          46.472  48.864  33.904  0.00  0.00    -0.068 A 
ATOM     29  C18 MOL d          45.451  48.593  32.999  0.00  0.00    -0.061 A 
ATOM     30  H10 MOL d          46.615  48.236  34.776  0.00  0.00     0.085 H 
ATOM     31  C19 MOL d          45.287  49.425  31.889  0.00  0.00     0.035 A 
ATOM     32  H11 MOL d          44.791  47.746  33.153  0.00  0.00     0.086 H 
ATOM     33  C20 MOL d          46.089  50.496  31.635  0.00  0.00    -0.040 A 
ATOM     34 CL23 MOL d          44.008  49.144  30.809  0.00  0.00    -0.084 Cl
ATOM     35  C21 MOL d          47.082  50.749  32.540  0.00  0.00     0.048 A 
ATOM     36  H12 MOL d          45.948  51.116  30.758  0.00  0.00     0.088 H 
ATOM     37 CL22 MOL d          48.072  52.094  32.243  0.00  0.00    -0.083 Cl
ENDBRANCH   1  27
BRANCH   3  38
ATOM     38  C13 MOL d          49.150  51.839  37.971  0.00  0.00    -0.034 C 
ATOM     39  H2  MOL d          48.945  51.115  38.774  0.00  0.00     0.035 H 
ATOM     40  H3  MOL d          48.316  52.552  37.898  0.00  0.00     0.035 H 
ATOM     41  H4  MOL d          50.080  52.383  38.196  0.00  0.00     0.035 H 
ENDBRANCH   3  38
BRANCH   2  42
ATOM     42  C15 MOL d          46.853  51.555  36.173  0.00  0.00     0.107 C 
ATOM     43  H5  MOL d          46.309  51.812  35.253  0.00  0.00     0.083 H 
ATOM     44  H6  MOL d          47.013  52.464  36.771  0.00  0.00     0.083 H 
BRANCH  42  45
ATOM     45  N16 MOL d          46.102  50.597  36.933  0.00  0.00    -0.075 N 
ATOM     46  H7  MOL d          46.673  49.786  37.111  0.00  0.00     0.274 HD
ATOM     47  H8  MOL d          45.283  50.322  36.413  0.00  0.00     0.274 HD
ATOM     48  H9  MOL d          45.821  51.009  37.809  0.00  0.00     0.274 HD
ENDBRANCH  42  45
ENDBRANCH   2  42
TORSDOF 5
ENDMDL
MODEL 5
REMARK VINA RESULT:      -4.8      2.752      4.502
REMARK  5 active torsions:
REMARK  status: ('A' for Active; 'I' for Inactive)
REMARK    1  A    between atoms: C1_1  and  C14_14 
REMARK    2  A    between atoms: C2_2  and  C15_15 
REMARK    3  A    between atoms: C3_3  and  C13_13 
REMARK    4  A    between atoms: C8_8  and  C10_10 
REMARK       I    between atoms: C10_10  and  N12_12 
REMARK    5  A    between atoms: C15_15  and  N16_16 
ROOT
ATOM      1  C1  MOL d          48.015  50.141  34.993  0.00  0.00     0.078 A 
ATOM      2  C2  MOL d          47.730  49.777  36.286  0.00  0.00     0.021 A 
ATOM      3  C3  MOL d          48.806  49.391  37.129  0.00  0.00     0.060 A 
ATOM      4  N4  MOL d          50.083  49.313  36.778  0.00  0.00    -0.067 NA
ATOM      5  N5  MOL d          49.308  50.038  34.591  0.00  0.00    -0.150 N 
ATOM      6  C6  MOL d          50.365  49.647  35.461  0.00  0.00     0.734 A 
ATOM      7  N7  MOL d          51.569  49.665  34.820  0.00  0.00    -0.055 NA
ATOM      8  C8  MOL d          51.230  50.075  33.524  0.00  0.00     0.160 A 
ATOM      9  C9  MOL d          49.881  50.309  33.356  0.00  0.00     0.037 A 
ATOM     10  H1  MOL d          49.374  50.635  32.449  0.00  0.00     0.117 H 
ENDROOT
BRANCH   8  11
ATOM     11  C10 MOL d          52.256  50.254  32.470  0.00  0.00     0.274 C 
ATOM     12  O11 MOL d          52.038  49.825  31.319  0.00  0.00    -0.266 OA
ATOM     13  N12 MOL d          53.554  50.565  32.911  0.00  0.00    -0.343 N 
ATOM     14  C24 MOL d          53.868  51.596  33.925  0.00  0.00     0.018 C 
ATOM     15  C28 MOL d          54.708  50.275  32.035  0.00  0.00     0.018 C 
ATOM     16  C25 MOL d          54.328  52.924  33.206  0.00  0.00     0.034 C 
ATOM     17  H13 MOL d          54.676  51.233  34.577  0.00  0.00     0.067 H 
ATOM     18  H14 MOL d          52.971  51.799  34.530  0.00  0.00     0.067 H 
ATOM     19  O26 MOL d          55.338  52.709  32.195  0.00  0.00    -0.388 OA
ATOM     20  H15 MOL d          54.735  53.609  33.964  0.00  0.00     0.076 H 
ATOM     21  H16 MOL d          53.450  53.385  32.729  0.00  0.00     0.076 H 
ATOM     22  C27 MOL d          55.115  51.586  31.305  0.00  0.00     0.034 C 
ATOM     23  H17 MOL d          56.044  51.397  30.747  0.00  0.00     0.076 H 
ATOM     24  H18 MOL d          54.312  51.854  30.602  0.00  0.00     0.076 H 
ATOM     25  H19 MOL d          54.430  49.509  31.297  0.00  0.00     0.067 H 
ATOM     26  H20 MOL d          55.551  49.912  32.641  0.00  0.00     0.067 H 
ENDBRANCH   8  11
BRANCH   1  27
ATOM     27  C14 MOL d          47.012  50.514  33.981  0.00  0.00     0.014 A 
ATOM     28  C17 MOL d          46.899  51.836  33.590  0.00  0.00    -0.068 A 
ATOM     29  C18 MOL d          45.969  52.171  32.612  0.00  0.00    -0.061 A 
ATOM     30  H10 MOL d          47.525  52.598  34.039  0.00  0.00     0.085 H 
ATOM     31  C19 MOL d          45.183  51.164  32.047  0.00  0.00     0.035 A 
ATOM     32  H11 MOL d          45.856  53.201  32.292  0.00  0.00     0.086 H 
ATOM     33  C20 MOL d          45.270  49.856  32.414  0.00  0.00    -0.040 A 
ATOM     34 CL23 MOL d          44.088  51.549  30.808  0.00  0.00    -0.084 Cl
ATOM     35  C21 MOL d          46.195  49.546  33.372  0.00  0.00     0.048 A 
ATOM     36  H12 MOL d          44.637  49.098  31.968  0.00  0.00     0.088 H 
ATOM     37 CL22 MOL d          46.326  47.915  33.819  0.00  0.00    -0.083 Cl
ENDBRANCH   1  27
BRANCH   3  38
ATOM     38  C13 MOL d          48.550  48.991  38.539  0.00  0.00    -0.034 C 
ATOM     39  H2  MOL d          49.365  48.340  38.890  0.00  0.00     0.035 H 
ATOM     40  H3  MOL d          47.595  48.447  38.599  0.00  0.00     0.035 H 
ATOM     41  H4  MOL d          48.500  49.889  39.172  0.00  0.00     0.035 H 
ENDBRANCH   3  38
BRANCH   2  42
ATOM     42  C15 MOL d          46.335  49.878  36.838  0.00  0.00     0.107 C 
ATOM     43  H5  MOL d          46.323  49.540  37.885  0.00  0.00     0.083 H 
ATOM     44  H6  MOL d          45.652  49.253  36.244  0.00  0.00     0.083 H 
BRANCH  42  45
ATOM     45  N16 MOL d          45.926  51.252  36.765  0.00  0.00    -0.075 N 
ATOM     46  H7  MOL d          45.468  51.420  35.883  0.00  0.00     0.274 HD
ATOM     47  H8  MOL d          46.736  51.847  36.841  0.00  0.00     0.274 HD
ATOM     48  H9  MOL d          45.288  51.453  37.519  0.00  0.00     0.274 HD
ENDBRANCH  42  45
ENDBRANCH   2  42
TORSDOF 5
ENDMDL
