MODEL 1
REMARK VINA RESULT:      -6.2      0.000      0.000
REMARK  6 active torsions:
REMARK  status: ('A' for Active; 'I' for Inactive)
REMARK    1  A    between atoms: N_1  and  CA_2 
REMARK    2  A    between atoms: CA_2  and  C_3 
REMARK    3  A    between atoms: CA_2  and  CB_5 
REMARK    4  A    between atoms: CB_5  and  CG_6 
REMARK    5  A    between atoms: CG_6  and  CD1_7 
REMARK    6  A    between atoms: CG_6  and  CD2_8 
ROOT
ATOM      1  CB  LEU d          27.025  31.427  20.419  0.00  0.00    -0.026 C 
ATOM      2  H5  LEU d          28.000  30.934  20.291  0.00  0.00     0.037 H 
ATOM      3  H6  LEU d          26.328  30.738  20.920  0.00  0.00     0.037 H 
ENDROOT
BRANCH   1   4
ATOM      4  CA  LEU d          26.464  31.718  19.018  0.00  0.00     0.182 C 
ATOM      5  H4  LEU d          27.162  32.364  18.465  0.00  0.00     0.101 H 
BRANCH   4   6
ATOM      6  N   LEU d          25.161  32.396  19.113  0.00  0.00    -0.065 N 
ATOM      7  H1  LEU d          25.275  33.278  19.588  0.00  0.00     0.275 HD
ATOM      8  H2  LEU d          24.517  31.817  19.629  0.00  0.00     0.275 HD
ATOM      9  H3  LEU d          24.798  32.559  18.186  0.00  0.00     0.275 HD
ENDBRANCH   4   6
BRANCH   4  10
ATOM     10  C   LEU d          26.338  30.388  18.310  0.00  0.00     0.204 C 
ATOM     11  O   LEU d          27.323  29.607  18.180  0.00  0.00    -0.646 OA
ATOM     12  OXT LEU d          25.226  30.025  17.903  0.00  0.00    -0.646 OA
ENDBRANCH   4  10
ENDBRANCH   1   4
BRANCH   1  13
ATOM     13  CG  LEU d          27.232  32.624  21.341  0.00  0.00    -0.059 C 
ATOM     14  H7  LEU d          26.253  33.102  21.493  0.00  0.00     0.038 H 
BRANCH  13  15
ATOM     15  CD1 LEU d          27.765  32.164  22.749  0.00  0.00    -0.073 C 
ATOM     16  H8  LEU d          27.905  33.044  23.393  0.00  0.00     0.028 H 
ATOM     17  H9  LEU d          28.726  31.644  22.625  0.00  0.00     0.028 H 
ATOM     18  H10 LEU d          27.036  31.483  23.212  0.00  0.00     0.028 H 
ENDBRANCH  13  15
BRANCH  13  19
ATOM     19  CD2 LEU d          28.153  33.655  20.717  0.00  0.00    -0.073 C 
ATOM     20  H11 LEU d          27.756  33.957  19.737  0.00  0.00     0.028 H 
ATOM     21  H12 LEU d          29.155  33.221  20.588  0.00  0.00     0.028 H 
ATOM     22  H13 LEU d          28.216  34.535  21.374  0.00  0.00     0.028 H 
ENDBRANCH  13  19
ENDBRANCH   1  13
TORSDOF 6
ENDMDL
