MODEL 1
REMARK VINA RESULT:      -6.4      0.000      0.000
REMARK  6 active torsions:
REMARK  status: ('A' for Active; 'I' for Inactive)
REMARK    1  A    between atoms: P_2  and  O5'_5 
REMARK    2  A    between atoms: O5'_5  and  C5'_6 
REMARK    3  A    between atoms: C5'_6  and  C4'_7 
REMARK    4  A    between atoms: C3'_9  and  O3'_10 
REMARK    5  A    between atoms: C2'_11  and  O2'_12 
REMARK    6  A    between atoms: C1'_13  and  N1_14 
ROOT
ATOM      1  C4' MOL d          40.639  41.122  36.517  0.00  0.00     0.089 C 
ATOM      2  O4' MOL d          39.858  39.962  36.848  0.00  0.00    -0.353 OA
ATOM      3  C3' MOL d          42.083  40.677  36.612  0.00  0.00     0.091 C 
ATOM      4  C2' MOL d          41.984  39.176  36.317  0.00  0.00     0.105 C 
ATOM      5  C1' MOL d          40.614  38.806  36.835  0.00  0.00     0.141 C 
ATOM      6  H3  MOL d          40.485  41.895  37.285  0.00  0.00     0.090 H 
ATOM      7  H4  MOL d          42.711  41.195  35.873  0.00  0.00     0.091 H 
ATOM      8  H6  MOL d          42.044  39.010  35.232  0.00  0.00     0.093 H 
ATOM      9  H8  MOL d          40.760  38.500  37.881  0.00  0.00     0.123 H 
ENDROOT
BRANCH   5  10
ATOM     10  N1  MOL d          39.895  37.686  36.211  0.00  0.00    -0.280 N 
ATOM     11  C2  MOL d          40.229  36.376  36.545  0.00  0.00     0.331 A 
ATOM     12  O2  MOL d          41.101  36.151  37.346  0.00  0.00    -0.246 OA
ATOM     13  N3  MOL d          39.501  35.390  35.897  0.00  0.00    -0.275 N 
ATOM     14  C4  MOL d          38.483  35.580  34.960  0.00  0.00     0.250 A 
ATOM     15  H9  MOL d          39.729  34.443  36.125  0.00  0.00     0.173 HD
ATOM     16  O4  MOL d          37.955  34.596  34.486  0.00  0.00    -0.268 OA
ATOM     17  C5  MOL d          38.203  36.957  34.674  0.00  0.00    -0.002 A 
ATOM     18  C6  MOL d          38.883  37.935  35.279  0.00  0.00    -0.008 A 
ATOM     19  H10 MOL d          37.426  37.209  33.954  0.00  0.00     0.094 H 
ATOM     20  H11 MOL d          38.639  38.968  35.037  0.00  0.00     0.112 H 
ENDBRANCH   5  10
BRANCH   4  21
ATOM     21  O2' MOL d          42.992  38.361  36.956  0.00  0.00    -0.388 OA
ATOM     22  H7  MOL d          42.638  37.991  37.756  0.00  0.00     0.210 HD
ENDBRANCH   4  21
BRANCH   1  23
ATOM     23  C5' MOL d          40.131  41.700  35.218  0.00  0.00     0.059 C 
ATOM     24  H1  MOL d          40.951  42.201  34.682  0.00  0.00     0.079 H 
ATOM     25  H2  MOL d          39.714  40.900  34.587  0.00  0.00     0.079 H 
BRANCH  23  26
ATOM     26  O5' MOL d          39.104  42.652  35.550  0.00  0.00    -0.280 OA
BRANCH  26  27
ATOM     27  P   MOL d          37.569  42.240  35.717  0.00  0.00     0.422 P 
ATOM     28  O3P MOL d          37.274  42.120  37.288  0.00  0.00    -0.617 OA
ATOM     29  O1P MOL d          37.239  40.967  34.949  0.00  0.00    -0.617 OA
ATOM     30  O2P MOL d          36.805  43.386  35.176  0.00  0.00    -0.617 OA
ENDBRANCH  26  27
ENDBRANCH  23  26
ENDBRANCH   1  23
BRANCH   3  31
ATOM     31  O3' MOL d          42.608  40.880  37.920  0.00  0.00    -0.390 OA
ATOM     32  H5  MOL d          42.261  40.217  38.505  0.00  0.00     0.210 HD
ENDBRANCH   3  31
TORSDOF 6
ENDMDL
MODEL 2
REMARK VINA RESULT:      -6.2      2.056      4.293
REMARK  6 active torsions:
REMARK  status: ('A' for Active; 'I' for Inactive)
REMARK    1  A    between atoms: P_2  and  O5'_5 
REMARK    2  A    between atoms: O5'_5  and  C5'_6 
REMARK    3  A    between atoms: C5'_6  and  C4'_7 
REMARK    4  A    between atoms: C3'_9  and  O3'_10 
REMARK    5  A    between atoms: C2'_11  and  O2'_12 
REMARK    6  A    between atoms: C1'_13  and  N1_14 
ROOT
ATOM      1  C4' MOL d          39.830  41.503  34.743  0.00  0.00     0.089 C 
ATOM      2  O4' MOL d          39.509  40.104  34.667  0.00  0.00    -0.353 OA
ATOM      3  C3' MOL d          38.700  42.133  35.529  0.00  0.00     0.091 C 
ATOM      4  C2' MOL d          38.213  40.968  36.397  0.00  0.00     0.105 C 
ATOM      5  C1' MOL d          38.507  39.752  35.549  0.00  0.00     0.141 C 
ATOM      6  H3  MOL d          39.805  41.937  33.732  0.00  0.00     0.090 H 
ATOM      7  H4  MOL d          39.059  42.973  36.141  0.00  0.00     0.091 H 
ATOM      8  H6  MOL d          38.795  40.936  37.330  0.00  0.00     0.093 H 
ATOM      9  H8  MOL d          37.597  39.573  34.956  0.00  0.00     0.123 H 
ENDROOT
BRANCH   5  10
ATOM     10  N1  MOL d          38.783  38.471  36.212  0.00  0.00    -0.280 N 
ATOM     11  C2  MOL d          38.451  37.275  35.578  0.00  0.00     0.331 A 
ATOM     12  O2  MOL d          37.942  37.283  34.486  0.00  0.00    -0.246 OA
ATOM     13  N3  MOL d          38.743  36.122  36.287  0.00  0.00    -0.275 N 
ATOM     14  C4  MOL d          39.328  36.042  37.554  0.00  0.00     0.250 A 
ATOM     15  H9  MOL d          38.510  35.254  35.847  0.00  0.00     0.173 HD
ATOM     16  O4  MOL d          39.505  34.940  38.030  0.00  0.00    -0.268 OA
ATOM     17  C5  MOL d          39.637  37.316  38.135  0.00  0.00    -0.002 A 
ATOM     18  C6  MOL d          39.371  38.450  37.480  0.00  0.00    -0.008 A 
ATOM     19  H10 MOL d          40.094  37.359  39.122  0.00  0.00     0.094 H 
ATOM     20  H11 MOL d          39.624  39.397  37.954  0.00  0.00     0.112 H 
ENDBRANCH   5  10
BRANCH   4  21
ATOM     21  O2' MOL d          36.810  41.006  36.740  0.00  0.00    -0.388 OA
ATOM     22  H7  MOL d          36.677  41.618  37.454  0.00  0.00     0.210 HD
ENDBRANCH   4  21
BRANCH   1  23
ATOM     23  C5' MOL d          41.247  41.654  35.240  0.00  0.00     0.059 C 
ATOM     24  H1  MOL d          41.859  42.167  34.484  0.00  0.00     0.079 H 
ATOM     25  H2  MOL d          41.258  42.233  36.176  0.00  0.00     0.079 H 
BRANCH  23  26
ATOM     26  O5' MOL d          41.758  40.329  35.474  0.00  0.00    -0.280 OA
BRANCH  26  27
ATOM     27  P   MOL d          42.786  39.998  36.652  0.00  0.00     0.422 P 
ATOM     28  O3P MOL d          42.154  40.566  38.013  0.00  0.00    -0.617 OA
ATOM     29  O1P MOL d          44.175  40.551  36.363  0.00  0.00    -0.617 OA
ATOM     30  O2P MOL d          42.820  38.521  36.726  0.00  0.00    -0.617 OA
ENDBRANCH  26  27
ENDBRANCH  23  26
ENDBRANCH   1  23
BRANCH   3  31
ATOM     31  O3' MOL d          37.649  42.573  34.675  0.00  0.00    -0.390 OA
ATOM     32  H5  MOL d          38.021  42.975  33.899  0.00  0.00     0.210 HD
ENDBRANCH   3  31
TORSDOF 6
ENDMDL
MODEL 3
REMARK VINA RESULT:      -5.8      1.877      4.650
REMARK  6 active torsions:
REMARK  status: ('A' for Active; 'I' for Inactive)
REMARK    1  A    between atoms: P_2  and  O5'_5 
REMARK    2  A    between atoms: O5'_5  and  C5'_6 
REMARK    3  A    between atoms: C5'_6  and  C4'_7 
REMARK    4  A    between atoms: C3'_9  and  O3'_10 
REMARK    5  A    between atoms: C2'_11  and  O2'_12 
REMARK    6  A    between atoms: C1'_13  and  N1_14 
ROOT
ATOM      1  C4' MOL d          39.171  38.255  34.697  0.00  0.00     0.089 C 
ATOM      2  O4' MOL d          40.398  38.910  35.058  0.00  0.00    -0.353 OA
ATOM      3  C3' MOL d          39.191  36.930  35.430  0.00  0.00     0.091 C 
ATOM      4  C2' MOL d          40.069  37.241  36.648  0.00  0.00     0.105 C 
ATOM      5  C1' MOL d          41.013  38.305  36.137  0.00  0.00     0.141 C 
ATOM      6  H3  MOL d          39.182  38.031  33.620  0.00  0.00     0.090 H 
ATOM      7  H4  MOL d          38.178  36.624  35.728  0.00  0.00     0.091 H 
ATOM      8  H6  MOL d          39.444  37.639  37.460  0.00  0.00     0.093 H 
ATOM      9  H8  MOL d          41.892  37.766  35.752  0.00  0.00     0.123 H 
ENDROOT
BRANCH   5  10
ATOM     10  N1  MOL d          41.557  39.288  37.083  0.00  0.00    -0.280 N 
ATOM     11  C2  MOL d          42.818  39.839  36.863  0.00  0.00     0.331 A 
ATOM     12  O2  MOL d          43.466  39.517  35.899  0.00  0.00    -0.246 OA
ATOM     13  N3  MOL d          43.246  40.749  37.815  0.00  0.00    -0.275 N 
ATOM     14  C4  MOL d          42.549  41.163  38.953  0.00  0.00     0.250 A 
ATOM     15  H9  MOL d          44.150  41.153  37.673  0.00  0.00     0.173 HD
ATOM     16  O4  MOL d          43.083  41.969  39.686  0.00  0.00    -0.268 OA
ATOM     17  C5  MOL d          41.262  40.549  39.103  0.00  0.00    -0.002 A 
ATOM     18  C6  MOL d          40.814  39.667  38.205  0.00  0.00    -0.008 A 
ATOM     19  H10 MOL d          40.642  40.805  39.961  0.00  0.00     0.094 H 
ATOM     20  H11 MOL d          39.831  39.224  38.354  0.00  0.00     0.112 H 
ENDBRANCH   5  10
BRANCH   4  21
ATOM     21  O2' MOL d          40.819  36.119  37.162  0.00  0.00    -0.388 OA
ATOM     22  H7  MOL d          40.410  35.309  36.877  0.00  0.00     0.210 HD
ENDBRANCH   4  21
BRANCH   1  23
ATOM     23  C5' MOL d          38.023  39.206  34.927  0.00  0.00     0.059 C 
ATOM     24  H1  MOL d          37.233  39.031  34.180  0.00  0.00     0.079 H 
ATOM     25  H2  MOL d          37.611  39.064  35.937  0.00  0.00     0.079 H 
BRANCH  23  26
ATOM     26  O5' MOL d          38.543  40.542  34.790  0.00  0.00    -0.280 OA
BRANCH  26  27
ATOM     27  P   MOL d          37.992  41.772  35.648  0.00  0.00     0.422 P 
ATOM     28  O3P MOL d          38.878  43.054  35.270  0.00  0.00    -0.617 OA
ATOM     29  O1P MOL d          37.993  41.466  37.140  0.00  0.00    -0.617 OA
ATOM     30  O2P MOL d          36.612  41.988  35.162  0.00  0.00    -0.617 OA
ENDBRANCH  26  27
ENDBRANCH  23  26
ENDBRANCH   1  23
BRANCH   3  31
ATOM     31  O3' MOL d          39.794  35.907  34.646  0.00  0.00    -0.390 OA
ATOM     32  H5  MOL d          39.342  35.085  34.798  0.00  0.00     0.210 HD
ENDBRANCH   3  31
TORSDOF 6
ENDMDL
MODEL 4
REMARK VINA RESULT:      -4.6      2.851      5.448
REMARK  6 active torsions:
REMARK  status: ('A' for Active; 'I' for Inactive)
REMARK    1  A    between atoms: P_2  and  O5'_5 
REMARK    2  A    between atoms: O5'_5  and  C5'_6 
REMARK    3  A    between atoms: C5'_6  and  C4'_7 
REMARK    4  A    between atoms: C3'_9  and  O3'_10 
REMARK    5  A    between atoms: C2'_11  and  O2'_12 
REMARK    6  A    between atoms: C1'_13  and  N1_14 
ROOT
ATOM      1  C4' MOL d          41.691  38.453  36.687  0.00  0.00     0.089 C 
ATOM      2  O4' MOL d          41.120  39.224  35.617  0.00  0.00    -0.353 OA
ATOM      3  C3' MOL d          42.544  39.426  37.473  0.00  0.00     0.091 C 
ATOM      4  C2' MOL d          41.852  40.766  37.199  0.00  0.00     0.105 C 
ATOM      5  C1' MOL d          41.264  40.582  35.819  0.00  0.00     0.141 C 
ATOM      6  H3  MOL d          42.368  37.694  36.266  0.00  0.00     0.090 H 
ATOM      7  H4  MOL d          42.545  39.181  38.545  0.00  0.00     0.091 H 
ATOM      8  H6  MOL d          41.054  40.925  37.940  0.00  0.00     0.093 H 
ATOM      9  H8  MOL d          42.032  40.938  35.116  0.00  0.00     0.123 H 
ENDROOT
BRANCH   5  10
ATOM     10  N1  MOL d          40.049  41.325  35.458  0.00  0.00    -0.280 N 
ATOM     11  C2  MOL d          40.154  42.583  34.869  0.00  0.00     0.331 A 
ATOM     12  O2  MOL d          41.235  43.068  34.650  0.00  0.00    -0.246 OA
ATOM     13  N3  MOL d          38.952  43.206  34.574  0.00  0.00    -0.275 N 
ATOM     14  C4  MOL d          37.669  42.704  34.803  0.00  0.00     0.250 A 
ATOM     15  H9  MOL d          39.009  44.111  34.152  0.00  0.00     0.173 HD
ATOM     16  O4  MOL d          36.722  43.393  34.485  0.00  0.00    -0.268 OA
ATOM     17  C5  MOL d          37.651  41.405  35.411  0.00  0.00    -0.002 A 
ATOM     18  C6  MOL d          38.789  40.772  35.709  0.00  0.00    -0.008 A 
ATOM     19  H10 MOL d          36.697  40.928  35.631  0.00  0.00     0.094 H 
ATOM     20  H11 MOL d          38.734  39.787  36.168  0.00  0.00     0.112 H 
ENDBRANCH   5  10
BRANCH   4  21
ATOM     21  O2' MOL d          42.722  41.919  37.218  0.00  0.00    -0.388 OA
ATOM     22  H7  MOL d          42.872  42.186  38.118  0.00  0.00     0.210 HD
ENDBRANCH   4  21
BRANCH   1  23
ATOM     23  C5' MOL d          40.589  37.703  37.393  0.00  0.00     0.059 C 
ATOM     24  H1  MOL d          40.790  37.668  38.474  0.00  0.00     0.079 H 
ATOM     25  H2  MOL d          39.622  38.198  37.216  0.00  0.00     0.079 H 
BRANCH  23  26
ATOM     26  O5' MOL d          40.567  36.370  36.851  0.00  0.00    -0.280 OA
BRANCH  26  27
ATOM     27  P   MOL d          39.413  35.858  35.872  0.00  0.00     0.422 P 
ATOM     28  O3P MOL d          38.170  36.859  36.031  0.00  0.00    -0.617 OA
ATOM     29  O1P MOL d          39.045  34.405  36.142  0.00  0.00    -0.617 OA
ATOM     30  O2P MOL d          39.972  36.008  34.511  0.00  0.00    -0.617 OA
ENDBRANCH  26  27
ENDBRANCH  23  26
ENDBRANCH   1  23
BRANCH   3  31
ATOM     31  O3' MOL d          43.881  39.464  36.985  0.00  0.00    -0.390 OA
ATOM     32  H5  MOL d          44.277  38.606  37.082  0.00  0.00     0.210 HD
ENDBRANCH   3  31
TORSDOF 6
ENDMDL
MODEL 5
REMARK VINA RESULT:      -4.6      2.697      5.955
REMARK  6 active torsions:
REMARK  status: ('A' for Active; 'I' for Inactive)
REMARK    1  A    between atoms: P_2  and  O5'_5 
REMARK    2  A    between atoms: O5'_5  and  C5'_6 
REMARK    3  A    between atoms: C5'_6  and  C4'_7 
REMARK    4  A    between atoms: C3'_9  and  O3'_10 
REMARK    5  A    between atoms: C2'_11  and  O2'_12 
REMARK    6  A    between atoms: C1'_13  and  N1_14 
ROOT
ATOM      1  C4' MOL d          39.416  38.494  35.466  0.00  0.00     0.089 C 
ATOM      2  O4' MOL d          40.025  38.885  36.707  0.00  0.00    -0.353 OA
ATOM      3  C3' MOL d          38.868  39.772  34.866  0.00  0.00     0.091 C 
ATOM      4  C2' MOL d          39.793  40.838  35.462  0.00  0.00     0.105 C 
ATOM      5  C1' MOL d          40.188  40.254  36.798  0.00  0.00     0.141 C 
ATOM      6  H3  MOL d          38.557  37.838  35.673  0.00  0.00     0.090 H 
ATOM      7  H4  MOL d          38.924  39.753  33.768  0.00  0.00     0.091 H 
ATOM      8  H6  MOL d          40.677  40.959  34.818  0.00  0.00     0.093 H 
ATOM      9  H8  MOL d          39.444  40.624  37.519  0.00  0.00     0.123 H 
ENDROOT
BRANCH   5  10
ATOM     10  N1  MOL d          41.488  40.615  37.378  0.00  0.00    -0.280 N 
ATOM     11  C2  MOL d          41.682  40.529  38.755  0.00  0.00     0.331 A 
ATOM     12  O2  MOL d          40.792  40.156  39.476  0.00  0.00    -0.246 OA
ATOM     13  N3  MOL d          42.939  40.900  39.206  0.00  0.00    -0.275 N 
ATOM     14  C4  MOL d          44.012  41.343  38.427  0.00  0.00     0.250 A 
ATOM     15  H9  MOL d          43.094  40.845  40.192  0.00  0.00     0.173 HD
ATOM     16  O4  MOL d          45.044  41.633  38.994  0.00  0.00    -0.268 OA
ATOM     17  C5  MOL d          43.727  41.402  37.023  0.00  0.00    -0.002 A 
ATOM     18  C6  MOL d          42.528  41.051  36.551  0.00  0.00    -0.008 A 
ATOM     19  H10 MOL d          44.500  41.737  36.333  0.00  0.00     0.094 H 
ATOM     20  H11 MOL d          42.353  41.108  35.478  0.00  0.00     0.112 H 
ENDBRANCH   5  10
BRANCH   4  21
ATOM     21  O2' MOL d          39.189  42.137  35.648  0.00  0.00    -0.388 OA
ATOM     22  H7  MOL d          38.462  42.236  35.043  0.00  0.00     0.210 HD
ENDBRANCH   4  21
BRANCH   1  23
ATOM     23  C5' MOL d          40.403  37.673  34.673  0.00  0.00     0.059 C 
ATOM     24  H1  MOL d          40.591  38.147  33.698  0.00  0.00     0.079 H 
ATOM     25  H2  MOL d          41.350  37.585  35.227  0.00  0.00     0.079 H 
BRANCH  23  26
ATOM     26  O5' MOL d          39.819  36.371  34.485  0.00  0.00    -0.280 OA
BRANCH  26  27
ATOM     27  P   MOL d          38.864  35.691  35.571  0.00  0.00     0.422 P 
ATOM     28  O3P MOL d          37.558  36.612  35.704  0.00  0.00    -0.617 OA
ATOM     29  O1P MOL d          39.580  35.476  36.898  0.00  0.00    -0.617 OA
ATOM     30  O2P MOL d          38.472  34.394  34.976  0.00  0.00    -0.617 OA
ENDBRANCH  26  27
ENDBRANCH  23  26
ENDBRANCH   1  23
BRANCH   3  31
ATOM     31  O3' MOL d          37.526  40.010  35.277  0.00  0.00    -0.390 OA
ATOM     32  H5  MOL d          37.033  39.199  35.231  0.00  0.00     0.210 HD
ENDBRANCH   3  31
TORSDOF 6
ENDMDL
MODEL 6
REMARK VINA RESULT:      -4.3      2.639      5.346
REMARK  6 active torsions:
REMARK  status: ('A' for Active; 'I' for Inactive)
REMARK    1  A    between atoms: P_2  and  O5'_5 
REMARK    2  A    between atoms: O5'_5  and  C5'_6 
REMARK    3  A    between atoms: C5'_6  and  C4'_7 
REMARK    4  A    between atoms: C3'_9  and  O3'_10 
REMARK    5  A    between atoms: C2'_11  and  O2'_12 
REMARK    6  A    between atoms: C1'_13  and  N1_14 
ROOT
ATOM      1  C4' MOL d          41.137  38.250  37.469  0.00  0.00     0.089 C 
ATOM      2  O4' MOL d          40.170  39.296  37.657  0.00  0.00    -0.353 OA
ATOM      3  C3' MOL d          40.349  37.057  36.970  0.00  0.00     0.091 C 
ATOM      4  C2' MOL d          39.152  37.720  36.278  0.00  0.00     0.105 C 
ATOM      5  C1' MOL d          38.961  39.000  37.058  0.00  0.00     0.141 C 
ATOM      6  H3  MOL d          41.566  37.973  38.444  0.00  0.00     0.090 H 
ATOM      7  H4  MOL d          40.941  36.453  36.268  0.00  0.00     0.091 H 
ATOM      8  H6  MOL d          39.409  37.940  35.232  0.00  0.00     0.093 H 
ATOM      9  H8  MOL d          38.249  38.758  37.861  0.00  0.00     0.123 H 
ENDROOT
BRANCH   5  10
ATOM     10  N1  MOL d          38.382  40.167  36.379  0.00  0.00    -0.280 N 
ATOM     11  C2  MOL d          38.798  40.498  35.091  0.00  0.00     0.331 A 
ATOM     12  O2  MOL d          39.627  39.830  34.526  0.00  0.00    -0.246 OA
ATOM     13  N3  MOL d          38.202  41.620  34.540  0.00  0.00    -0.275 N 
ATOM     14  C4  MOL d          37.240  42.437  35.139  0.00  0.00     0.250 A 
ATOM     15  H9  MOL d          38.490  41.872  33.616  0.00  0.00     0.173 HD
ATOM     16  O4  MOL d          36.829  43.389  34.508  0.00  0.00    -0.268 OA
ATOM     17  C5  MOL d          36.869  42.027  36.462  0.00  0.00    -0.002 A 
ATOM     18  C6  MOL d          37.422  40.950  37.026  0.00  0.00    -0.008 A 
ATOM     19  H10 MOL d          36.126  42.602  37.013  0.00  0.00     0.094 H 
ATOM     20  H11 MOL d          37.111  40.670  38.031  0.00  0.00     0.112 H 
ENDBRANCH   5  10
BRANCH   4  21
ATOM     21  O2' MOL d          37.934  36.944  36.291  0.00  0.00    -0.388 OA
ATOM     22  H7  MOL d          38.117  36.074  36.627  0.00  0.00     0.210 HD
ENDBRANCH   4  21
BRANCH   1  23
ATOM     23  C5' MOL d          42.276  38.781  36.634  0.00  0.00     0.059 C 
ATOM     24  H1  MOL d          42.918  37.952  36.302  0.00  0.00     0.079 H 
ATOM     25  H2  MOL d          41.883  39.316  35.756  0.00  0.00     0.079 H 
BRANCH  23  26
ATOM     26  O5' MOL d          43.028  39.684  37.466  0.00  0.00    -0.280 OA
BRANCH  26  27
ATOM     27  P   MOL d          43.674  41.034  36.907  0.00  0.00     0.422 P 
ATOM     28  O3P MOL d          42.554  41.775  36.030  0.00  0.00    -0.617 OA
ATOM     29  O1P MOL d          44.958  40.767  36.132  0.00  0.00    -0.617 OA
ATOM     30  O2P MOL d          43.954  41.850  38.108  0.00  0.00    -0.617 OA
ENDBRANCH  26  27
ENDBRANCH  23  26
ENDBRANCH   1  23
BRANCH   3  31
ATOM     31  O3' MOL d          39.896  36.242  38.046  0.00  0.00    -0.390 OA
ATOM     32  H5  MOL d          40.602  36.124  38.671  0.00  0.00     0.210 HD
ENDBRANCH   3  31
TORSDOF 6
ENDMDL
MODEL 7
REMARK VINA RESULT:      -3.4      2.032      4.068
REMARK  6 active torsions:
REMARK  status: ('A' for Active; 'I' for Inactive)
REMARK    1  A    between atoms: P_2  and  O5'_5 
REMARK    2  A    between atoms: O5'_5  and  C5'_6 
REMARK    3  A    between atoms: C5'_6  and  C4'_7 
REMARK    4  A    between atoms: C3'_9  and  O3'_10 
REMARK    5  A    between atoms: C2'_11  and  O2'_12 
REMARK    6  A    between atoms: C1'_13  and  N1_14 
ROOT
ATOM      1  C4' MOL d          40.877  41.107  36.527  0.00  0.00     0.089 C 
ATOM      2  O4' MOL d          40.849  39.917  35.723  0.00  0.00    -0.353 OA
ATOM      3  C3' MOL d          39.630  41.878  36.150  0.00  0.00     0.091 C 
ATOM      4  C2' MOL d          38.681  40.764  35.692  0.00  0.00     0.105 C 
ATOM      5  C1' MOL d          39.615  39.714  35.137  0.00  0.00     0.141 C 
ATOM      6  H3  MOL d          41.741  41.723  36.235  0.00  0.00     0.090 H 
ATOM      7  H4  MOL d          39.224  42.428  37.011  0.00  0.00     0.091 H 
ATOM      8  H6  MOL d          38.131  40.371  36.559  0.00  0.00     0.093 H 
ATOM      9  H8  MOL d          39.721  39.942  34.066  0.00  0.00     0.123 H 
ENDROOT
BRANCH   5  10
ATOM     10  N1  MOL d          39.209  38.303  35.184  0.00  0.00    -0.280 N 
ATOM     11  C2  MOL d          39.962  37.388  35.917  0.00  0.00     0.331 A 
ATOM     12  O2  MOL d          40.945  37.746  36.517  0.00  0.00    -0.246 OA
ATOM     13  N3  MOL d          39.504  36.081  35.893  0.00  0.00    -0.275 N 
ATOM     14  C4  MOL d          38.379  35.600  35.218  0.00  0.00     0.250 A 
ATOM     15  H9  MOL d          40.034  35.411  36.413  0.00  0.00     0.173 HD
ATOM     16  O4  MOL d          38.128  34.416  35.303  0.00  0.00    -0.268 OA
ATOM     17  C5  MOL d          37.661  36.605  34.490  0.00  0.00    -0.002 A 
ATOM     18  C6  MOL d          38.073  37.877  34.491  0.00  0.00    -0.008 A 
ATOM     19  H10 MOL d          36.770  36.329  33.930  0.00  0.00     0.094 H 
ATOM     20  H11 MOL d          37.499  38.611  33.927  0.00  0.00     0.112 H 
ENDBRANCH   5  10
BRANCH   4  21
ATOM     21  O2' MOL d          37.721  41.155  34.686  0.00  0.00    -0.388 OA
ATOM     22  H7  MOL d          37.262  40.385  34.372  0.00  0.00     0.210 HD
ENDBRANCH   4  21
BRANCH   1  23
ATOM     23  C5' MOL d          41.094  40.719  37.969  0.00  0.00     0.059 C 
ATOM     24  H1  MOL d          40.937  41.591  38.622  0.00  0.00     0.079 H 
ATOM     25  H2  MOL d          40.397  39.917  38.253  0.00  0.00     0.079 H 
BRANCH  23  26
ATOM     26  O5' MOL d          42.452  40.255  38.084  0.00  0.00    -0.280 OA
BRANCH  26  27
ATOM     27  P   MOL d          43.711  41.212  37.856  0.00  0.00     0.422 P 
ATOM     28  O3P MOL d          45.010  40.278  37.748  0.00  0.00    -0.617 OA
ATOM     29  O1P MOL d          43.825  42.267  38.949  0.00  0.00    -0.617 OA
ATOM     30  O2P MOL d          43.473  41.850  36.542  0.00  0.00    -0.617 OA
ENDBRANCH  26  27
ENDBRANCH  23  26
ENDBRANCH   1  23
BRANCH   3  31
ATOM     31  O3' MOL d          39.876  42.778  35.074  0.00  0.00    -0.390 OA
ATOM     32  H5  MOL d          39.891  42.294  34.256  0.00  0.00     0.210 HD
ENDBRANCH   3  31
TORSDOF 6
ENDMDL
