MODEL 1
REMARK VINA RESULT:      -6.5      0.000      0.000
REMARK  10 active torsions:
REMARK  status: ('A' for Active; 'I' for Inactive)
REMARK    1  A    between atoms: C10_2  and  C11_3 
REMARK    2  A    between atoms: C10_2  and  C9_13 
REMARK    3  A    between atoms: C14_6  and  C17_7 
REMARK    4  A    between atoms: C17_7  and  C18_8 
REMARK    5  A    between atoms: C17_7  and  C19_9 
REMARK    6  A    between atoms: C17_7  and  C20_10 
REMARK    7  A    between atoms: C9_13  and  C5_14 
REMARK    8  A    between atoms: C2_17  and  O2_18 
REMARK    9  A    between atoms: C1_19  and  O1_20 
REMARK   10  A    between atoms: C8_22  and  O8_23 
ROOT
ATOM      1  C9  HN4 d          29.489  67.050  10.869  0.00  0.00     0.022 C 
ATOM      2  H14 HN4 d          30.427  67.434  11.297  0.00  0.00     0.048 H 
ATOM      3  H15 HN4 d          29.047  67.813  10.210  0.00  0.00     0.048 H 
ENDROOT
BRANCH   1   4
ATOM      4  C10 HN4 d          28.513  66.772  12.010  0.00  0.00     0.161 C 
ATOM      5  O10 HN4 d          28.848  66.292  13.091  0.00  0.00    -0.292 OA
BRANCH   4   6
ATOM      6  C11 HN4 d          27.055  67.027  11.764  0.00  0.00     0.010 A 
ATOM      7  C12 HN4 d          26.634  68.132  11.026  0.00  0.00    -0.069 A 
ATOM      8  C13 HN4 d          25.274  68.347  10.785  0.00  0.00    -0.075 A 
ATOM      9  H1  HN4 d          27.367  68.829  10.635  0.00  0.00     0.085 H 
ATOM     10  C14 HN4 d          24.315  67.460  11.293  0.00  0.00    -0.051 A 
ATOM     11  H2  HN4 d          24.959  69.206  10.203  0.00  0.00     0.084 H 
ATOM     12  C15 HN4 d          24.747  66.356  12.029  0.00  0.00    -0.075 A 
ATOM     13  C16 HN4 d          26.104  66.136  12.275  0.00  0.00    -0.069 A 
ATOM     14  H12 HN4 d          24.015  65.657  12.417  0.00  0.00     0.084 H 
ATOM     15  H13 HN4 d          26.419  65.279  12.858  0.00  0.00     0.085 H 
BRANCH  10  16
ATOM     16  C17 HN4 d          22.842  67.721  11.019  0.00  0.00    -0.024 C 
BRANCH  16  17
ATOM     17  C18 HN4 d          21.999  66.911  12.007  0.00  0.00    -0.066 C 
ATOM     18  H3  HN4 d          22.364  65.874  12.036  0.00  0.00     0.028 H 
ATOM     19  H4  HN4 d          20.947  66.922  11.686  0.00  0.00     0.028 H 
ATOM     20  H5  HN4 d          22.081  67.356  13.010  0.00  0.00     0.028 H 
ENDBRANCH  16  17
BRANCH  16  21
ATOM     21  C19 HN4 d          22.470  69.188  11.256  0.00  0.00    -0.066 C 
ATOM     22  H6  HN4 d          22.832  69.799  10.416  0.00  0.00     0.028 H 
ATOM     23  H7  HN4 d          22.933  69.538  12.190  0.00  0.00     0.028 H 
ATOM     24  H8  HN4 d          21.377  69.282  11.331  0.00  0.00     0.028 H 
ENDBRANCH  16  21
BRANCH  16  25
ATOM     25  C20 HN4 d          22.536  67.310   9.578  0.00  0.00    -0.066 C 
ATOM     26  H9  HN4 d          21.458  67.111   9.475  0.00  0.00     0.028 H 
ATOM     27  H10 HN4 d          23.102  66.401   9.327  0.00  0.00     0.028 H 
ATOM     28  H11 HN4 d          22.825  68.123   8.896  0.00  0.00     0.028 H 
ENDBRANCH  16  25
ENDBRANCH  10  16
ENDBRANCH   4   6
ENDBRANCH   1   4
BRANCH   1  29
ATOM     29  C5  HN4 d          29.807  65.811  10.032  0.00  0.00     0.111 C 
ATOM     30  N4  HN4 d          30.783  66.093   8.943  0.00  0.00    -0.055 N 
ATOM     31  C3  HN4 d          32.068  66.734   9.342  0.00  0.00     0.110 C 
ATOM     32  C8A HN4 d          30.268  66.971   7.848  0.00  0.00     0.155 C 
ATOM     33  H17 HN4 d          31.004  65.195   8.542  0.00  0.00     0.281 HD
ATOM     34  C2  HN4 d          32.658  67.163   7.987  0.00  0.00     0.085 C 
ATOM     35  H18 HN4 d          32.727  66.018   9.854  0.00  0.00     0.080 H 
ATOM     36  H19 HN4 d          31.893  67.603   9.993  0.00  0.00     0.080 H 
ATOM     37  C1  HN4 d          31.504  67.183   6.974  0.00  0.00     0.092 C 
ATOM     38  H20 HN4 d          33.087  68.172   8.075  0.00  0.00     0.089 H 
ATOM     39  H22 HN4 d          31.449  68.154   6.460  0.00  0.00     0.090 H 
ATOM     40  C8  HN4 d          29.033  66.374   7.192  0.00  0.00     0.066 C 
ATOM     41  H24 HN4 d          29.967  67.945   8.263  0.00  0.00     0.093 H 
ATOM     42  C7  HN4 d          27.971  66.060   8.257  0.00  0.00    -0.037 C 
ATOM     43  H25 HN4 d          29.314  65.446   6.671  0.00  0.00     0.086 H 
ATOM     44  C6  HN4 d          28.560  65.185   9.373  0.00  0.00    -0.035 C 
ATOM     45  H27 HN4 d          27.133  65.526   7.785  0.00  0.00     0.036 H 
ATOM     46  H28 HN4 d          27.607  67.002   8.692  0.00  0.00     0.036 H 
ATOM     47  H29 HN4 d          27.791  65.036  10.146  0.00  0.00     0.036 H 
ATOM     48  H30 HN4 d          28.841  64.212   8.945  0.00  0.00     0.036 H 
ATOM     49  H16 HN4 d          30.250  65.066  10.710  0.00  0.00     0.085 H 
BRANCH  34  50
ATOM     50  O2  HN4 d          33.694  66.251   7.567  0.00  0.00    -0.391 OA
ATOM     51  H21 HN4 d          33.799  66.305   6.626  0.00  0.00     0.210 HD
ENDBRANCH  34  50
BRANCH  37  52
ATOM     52  O1  HN4 d          31.686  66.134   5.985  0.00  0.00    -0.391 OA
ATOM     53  H23 HN4 d          32.372  66.387   5.379  0.00  0.00     0.210 HD
ENDBRANCH  37  52
BRANCH  40  54
ATOM     54  O8  HN4 d          28.486  67.296   6.253  0.00  0.00    -0.393 OA
ATOM     55  H26 HN4 d          27.563  67.423   6.437  0.00  0.00     0.210 HD
ENDBRANCH  40  54
ENDBRANCH   1  29
TORSDOF 10
ENDMDL
MODEL 2
REMARK VINA RESULT:      -5.3      3.080      7.188
REMARK  10 active torsions:
REMARK  status: ('A' for Active; 'I' for Inactive)
REMARK    1  A    between atoms: C10_2  and  C11_3 
REMARK    2  A    between atoms: C10_2  and  C9_13 
REMARK    3  A    between atoms: C14_6  and  C17_7 
REMARK    4  A    between atoms: C17_7  and  C18_8 
REMARK    5  A    between atoms: C17_7  and  C19_9 
REMARK    6  A    between atoms: C17_7  and  C20_10 
REMARK    7  A    between atoms: C9_13  and  C5_14 
REMARK    8  A    between atoms: C2_17  and  O2_18 
REMARK    9  A    between atoms: C1_19  and  O1_20 
REMARK   10  A    between atoms: C8_22  and  O8_23 
ROOT
ATOM      1  C9  HN4 d          26.858  66.000  12.909  0.00  0.00     0.022 C 
ATOM      2  H14 HN4 d          26.407  66.968  13.173  0.00  0.00     0.048 H 
ATOM      3  H15 HN4 d          26.814  65.326  13.778  0.00  0.00     0.048 H 
ENDROOT
BRANCH   1   4
ATOM      4  C10 HN4 d          28.324  66.230  12.547  0.00  0.00     0.161 C 
ATOM      5  O10 HN4 d          29.208  66.424  13.379  0.00  0.00    -0.292 OA
BRANCH   4   6
ATOM      6  C11 HN4 d          28.685  66.300  11.093  0.00  0.00     0.010 A 
ATOM      7  C12 HN4 d          29.215  65.193  10.431  0.00  0.00    -0.069 A 
ATOM      8  C13 HN4 d          29.527  65.264   9.070  0.00  0.00    -0.075 A 
ATOM      9  H1  HN4 d          29.387  64.271  10.976  0.00  0.00     0.085 H 
ATOM     10  C14 HN4 d          29.321  66.452   8.356  0.00  0.00    -0.051 A 
ATOM     11  H2  HN4 d          29.931  64.394   8.565  0.00  0.00     0.084 H 
ATOM     12  C15 HN4 d          28.788  67.553   9.027  0.00  0.00    -0.075 A 
ATOM     13  C16 HN4 d          28.476  67.490  10.387  0.00  0.00    -0.069 A 
ATOM     14  H12 HN4 d          28.613  68.474   8.483  0.00  0.00     0.084 H 
ATOM     15  H13 HN4 d          28.073  68.360  10.894  0.00  0.00     0.085 H 
BRANCH  10  16
ATOM     16  C17 HN4 d          29.673  66.502   6.878  0.00  0.00    -0.024 C 
BRANCH  16  17
ATOM     17  C18 HN4 d          29.670  65.078   6.315  0.00  0.00    -0.066 C 
ATOM     18  H3  HN4 d          30.707  64.736   6.180  0.00  0.00     0.028 H 
ATOM     19  H4  HN4 d          29.151  65.069   5.345  0.00  0.00     0.028 H 
ATOM     20  H5  HN4 d          29.151  64.408   7.016  0.00  0.00     0.028 H 
ENDBRANCH  16  17
BRANCH  16  21
ATOM     21  C19 HN4 d          28.625  67.273   6.068  0.00  0.00    -0.066 C 
ATOM     22  H6  HN4 d          29.081  68.183   5.652  0.00  0.00     0.028 H 
ATOM     23  H7  HN4 d          27.787  67.551   6.724  0.00  0.00     0.028 H 
ATOM     24  H8  HN4 d          28.255  66.640   5.249  0.00  0.00     0.028 H 
ENDBRANCH  16  21
BRANCH  16  25
ATOM     25  C20 HN4 d          31.052  67.143   6.728  0.00  0.00    -0.066 C 
ATOM     26  H9  HN4 d          31.274  67.748   7.620  0.00  0.00     0.028 H 
ATOM     27  H10 HN4 d          31.062  67.789   5.837  0.00  0.00     0.028 H 
ATOM     28  H11 HN4 d          31.813  66.357   6.620  0.00  0.00     0.028 H 
ENDBRANCH  16  25
ENDBRANCH  10  16
ENDBRANCH   4   6
ENDBRANCH   1   4
BRANCH   1  29
ATOM     29  C5  HN4 d          26.047  65.379  11.771  0.00  0.00     0.111 C 
ATOM     30  N4  HN4 d          24.825  66.166  11.446  0.00  0.00    -0.055 N 
ATOM     31  C3  HN4 d          25.017  67.614  11.151  0.00  0.00     0.110 C 
ATOM     32  C8A HN4 d          23.767  66.152  12.503  0.00  0.00     0.155 C 
ATOM     33  H17 HN4 d          24.442  65.737  10.618  0.00  0.00     0.281 HD
ATOM     34  C2  HN4 d          23.577  68.153  11.189  0.00  0.00     0.085 C 
ATOM     35  H18 HN4 d          25.471  67.761  10.160  0.00  0.00     0.080 H 
ATOM     36  H19 HN4 d          25.644  68.096  11.916  0.00  0.00     0.080 H 
ATOM     37  C1  HN4 d          22.728  67.128  11.953  0.00  0.00     0.092 C 
ATOM     38  H20 HN4 d          23.558  69.116  11.721  0.00  0.00     0.089 H 
ATOM     39  H22 HN4 d          22.179  67.608  12.777  0.00  0.00     0.090 H 
ATOM     40  C8  HN4 d          23.312  64.734  12.813  0.00  0.00     0.066 C 
ATOM     41  H24 HN4 d          24.171  66.567  13.438  0.00  0.00     0.093 H 
ATOM     42  C7  HN4 d          24.523  63.858  13.167  0.00  0.00    -0.037 C 
ATOM     43  H25 HN4 d          22.804  64.317  11.930  0.00  0.00     0.086 H 
ATOM     44  C6  HN4 d          25.591  63.935  12.066  0.00  0.00    -0.035 C 
ATOM     45  H27 HN4 d          24.194  62.814  13.277  0.00  0.00     0.036 H 
ATOM     46  H28 HN4 d          24.957  64.208  14.115  0.00  0.00     0.036 H 
ATOM     47  H29 HN4 d          26.466  63.348  12.385  0.00  0.00     0.036 H 
ATOM     48  H30 HN4 d          25.177  63.503  11.144  0.00  0.00     0.036 H 
ATOM     49  H16 HN4 d          26.696  65.362  10.882  0.00  0.00     0.085 H 
BRANCH  34  50
ATOM     50  O2  HN4 d          23.068  68.349   9.854  0.00  0.00    -0.391 OA
ATOM     51  H21 HN4 d          22.298  68.904   9.888  0.00  0.00     0.210 HD
ENDBRANCH  34  50
BRANCH  37  52
ATOM     52  O1  HN4 d          21.775  66.496  11.056  0.00  0.00    -0.391 OA
ATOM     53  H23 HN4 d          20.959  66.346  11.518  0.00  0.00     0.210 HD
ENDBRANCH  37  52
BRANCH  40  54
ATOM     54  O8  HN4 d          22.411  64.744  13.917  0.00  0.00    -0.393 OA
ATOM     55  H26 HN4 d          22.310  63.860  14.249  0.00  0.00     0.210 HD
ENDBRANCH  40  54
ENDBRANCH   1  29
TORSDOF 10
ENDMDL
MODEL 3
REMARK VINA RESULT:      -5.1      3.271      7.340
REMARK  10 active torsions:
REMARK  status: ('A' for Active; 'I' for Inactive)
REMARK    1  A    between atoms: C10_2  and  C11_3 
REMARK    2  A    between atoms: C10_2  and  C9_13 
REMARK    3  A    between atoms: C14_6  and  C17_7 
REMARK    4  A    between atoms: C17_7  and  C18_8 
REMARK    5  A    between atoms: C17_7  and  C19_9 
REMARK    6  A    between atoms: C17_7  and  C20_10 
REMARK    7  A    between atoms: C9_13  and  C5_14 
REMARK    8  A    between atoms: C2_17  and  O2_18 
REMARK    9  A    between atoms: C1_19  and  O1_20 
REMARK   10  A    between atoms: C8_22  and  O8_23 
ROOT
ATOM      1  C9  HN4 d          26.026  66.118  12.566  0.00  0.00     0.022 C 
ATOM      2  H14 HN4 d          25.976  66.979  11.884  0.00  0.00     0.048 H 
ATOM      3  H15 HN4 d          26.064  66.475  13.607  0.00  0.00     0.048 H 
ENDROOT
BRANCH   1   4
ATOM      4  C10 HN4 d          27.307  65.340  12.273  0.00  0.00     0.161 C 
ATOM      5  O10 HN4 d          27.788  64.507  13.038  0.00  0.00    -0.292 OA
BRANCH   4   6
ATOM      6  C11 HN4 d          28.056  65.671  11.016  0.00  0.00     0.010 A 
ATOM      7  C12 HN4 d          28.863  64.721  10.390  0.00  0.00    -0.069 A 
ATOM      8  C13 HN4 d          29.539  65.035   9.207  0.00  0.00    -0.075 A 
ATOM      9  H1  HN4 d          28.968  63.734  10.824  0.00  0.00     0.085 H 
ATOM     10  C14 HN4 d          29.421  66.312   8.640  0.00  0.00    -0.051 A 
ATOM     11  H2  HN4 d          30.157  64.287   8.725  0.00  0.00     0.084 H 
ATOM     12  C15 HN4 d          28.608  67.254   9.273  0.00  0.00    -0.075 A 
ATOM     13  C16 HN4 d          27.933  66.948  10.456  0.00  0.00    -0.069 A 
ATOM     14  H12 HN4 d          28.500  68.241   8.838  0.00  0.00     0.084 H 
ATOM     15  H13 HN4 d          27.315  67.696  10.939  0.00  0.00     0.085 H 
BRANCH  10  16
ATOM     16  C17 HN4 d          30.170  66.626   7.355  0.00  0.00    -0.024 C 
BRANCH  16  17
ATOM     17  C18 HN4 d          30.069  65.426   6.411  0.00  0.00    -0.066 C 
ATOM     18  H3  HN4 d          29.015  65.251   6.152  0.00  0.00     0.028 H 
ATOM     19  H4  HN4 d          30.479  64.534   6.908  0.00  0.00     0.028 H 
ATOM     20  H5  HN4 d          30.642  65.632   5.494  0.00  0.00     0.028 H 
ENDBRANCH  16  17
BRANCH  16  21
ATOM     21  C19 HN4 d          29.540  67.804   6.603  0.00  0.00    -0.066 C 
ATOM     22  H6  HN4 d          28.773  68.274   7.234  0.00  0.00     0.028 H 
ATOM     23  H7  HN4 d          29.078  67.440   5.673  0.00  0.00     0.028 H 
ATOM     24  H8  HN4 d          30.318  68.543   6.360  0.00  0.00     0.028 H 
ENDBRANCH  16  21
BRANCH  16  25
ATOM     25  C20 HN4 d          31.629  66.925   7.703  0.00  0.00    -0.066 C 
ATOM     26  H9  HN4 d          32.263  66.723   6.827  0.00  0.00     0.028 H 
ATOM     27  H10 HN4 d          31.945  66.284   8.540  0.00  0.00     0.028 H 
ATOM     28  H11 HN4 d          31.728  67.981   7.992  0.00  0.00     0.028 H 
ENDBRANCH  16  25
ENDBRANCH  10  16
ENDBRANCH   4   6
ENDBRANCH   1   4
BRANCH   1  29
ATOM     29  C5  HN4 d          24.759  65.281  12.387  0.00  0.00     0.111 C 
ATOM     30  N4  HN4 d          23.919  65.754  11.251  0.00  0.00    -0.055 N 
ATOM     31  C3  HN4 d          24.590  65.880   9.927  0.00  0.00     0.110 C 
ATOM     32  C8A HN4 d          23.274  67.087  11.457  0.00  0.00     0.155 C 
ATOM     33  H17 HN4 d          23.187  65.067  11.155  0.00  0.00     0.281 HD
ATOM     34  C2  HN4 d          23.559  66.675   9.108  0.00  0.00     0.085 C 
ATOM     35  H18 HN4 d          24.778  64.893   9.480  0.00  0.00     0.080 H 
ATOM     36  H19 HN4 d          25.539  66.430  10.013  0.00  0.00     0.080 H 
ATOM     37  C1  HN4 d          22.610  67.353  10.106  0.00  0.00     0.092 C 
ATOM     38  H20 HN4 d          24.074  67.443   8.511  0.00  0.00     0.089 H 
ATOM     39  H22 HN4 d          22.547  68.435   9.916  0.00  0.00     0.090 H 
ATOM     40  C8  HN4 d          22.389  67.091  12.693  0.00  0.00     0.066 C 
ATOM     41  H24 HN4 d          24.048  67.853  11.618  0.00  0.00     0.093 H 
ATOM     42  C7  HN4 d          23.192  66.619  13.916  0.00  0.00    -0.037 C 
ATOM     43  H25 HN4 d          21.538  66.413  12.530  0.00  0.00     0.086 H 
ATOM     44  C6  HN4 d          23.858  65.264  13.640  0.00  0.00    -0.035 C 
ATOM     45  H27 HN4 d          22.513  66.519  14.776  0.00  0.00     0.036 H 
ATOM     46  H28 HN4 d          23.968  67.363  14.147  0.00  0.00     0.036 H 
ATOM     47  H29 HN4 d          24.473  64.991  14.511  0.00  0.00     0.036 H 
ATOM     48  H30 HN4 d          23.072  64.509  13.496  0.00  0.00     0.036 H 
ATOM     49  H16 HN4 d          25.078  64.249  12.177  0.00  0.00     0.085 H 
BRANCH  34  50
ATOM     50  O2  HN4 d          22.830  65.804   8.217  0.00  0.00    -0.391 OA
ATOM     51  H21 HN4 d          23.153  65.917   7.332  0.00  0.00     0.210 HD
ENDBRANCH  34  50
BRANCH  37  52
ATOM     52  O1  HN4 d          21.279  66.777  10.006  0.00  0.00    -0.391 OA
ATOM     53  H23 HN4 d          21.301  66.032   9.417  0.00  0.00     0.210 HD
ENDBRANCH  37  52
BRANCH  40  54
ATOM     54  O8  HN4 d          21.905  68.408  12.940  0.00  0.00    -0.393 OA
ATOM     55  H26 HN4 d          22.603  69.034  12.792  0.00  0.00     0.210 HD
ENDBRANCH  40  54
ENDBRANCH   1  29
TORSDOF 10
ENDMDL
MODEL 4
REMARK VINA RESULT:      -5.1      3.192      7.205
REMARK  10 active torsions:
REMARK  status: ('A' for Active; 'I' for Inactive)
REMARK    1  A    between atoms: C10_2  and  C11_3 
REMARK    2  A    between atoms: C10_2  and  C9_13 
REMARK    3  A    between atoms: C14_6  and  C17_7 
REMARK    4  A    between atoms: C17_7  and  C18_8 
REMARK    5  A    between atoms: C17_7  and  C19_9 
REMARK    6  A    between atoms: C17_7  and  C20_10 
REMARK    7  A    between atoms: C9_13  and  C5_14 
REMARK    8  A    between atoms: C2_17  and  O2_18 
REMARK    9  A    between atoms: C1_19  and  O1_20 
REMARK   10  A    between atoms: C8_22  and  O8_23 
ROOT
ATOM      1  C9  HN4 d          26.269  66.560  12.548  0.00  0.00     0.022 C 
ATOM      2  H14 HN4 d          26.516  67.577  12.887  0.00  0.00     0.048 H 
ATOM      3  H15 HN4 d          25.774  66.011  13.364  0.00  0.00     0.048 H 
ENDROOT
BRANCH   1   4
ATOM      4  C10 HN4 d          27.566  65.837  12.194  0.00  0.00     0.161 C 
ATOM      5  O10 HN4 d          28.227  65.188  13.002  0.00  0.00    -0.292 OA
BRANCH   4   6
ATOM      6  C11 HN4 d          28.099  65.995  10.800  0.00  0.00     0.010 A 
ATOM      7  C12 HN4 d          27.336  65.623   9.694  0.00  0.00    -0.069 A 
ATOM      8  C13 HN4 d          27.836  65.796   8.399  0.00  0.00    -0.075 A 
ATOM      9  H1  HN4 d          26.350  65.198   9.837  0.00  0.00     0.085 H 
ATOM     10  C14 HN4 d          29.114  66.335   8.198  0.00  0.00    -0.051 A 
ATOM     11  H2  HN4 d          27.231  65.511   7.546  0.00  0.00     0.084 H 
ATOM     12  C15 HN4 d          29.868  66.706   9.312  0.00  0.00    -0.075 A 
ATOM     13  C16 HN4 d          29.376  66.534  10.608  0.00  0.00    -0.069 A 
ATOM     14  H12 HN4 d          30.853  67.134   9.169  0.00  0.00     0.084 H 
ATOM     15  H13 HN4 d          29.981  66.817  11.462  0.00  0.00     0.085 H 
BRANCH  10  16
ATOM     16  C17 HN4 d          29.633  66.508   6.779  0.00  0.00    -0.024 C 
BRANCH  16  17
ATOM     17  C18 HN4 d          29.767  65.132   6.125  0.00  0.00    -0.066 C 
ATOM     18  H3  HN4 d          29.288  65.149   5.134  0.00  0.00     0.028 H 
ATOM     19  H4  HN4 d          29.276  64.376   6.756  0.00  0.00     0.028 H 
ATOM     20  H5  HN4 d          30.832  64.881   6.012  0.00  0.00     0.028 H 
ENDBRANCH  16  17
BRANCH  16  21
ATOM     21  C19 HN4 d          28.650  67.294   5.905  0.00  0.00    -0.066 C 
ATOM     22  H6  HN4 d          28.995  68.334   5.809  0.00  0.00     0.028 H 
ATOM     23  H7  HN4 d          27.653  67.280   6.370  0.00  0.00     0.028 H 
ATOM     24  H8  HN4 d          28.596  66.833   4.908  0.00  0.00     0.028 H 
ENDBRANCH  16  21
BRANCH  16  25
ATOM     25  C20 HN4 d          30.988  67.216   6.841  0.00  0.00    -0.066 C 
ATOM     26  H9  HN4 d          31.763  66.497   7.144  0.00  0.00     0.028 H 
ATOM     27  H10 HN4 d          30.941  68.035   7.574  0.00  0.00     0.028 H 
ATOM     28  H11 HN4 d          31.233  67.624   5.849  0.00  0.00     0.028 H 
ENDBRANCH  16  25
ENDBRANCH  10  16
ENDBRANCH   4   6
ENDBRANCH   1   4
BRANCH   1  29
ATOM     29  C5  HN4 d          25.296  66.663  11.373  0.00  0.00     0.111 C 
ATOM     30  N4  HN4 d          24.661  68.006  11.274  0.00  0.00    -0.055 N 
ATOM     31  C3  HN4 d          25.576  69.180  11.230  0.00  0.00     0.110 C 
ATOM     32  C8A HN4 d          23.707  68.334  12.378  0.00  0.00     0.155 C 
ATOM     33  H17 HN4 d          24.142  67.994  10.410  0.00  0.00     0.281 HD
ATOM     34  C2  HN4 d          24.614  70.359  11.458  0.00  0.00     0.085 C 
ATOM     35  H18 HN4 d          26.076  69.258  10.254  0.00  0.00     0.080 H 
ATOM     36  H19 HN4 d          26.333  69.124  12.027  0.00  0.00     0.080 H 
ATOM     37  C1  HN4 d          23.333  69.786  12.080  0.00  0.00     0.092 C 
ATOM     38  H20 HN4 d          25.070  71.078  12.154  0.00  0.00     0.089 H 
ATOM     39  H22 HN4 d          23.077  70.314  13.011  0.00  0.00     0.090 H 
ATOM     40  C8  HN4 d          22.580  67.317  12.459  0.00  0.00     0.066 C 
ATOM     41  H24 HN4 d          24.232  68.303  13.344  0.00  0.00     0.093 H 
ATOM     42  C7  HN4 d          23.159  65.898  12.571  0.00  0.00    -0.037 C 
ATOM     43  H25 HN4 d          21.962  67.388  11.551  0.00  0.00     0.086 H 
ATOM     44  C6  HN4 d          24.155  65.625  11.435  0.00  0.00    -0.035 C 
ATOM     45  H27 HN4 d          22.339  65.167  12.515  0.00  0.00     0.036 H 
ATOM     46  H28 HN4 d          23.676  65.794  13.536  0.00  0.00     0.036 H 
ATOM     47  H29 HN4 d          24.595  64.627  11.585  0.00  0.00     0.036 H 
ATOM     48  H30 HN4 d          23.612  65.644  10.479  0.00  0.00     0.036 H 
ATOM     49  H16 HN4 d          25.875  66.484  10.455  0.00  0.00     0.085 H 
BRANCH  34  50
ATOM     50  O2  HN4 d          24.324  71.032  10.215  0.00  0.00    -0.391 OA
ATOM     51  H21 HN4 d          23.484  71.468  10.281  0.00  0.00     0.210 HD
ENDBRANCH  34  50
BRANCH  37  52
ATOM     52  O1  HN4 d          22.223  69.906  11.149  0.00  0.00    -0.391 OA
ATOM     53  H23 HN4 d          21.762  69.078  11.100  0.00  0.00     0.210 HD
ENDBRANCH  37  52
BRANCH  40  54
ATOM     54  O8  HN4 d          21.772  67.576  13.604  0.00  0.00    -0.393 OA
ATOM     55  H26 HN4 d          22.024  68.408  13.986  0.00  0.00     0.210 HD
ENDBRANCH  40  54
ENDBRANCH   1  29
TORSDOF 10
ENDMDL
MODEL 5
REMARK VINA RESULT:      -4.8      2.985      7.992
REMARK  10 active torsions:
REMARK  status: ('A' for Active; 'I' for Inactive)
REMARK    1  A    between atoms: C10_2  and  C11_3 
REMARK    2  A    between atoms: C10_2  and  C9_13 
REMARK    3  A    between atoms: C14_6  and  C17_7 
REMARK    4  A    between atoms: C17_7  and  C18_8 
REMARK    5  A    between atoms: C17_7  and  C19_9 
REMARK    6  A    between atoms: C17_7  and  C20_10 
REMARK    7  A    between atoms: C9_13  and  C5_14 
REMARK    8  A    between atoms: C2_17  and  O2_18 
REMARK    9  A    between atoms: C1_19  and  O1_20 
REMARK   10  A    between atoms: C8_22  and  O8_23 
ROOT
ATOM      1  C9  HN4 d          25.343  66.570   9.045  0.00  0.00     0.022 C 
ATOM      2  H14 HN4 d          24.583  67.148   8.497  0.00  0.00     0.048 H 
ATOM      3  H15 HN4 d          26.076  67.259   9.491  0.00  0.00     0.048 H 
ENDROOT
BRANCH   1   4
ATOM      4  C10 HN4 d          26.068  65.662   8.055  0.00  0.00     0.161 C 
ATOM      5  O10 HN4 d          25.560  64.664   7.547  0.00  0.00    -0.292 OA
BRANCH   4   6
ATOM      6  C11 HN4 d          27.505  65.965   7.748  0.00  0.00     0.010 A 
ATOM      7  C12 HN4 d          27.881  66.476   6.506  0.00  0.00    -0.069 A 
ATOM      8  C13 HN4 d          29.221  66.775   6.240  0.00  0.00    -0.075 A 
ATOM      9  H1  HN4 d          27.131  66.643   5.742  0.00  0.00     0.085 H 
ATOM     10  C14 HN4 d          30.204  66.555   7.215  0.00  0.00    -0.051 A 
ATOM     11  H2  HN4 d          29.501  67.180   5.274  0.00  0.00     0.084 H 
ATOM     12  C15 HN4 d          29.816  66.045   8.455  0.00  0.00    -0.075 A 
ATOM     13  C16 HN4 d          28.480  65.742   8.726  0.00  0.00    -0.069 A 
ATOM     14  H12 HN4 d          30.566  65.881   9.220  0.00  0.00     0.084 H 
ATOM     15  H13 HN4 d          28.200  65.337   9.692  0.00  0.00     0.085 H 
BRANCH  10  16
ATOM     16  C17 HN4 d          31.654  66.886   6.897  0.00  0.00    -0.024 C 
BRANCH  16  17
ATOM     17  C18 HN4 d          32.251  65.756   6.054  0.00  0.00    -0.066 C 
ATOM     18  H3  HN4 d          31.439  65.144   5.635  0.00  0.00     0.028 H 
ATOM     19  H4  HN4 d          32.896  65.129   6.687  0.00  0.00     0.028 H 
ATOM     20  H5  HN4 d          32.847  66.186   5.235  0.00  0.00     0.028 H 
ENDBRANCH  16  17
BRANCH  16  21
ATOM     21  C19 HN4 d          31.775  68.153   6.043  0.00  0.00    -0.066 C 
ATOM     22  H6  HN4 d          31.837  67.875   4.981  0.00  0.00     0.028 H 
ATOM     23  H7  HN4 d          32.683  68.704   6.332  0.00  0.00     0.028 H 
ATOM     24  H8  HN4 d          30.893  68.790   6.205  0.00  0.00     0.028 H 
ENDBRANCH  16  21
BRANCH  16  25
ATOM     25  C20 HN4 d          32.416  67.045   8.213  0.00  0.00    -0.066 C 
ATOM     26  H9  HN4 d          33.013  67.969   8.182  0.00  0.00     0.028 H 
ATOM     27  H10 HN4 d          33.084  66.182   8.356  0.00  0.00     0.028 H 
ATOM     28  H11 HN4 d          31.701  67.098   9.047  0.00  0.00     0.028 H 
ENDBRANCH  16  25
ENDBRANCH  10  16
ENDBRANCH   4   6
ENDBRANCH   1   4
BRANCH   1  29
ATOM     29  C5  HN4 d          24.651  65.802  10.171  0.00  0.00     0.111 C 
ATOM     30  N4  HN4 d          23.885  66.695  11.085  0.00  0.00    -0.055 N 
ATOM     31  C3  HN4 d          22.888  67.605  10.456  0.00  0.00     0.110 C 
ATOM     32  C8A HN4 d          24.725  67.606  11.924  0.00  0.00     0.155 C 
ATOM     33  H17 HN4 d          23.384  66.078  11.705  0.00  0.00     0.281 HD
ATOM     34  C2  HN4 d          22.548  68.569  11.605  0.00  0.00     0.085 C 
ATOM     35  H18 HN4 d          21.998  67.051  10.125  0.00  0.00     0.080 H 
ATOM     36  H19 HN4 d          23.325  68.143   9.601  0.00  0.00     0.080 H 
ATOM     37  C1  HN4 d          23.681  68.466  12.636  0.00  0.00     0.092 C 
ATOM     38  H20 HN4 d          22.495  69.598  11.220  0.00  0.00     0.089 H 
ATOM     39  H22 HN4 d          24.096  69.459  12.865  0.00  0.00     0.090 H 
ATOM     40  C8  HN4 d          25.703  66.822  12.786  0.00  0.00     0.066 C 
ATOM     41  H24 HN4 d          25.327  68.258  11.274  0.00  0.00     0.093 H 
ATOM     42  C7  HN4 d          26.538  65.878  11.908  0.00  0.00    -0.037 C 
ATOM     43  H25 HN4 d          25.140  66.233  13.525  0.00  0.00     0.086 H 
ATOM     44  C6  HN4 d          25.630  64.990  11.045  0.00  0.00    -0.035 C 
ATOM     45  H27 HN4 d          27.158  65.239  12.554  0.00  0.00     0.036 H 
ATOM     46  H28 HN4 d          27.187  66.475  11.252  0.00  0.00     0.036 H 
ATOM     47  H29 HN4 d          26.263  64.376  10.387  0.00  0.00     0.036 H 
ATOM     48  H30 HN4 d          25.048  64.335  11.708  0.00  0.00     0.036 H 
ATOM     49  H16 HN4 d          23.945  65.101   9.701  0.00  0.00     0.085 H 
BRANCH  34  50
ATOM     50  O2  HN4 d          21.280  68.229  12.202  0.00  0.00    -0.391 OA
ATOM     51  H21 HN4 d          20.576  68.558  11.656  0.00  0.00     0.210 HD
ENDBRANCH  34  50
BRANCH  37  52
ATOM     52  O1  HN4 d          23.191  67.863  13.864  0.00  0.00    -0.391 OA
ATOM     53  H23 HN4 d          23.790  67.180  14.140  0.00  0.00     0.210 HD
ENDBRANCH  37  52
BRANCH  40  54
ATOM     54  O8  HN4 d          26.579  67.718  13.463  0.00  0.00    -0.393 OA
ATOM     55  H26 HN4 d          27.471  67.568  13.172  0.00  0.00     0.210 HD
ENDBRANCH  40  54
ENDBRANCH   1  29
TORSDOF 10
ENDMDL
MODEL 6
REMARK VINA RESULT:      -4.5      3.759      7.880
REMARK  10 active torsions:
REMARK  status: ('A' for Active; 'I' for Inactive)
REMARK    1  A    between atoms: C10_2  and  C11_3 
REMARK    2  A    between atoms: C10_2  and  C9_13 
REMARK    3  A    between atoms: C14_6  and  C17_7 
REMARK    4  A    between atoms: C17_7  and  C18_8 
REMARK    5  A    between atoms: C17_7  and  C19_9 
REMARK    6  A    between atoms: C17_7  and  C20_10 
REMARK    7  A    between atoms: C9_13  and  C5_14 
REMARK    8  A    between atoms: C2_17  and  O2_18 
REMARK    9  A    between atoms: C1_19  and  O1_20 
REMARK   10  A    between atoms: C8_22  and  O8_23 
ROOT
ATOM      1  C9  HN4 d          23.881  67.078  10.489  0.00  0.00     0.022 C 
ATOM      2  H14 HN4 d          22.904  67.054   9.985  0.00  0.00     0.048 H 
ATOM      3  H15 HN4 d          24.462  67.939  10.124  0.00  0.00     0.048 H 
ENDROOT
BRANCH   1   4
ATOM      4  C10 HN4 d          24.639  65.799  10.141  0.00  0.00     0.161 C 
ATOM      5  O10 HN4 d          24.278  64.677  10.490  0.00  0.00    -0.292 OA
BRANCH   4   6
ATOM      6  C11 HN4 d          25.936  65.932   9.398  0.00  0.00     0.010 A 
ATOM      7  C12 HN4 d          27.119  66.240  10.069  0.00  0.00    -0.069 A 
ATOM      8  C13 HN4 d          28.325  66.340   9.367  0.00  0.00    -0.075 A 
ATOM      9  H1  HN4 d          27.104  66.403  11.140  0.00  0.00     0.085 H 
ATOM     10  C14 HN4 d          28.357  66.142   7.980  0.00  0.00    -0.051 A 
ATOM     11  H2  HN4 d          29.240  66.572   9.900  0.00  0.00     0.084 H 
ATOM     12  C15 HN4 d          27.167  65.833   7.319  0.00  0.00    -0.075 A 
ATOM     13  C16 HN4 d          25.959  65.734   8.013  0.00  0.00    -0.069 A 
ATOM     14  H12 HN4 d          27.182  65.667   6.248  0.00  0.00     0.084 H 
ATOM     15  H13 HN4 d          25.044  65.503   7.480  0.00  0.00     0.085 H 
BRANCH  10  16
ATOM     16  C17 HN4 d          29.682  66.261   7.243  0.00  0.00    -0.024 C 
BRANCH  16  17
ATOM     17  C18 HN4 d          29.770  67.643   6.593  0.00  0.00    -0.066 C 
ATOM     18  H3  HN4 d          30.808  67.836   6.282  0.00  0.00     0.028 H 
ATOM     19  H4  HN4 d          29.455  68.410   7.317  0.00  0.00     0.028 H 
ATOM     20  H5  HN4 d          29.111  67.678   5.713  0.00  0.00     0.028 H 
ENDBRANCH  16  17
BRANCH  16  21
ATOM     21  C19 HN4 d          30.876  66.171   8.199  0.00  0.00    -0.066 C 
ATOM     22  H6  HN4 d          30.514  65.985   9.221  0.00  0.00     0.028 H 
ATOM     23  H7  HN4 d          31.436  67.117   8.176  0.00  0.00     0.028 H 
ATOM     24  H8  HN4 d          31.534  65.347   7.888  0.00  0.00     0.028 H 
ENDBRANCH  16  21
BRANCH  16  25
ATOM     25  C20 HN4 d          29.750  65.157   6.187  0.00  0.00    -0.066 C 
ATOM     26  H9  HN4 d          28.734  64.801   5.962  0.00  0.00     0.028 H 
ATOM     27  H10 HN4 d          30.355  64.321   6.568  0.00  0.00     0.028 H 
ATOM     28  H11 HN4 d          30.210  65.555   5.270  0.00  0.00     0.028 H 
ENDBRANCH  16  25
ENDBRANCH  10  16
ENDBRANCH   4   6
ENDBRANCH   1   4
BRANCH   1  29
ATOM     29  C5  HN4 d          23.649  67.251  11.990  0.00  0.00     0.111 C 
ATOM     30  N4  HN4 d          23.280  68.648  12.354  0.00  0.00    -0.055 N 
ATOM     31  C3  HN4 d          22.127  69.249  11.628  0.00  0.00     0.110 C 
ATOM     32  C8A HN4 d          24.375  69.653  12.184  0.00  0.00     0.155 C 
ATOM     33  H17 HN4 d          23.039  68.616  13.332  0.00  0.00     0.281 HD
ATOM     34  C2  HN4 d          22.240  70.737  12.000  0.00  0.00     0.085 C 
ATOM     35  H18 HN4 d          21.174  68.824  11.975  0.00  0.00     0.080 H 
ATOM     36  H19 HN4 d          22.220  69.102  10.542  0.00  0.00     0.080 H 
ATOM     37  C1  HN4 d          23.673  70.973  12.498  0.00  0.00     0.092 C 
ATOM     38  H20 HN4 d          22.055  71.355  11.109  0.00  0.00     0.089 H 
ATOM     39  H22 HN4 d          24.149  71.800  11.950  0.00  0.00     0.090 H 
ATOM     40  C8  HN4 d          25.597  69.288  13.013  0.00  0.00     0.066 C 
ATOM     41  H24 HN4 d          24.699  69.674  11.133  0.00  0.00     0.093 H 
ATOM     42  C7  HN4 d          26.045  67.854  12.686  0.00  0.00    -0.037 C 
ATOM     43  H25 HN4 d          25.344  69.357  14.081  0.00  0.00     0.086 H 
ATOM     44  C6  HN4 d          24.877  66.869  12.845  0.00  0.00    -0.035 C 
ATOM     45  H27 HN4 d          26.855  67.564  13.371  0.00  0.00     0.036 H 
ATOM     46  H28 HN4 d          26.409  67.817  11.650  0.00  0.00     0.036 H 
ATOM     47  H29 HN4 d          25.218  65.868  12.541  0.00  0.00     0.036 H 
ATOM     48  H30 HN4 d          24.576  66.849  13.902  0.00  0.00     0.036 H 
ATOM     49  H16 HN4 d          22.816  66.589  12.269  0.00  0.00     0.085 H 
BRANCH  34  50
ATOM     50  O2  HN4 d          21.279  71.086  13.018  0.00  0.00    -0.391 OA
ATOM     51  H21 HN4 d          20.865  70.296  13.344  0.00  0.00     0.210 HD
ENDBRANCH  34  50
BRANCH  37  52
ATOM     52  O1  HN4 d          23.667  71.289  13.917  0.00  0.00    -0.391 OA
ATOM     53  H23 HN4 d          24.555  71.254  14.252  0.00  0.00     0.210 HD
ENDBRANCH  37  52
BRANCH  40  54
ATOM     54  O8  HN4 d          26.667  70.182  12.721  0.00  0.00    -0.393 OA
ATOM     55  H26 HN4 d          27.451  69.895  13.174  0.00  0.00     0.210 HD
ENDBRANCH  40  54
ENDBRANCH   1  29
TORSDOF 10
ENDMDL
MODEL 7
REMARK VINA RESULT:      -4.4      3.078      7.006
REMARK  10 active torsions:
REMARK  status: ('A' for Active; 'I' for Inactive)
REMARK    1  A    between atoms: C10_2  and  C11_3 
REMARK    2  A    between atoms: C10_2  and  C9_13 
REMARK    3  A    between atoms: C14_6  and  C17_7 
REMARK    4  A    between atoms: C17_7  and  C18_8 
REMARK    5  A    between atoms: C17_7  and  C19_9 
REMARK    6  A    between atoms: C17_7  and  C20_10 
REMARK    7  A    between atoms: C9_13  and  C5_14 
REMARK    8  A    between atoms: C2_17  and  O2_18 
REMARK    9  A    between atoms: C1_19  and  O1_20 
REMARK   10  A    between atoms: C8_22  and  O8_23 
ROOT
ATOM      1  C9  HN4 d          27.499  68.179  12.515  0.00  0.00     0.022 C 
ATOM      2  H14 HN4 d          27.143  68.673  11.599  0.00  0.00     0.048 H 
ATOM      3  H15 HN4 d          28.131  68.875  13.086  0.00  0.00     0.048 H 
ENDROOT
BRANCH   1   4
ATOM      4  C10 HN4 d          28.344  66.971  12.116  0.00  0.00     0.161 C 
ATOM      5  O10 HN4 d          28.785  66.153  12.921  0.00  0.00    -0.292 OA
BRANCH   4   6
ATOM      6  C11 HN4 d          28.719  66.823  10.671  0.00  0.00     0.010 A 
ATOM      7  C12 HN4 d          27.754  66.903   9.668  0.00  0.00    -0.069 A 
ATOM      8  C13 HN4 d          28.119  66.785   8.323  0.00  0.00    -0.075 A 
ATOM      9  H1  HN4 d          26.714  67.057   9.932  0.00  0.00     0.085 H 
ATOM     10  C14 HN4 d          29.459  66.575   7.968  0.00  0.00    -0.051 A 
ATOM     11  H2  HN4 d          27.362  66.857   7.551  0.00  0.00     0.084 H 
ATOM     12  C15 HN4 d          30.417  66.498   8.980  0.00  0.00    -0.075 A 
ATOM     13  C16 HN4 d          30.059  66.613  10.325  0.00  0.00    -0.069 A 
ATOM     14  H12 HN4 d          31.457  66.347   8.717  0.00  0.00     0.084 H 
ATOM     15  H13 HN4 d          30.816  66.540  11.097  0.00  0.00     0.085 H 
BRANCH  10  16
ATOM     16  C17 HN4 d          29.826  66.446   6.498  0.00  0.00    -0.024 C 
BRANCH  16  17
ATOM     17  C18 HN4 d          31.239  66.996   6.287  0.00  0.00    -0.066 C 
ATOM     18  H3  HN4 d          31.217  68.094   6.343  0.00  0.00     0.028 H 
ATOM     19  H4  HN4 d          31.609  66.686   5.298  0.00  0.00     0.028 H 
ATOM     20  H5  HN4 d          31.906  66.602   7.068  0.00  0.00     0.028 H 
ENDBRANCH  16  17
BRANCH  16  21
ATOM     21  C19 HN4 d          29.875  64.982   6.049  0.00  0.00    -0.066 C 
ATOM     22  H6  HN4 d          30.337  64.372   6.838  0.00  0.00     0.028 H 
ATOM     23  H7  HN4 d          30.470  64.901   5.127  0.00  0.00     0.028 H 
ATOM     24  H8  HN4 d          28.854  64.622   5.858  0.00  0.00     0.028 H 
ENDBRANCH  16  21
BRANCH  16  25
ATOM     25  C20 HN4 d          28.808  67.232   5.672  0.00  0.00    -0.066 C 
ATOM     26  H9  HN4 d          28.258  67.923   6.328  0.00  0.00     0.028 H 
ATOM     27  H10 HN4 d          28.100  66.534   5.200  0.00  0.00     0.028 H 
ATOM     28  H11 HN4 d          29.331  67.805   4.892  0.00  0.00     0.028 H 
ENDBRANCH  16  25
ENDBRANCH  10  16
ENDBRANCH   4   6
ENDBRANCH   1   4
BRANCH   1  29
ATOM     29  C5  HN4 d          26.287  67.810  13.371  0.00  0.00     0.111 C 
ATOM     30  N4  HN4 d          25.302  66.970  12.634  0.00  0.00    -0.055 N 
ATOM     31  C3  HN4 d          25.822  65.728  11.996  0.00  0.00     0.110 C 
ATOM     32  C8A HN4 d          24.583  67.670  11.525  0.00  0.00     0.155 C 
ATOM     33  H17 HN4 d          24.618  66.694  13.321  0.00  0.00     0.281 HD
ATOM     34  C2  HN4 d          24.654  65.310  11.085  0.00  0.00     0.085 C 
ATOM     35  H18 HN4 d          26.037  64.955  12.747  0.00  0.00     0.080 H 
ATOM     36  H19 HN4 d          26.730  65.933  11.410  0.00  0.00     0.080 H 
ATOM     37  C1  HN4 d          23.765  66.546  10.891  0.00  0.00     0.092 C 
ATOM     38  H20 HN4 d          25.046  64.983  10.111  0.00  0.00     0.089 H 
ATOM     39  H22 HN4 d          23.601  66.748   9.821  0.00  0.00     0.090 H 
ATOM     40  C8  HN4 d          23.831  68.890  12.035  0.00  0.00     0.066 C 
ATOM     41  H24 HN4 d          25.309  68.032  10.782  0.00  0.00     0.093 H 
ATOM     42  C7  HN4 d          24.788  69.814  12.805  0.00  0.00    -0.037 C 
ATOM     43  H25 HN4 d          23.022  68.563  12.704  0.00  0.00     0.086 H 
ATOM     44  C6  HN4 d          25.524  69.039  13.907  0.00  0.00    -0.035 C 
ATOM     45  H27 HN4 d          24.211  70.631  13.262  0.00  0.00     0.036 H 
ATOM     46  H28 HN4 d          25.526  70.233  12.105  0.00  0.00     0.036 H 
ATOM     47  H29 HN4 d          26.244  69.716  14.392  0.00  0.00     0.036 H 
ATOM     48  H30 HN4 d          24.787  68.698  14.648  0.00  0.00     0.036 H 
ATOM     49  H16 HN4 d          26.660  67.233  14.231  0.00  0.00     0.085 H 
BRANCH  34  50
ATOM     50  O2  HN4 d          23.907  64.227  11.675  0.00  0.00    -0.391 OA
ATOM     51  H21 HN4 d          23.247  64.580  12.259  0.00  0.00     0.210 HD
ENDBRANCH  34  50
BRANCH  37  52
ATOM     52  O1  HN4 d          22.478  66.346  11.537  0.00  0.00    -0.391 OA
ATOM     53  H23 HN4 d          21.789  66.686  10.978  0.00  0.00     0.210 HD
ENDBRANCH  37  52
BRANCH  40  54
ATOM     54  O8  HN4 d          23.276  69.612  10.939  0.00  0.00    -0.393 OA
ATOM     55  H26 HN4 d          23.973  70.053  10.466  0.00  0.00     0.210 HD
ENDBRANCH  40  54
ENDBRANCH   1  29
TORSDOF 10
ENDMDL
MODEL 8
REMARK VINA RESULT:      -4.4      3.100      7.962
REMARK  10 active torsions:
REMARK  status: ('A' for Active; 'I' for Inactive)
REMARK    1  A    between atoms: C10_2  and  C11_3 
REMARK    2  A    between atoms: C10_2  and  C9_13 
REMARK    3  A    between atoms: C14_6  and  C17_7 
REMARK    4  A    between atoms: C17_7  and  C18_8 
REMARK    5  A    between atoms: C17_7  and  C19_9 
REMARK    6  A    between atoms: C17_7  and  C20_10 
REMARK    7  A    between atoms: C9_13  and  C5_14 
REMARK    8  A    between atoms: C2_17  and  O2_18 
REMARK    9  A    between atoms: C1_19  and  O1_20 
REMARK   10  A    between atoms: C8_22  and  O8_23 
ROOT
ATOM      1  C9  HN4 d          25.446  66.861   9.222  0.00  0.00     0.022 C 
ATOM      2  H14 HN4 d          24.385  66.575   9.167  0.00  0.00     0.048 H 
ATOM      3  H15 HN4 d          25.625  67.733   8.576  0.00  0.00     0.048 H 
ENDROOT
BRANCH   1   4
ATOM      4  C10 HN4 d          26.290  65.696   8.710  0.00  0.00     0.161 C 
ATOM      5  O10 HN4 d          25.914  64.525   8.721  0.00  0.00    -0.292 OA
BRANCH   4   6
ATOM      6  C11 HN4 d          27.683  65.992   8.240  0.00  0.00     0.010 A 
ATOM      7  C12 HN4 d          28.002  65.976   6.882  0.00  0.00    -0.069 A 
ATOM      8  C13 HN4 d          29.299  66.276   6.456  0.00  0.00    -0.075 A 
ATOM      9  H1  HN4 d          27.239  65.730   6.153  0.00  0.00     0.085 H 
ATOM     10  C14 HN4 d          30.299  66.585   7.388  0.00  0.00    -0.051 A 
ATOM     11  H2  HN4 d          29.533  66.268   5.397  0.00  0.00     0.084 H 
ATOM     12  C15 HN4 d          29.969  66.600   8.744  0.00  0.00    -0.075 A 
ATOM     13  C16 HN4 d          28.676  66.300   9.177  0.00  0.00    -0.069 A 
ATOM     14  H12 HN4 d          30.731  66.849   9.474  0.00  0.00     0.084 H 
ATOM     15  H13 HN4 d          28.442  66.306  10.236  0.00  0.00     0.085 H 
BRANCH  10  16
ATOM     16  C17 HN4 d          31.702  66.903   6.895  0.00  0.00    -0.024 C 
BRANCH  16  17
ATOM     17  C18 HN4 d          32.213  65.733   6.052  0.00  0.00    -0.066 C 
ATOM     18  H3  HN4 d          32.454  66.089   5.040  0.00  0.00     0.028 H 
ATOM     19  H4  HN4 d          31.436  64.956   5.994  0.00  0.00     0.028 H 
ATOM     20  H5  HN4 d          33.117  65.313   6.518  0.00  0.00     0.028 H 
ENDBRANCH  16  17
BRANCH  16  21
ATOM     21  C19 HN4 d          31.718  68.124   5.969  0.00  0.00    -0.066 C 
ATOM     22  H6  HN4 d          32.735  68.276   5.580  0.00  0.00     0.028 H 
ATOM     23  H7  HN4 d          31.403  69.016   6.533  0.00  0.00     0.028 H 
ATOM     24  H8  HN4 d          31.026  67.958   5.131  0.00  0.00     0.028 H 
ENDBRANCH  16  21
BRANCH  16  25
ATOM     25  C20 HN4 d          32.602  67.134   8.110  0.00  0.00    -0.066 C 
ATOM     26  H9  HN4 d          32.174  66.625   8.986  0.00  0.00     0.028 H 
ATOM     27  H10 HN4 d          32.676  68.213   8.312  0.00  0.00     0.028 H 
ATOM     28  H11 HN4 d          33.605  66.730   7.905  0.00  0.00     0.028 H 
ENDBRANCH  16  25
ENDBRANCH  10  16
ENDBRANCH   4   6
ENDBRANCH   1   4
BRANCH   1  29
ATOM     29  C5  HN4 d          25.770  67.251  10.665  0.00  0.00     0.111 C 
ATOM     30  N4  HN4 d          24.790  66.697  11.640  0.00  0.00    -0.055 N 
ATOM     31  C3  HN4 d          24.552  65.227  11.593  0.00  0.00     0.110 C 
ATOM     32  C8A HN4 d          23.418  67.286  11.556  0.00  0.00     0.155 C 
ATOM     33  H17 HN4 d          25.165  66.914  12.550  0.00  0.00     0.281 HD
ATOM     34  C2  HN4 d          23.296  65.067  12.466  0.00  0.00     0.085 C 
ATOM     35  H18 HN4 d          25.403  64.673  12.015  0.00  0.00     0.080 H 
ATOM     36  H19 HN4 d          24.368  64.887  10.563  0.00  0.00     0.080 H 
ATOM     37  C1  HN4 d          22.628  66.445  12.559  0.00  0.00     0.092 C 
ATOM     38  H20 HN4 d          22.605  64.355  11.990  0.00  0.00     0.089 H 
ATOM     39  H22 HN4 d          21.570  66.390  12.263  0.00  0.00     0.090 H 
ATOM     40  C8  HN4 d          23.446  68.792  11.764  0.00  0.00     0.066 C 
ATOM     41  H24 HN4 d          23.000  67.112  10.553  0.00  0.00     0.093 H 
ATOM     42  C7  HN4 d          24.436  69.440  10.783  0.00  0.00    -0.037 C 
ATOM     43  H25 HN4 d          23.760  69.009  12.796  0.00  0.00     0.086 H 
ATOM     44  C6  HN4 d          25.818  68.777  10.886  0.00  0.00    -0.035 C 
ATOM     45  H27 HN4 d          24.531  70.510  11.019  0.00  0.00     0.036 H 
ATOM     46  H28 HN4 d          24.057  69.323   9.758  0.00  0.00     0.036 H 
ATOM     47  H29 HN4 d          26.478  69.222  10.127  0.00  0.00     0.036 H 
ATOM     48  H30 HN4 d          26.227  68.974  11.888  0.00  0.00     0.036 H 
ATOM     49  H16 HN4 d          26.763  66.837  10.898  0.00  0.00     0.085 H 
BRANCH  34  50
ATOM     50  O2  HN4 d          23.642  64.574  13.777  0.00  0.00    -0.391 OA
ATOM     51  H21 HN4 d          24.564  64.732  13.939  0.00  0.00     0.210 HD
ENDBRANCH  34  50
BRANCH  37  52
ATOM     52  O1  HN4 d          22.713  66.955  13.917  0.00  0.00    -0.391 OA
ATOM     53  H23 HN4 d          22.355  67.834  13.947  0.00  0.00     0.210 HD
ENDBRANCH  37  52
BRANCH  40  54
ATOM     54  O8  HN4 d          22.150  69.339  11.538  0.00  0.00    -0.393 OA
ATOM     55  H26 HN4 d          21.588  68.673  11.160  0.00  0.00     0.210 HD
ENDBRANCH  40  54
ENDBRANCH   1  29
TORSDOF 10
ENDMDL
MODEL 9
REMARK VINA RESULT:      -4.0      3.439      7.133
REMARK  10 active torsions:
REMARK  status: ('A' for Active; 'I' for Inactive)
REMARK    1  A    between atoms: C10_2  and  C11_3 
REMARK    2  A    between atoms: C10_2  and  C9_13 
REMARK    3  A    between atoms: C14_6  and  C17_7 
REMARK    4  A    between atoms: C17_7  and  C18_8 
REMARK    5  A    between atoms: C17_7  and  C19_9 
REMARK    6  A    between atoms: C17_7  and  C20_10 
REMARK    7  A    between atoms: C9_13  and  C5_14 
REMARK    8  A    between atoms: C2_17  and  O2_18 
REMARK    9  A    between atoms: C1_19  and  O1_20 
REMARK   10  A    between atoms: C8_22  and  O8_23 
ROOT
ATOM      1  C9  HN4 d          24.790  64.465  11.035  0.00  0.00     0.022 C 
ATOM      2  H14 HN4 d          25.824  64.414  11.408  0.00  0.00     0.048 H 
ATOM      3  H15 HN4 d          24.345  63.459  11.046  0.00  0.00     0.048 H 
ENDROOT
BRANCH   1   4
ATOM      4  C10 HN4 d          24.819  64.968   9.593  0.00  0.00     0.161 C 
ATOM      5  O10 HN4 d          23.832  64.992   8.861  0.00  0.00    -0.292 OA
BRANCH   4   6
ATOM      6  C11 HN4 d          26.143  65.381   9.021  0.00  0.00     0.010 A 
ATOM      7  C12 HN4 d          27.298  65.369   9.803  0.00  0.00    -0.069 A 
ATOM      8  C13 HN4 d          28.529  65.735   9.251  0.00  0.00    -0.075 A 
ATOM      9  H1  HN4 d          27.240  65.075  10.844  0.00  0.00     0.085 H 
ATOM     10  C14 HN4 d          28.617  66.129   7.909  0.00  0.00    -0.051 A 
ATOM     11  H2  HN4 d          29.422  65.715   9.866  0.00  0.00     0.084 H 
ATOM     12  C15 HN4 d          27.455  66.135   7.135  0.00  0.00    -0.075 A 
ATOM     13  C16 HN4 d          26.221  65.772   7.680  0.00  0.00    -0.069 A 
ATOM     14  H12 HN4 d          27.512  66.427   6.093  0.00  0.00     0.084 H 
ATOM     15  H13 HN4 d          25.329  65.794   7.066  0.00  0.00     0.085 H 
BRANCH  10  16
ATOM     16  C17 HN4 d          29.969  66.526   7.337  0.00  0.00    -0.024 C 
BRANCH  16  17
ATOM     17  C18 HN4 d          30.360  65.531   6.242  0.00  0.00    -0.066 C 
ATOM     18  H3  HN4 d          30.031  64.521   6.530  0.00  0.00     0.028 H 
ATOM     19  H4  HN4 d          31.452  65.538   6.113  0.00  0.00     0.028 H 
ATOM     20  H5  HN4 d          29.877  65.818   5.296  0.00  0.00     0.028 H 
ENDBRANCH  16  17
BRANCH  16  21
ATOM     21  C19 HN4 d          29.919  67.898   6.657  0.00  0.00    -0.066 C 
ATOM     22  H6  HN4 d          30.132  68.682   7.397  0.00  0.00     0.028 H 
ATOM     23  H7  HN4 d          28.918  68.060   6.230  0.00  0.00     0.028 H 
ATOM     24  H8  HN4 d          30.670  67.938   5.855  0.00  0.00     0.028 H 
ENDBRANCH  16  21
BRANCH  16  25
ATOM     25  C20 HN4 d          30.996  66.520   8.469  0.00  0.00    -0.066 C 
ATOM     26  H9  HN4 d          31.071  67.529   8.902  0.00  0.00     0.028 H 
ATOM     27  H10 HN4 d          31.977  66.218   8.074  0.00  0.00     0.028 H 
ATOM     28  H11 HN4 d          30.680  65.811   9.248  0.00  0.00     0.028 H 
ENDBRANCH  16  25
ENDBRANCH  10  16
ENDBRANCH   4   6
ENDBRANCH   1   4
BRANCH   1  29
ATOM     29  C5  HN4 d          23.981  65.364  11.970  0.00  0.00     0.111 C 
ATOM     30  N4  HN4 d          24.252  66.812  11.747  0.00  0.00    -0.055 N 
ATOM     31  C3  HN4 d          24.094  67.318  10.355  0.00  0.00     0.110 C 
ATOM     32  C8A HN4 d          25.622  67.263  12.141  0.00  0.00     0.155 C 
ATOM     33  H17 HN4 d          23.587  67.301  12.325  0.00  0.00     0.281 HD
ATOM     34  C2  HN4 d          24.750  68.708  10.432  0.00  0.00     0.085 C 
ATOM     35  H18 HN4 d          23.033  67.395  10.078  0.00  0.00     0.080 H 
ATOM     36  H19 HN4 d          24.616  66.671   9.635  0.00  0.00     0.080 H 
ATOM     37  C1  HN4 d          25.643  68.720  11.681  0.00  0.00     0.092 C 
ATOM     38  H20 HN4 d          25.368  68.874   9.537  0.00  0.00     0.089 H 
ATOM     39  H22 HN4 d          26.669  69.027  11.428  0.00  0.00     0.090 H 
ATOM     40  C8  HN4 d          25.899  66.981  13.610  0.00  0.00     0.066 C 
ATOM     41  H24 HN4 d          26.376  66.707  11.564  0.00  0.00     0.093 H 
ATOM     42  C7  HN4 d          25.646  65.497  13.917  0.00  0.00    -0.037 C 
ATOM     43  H25 HN4 d          25.233  67.602  14.228  0.00  0.00     0.086 H 
ATOM     44  C6  HN4 d          24.240  65.079  13.465  0.00  0.00    -0.035 C 
ATOM     45  H27 HN4 d          25.740  65.332  15.001  0.00  0.00     0.036 H 
ATOM     46  H28 HN4 d          26.392  64.887  13.388  0.00  0.00     0.036 H 
ATOM     47  H29 HN4 d          24.121  63.999  13.642  0.00  0.00     0.036 H 
ATOM     48  H30 HN4 d          23.500  65.631  14.061  0.00  0.00     0.036 H 
ATOM     49  H16 HN4 d          22.917  65.175  11.763  0.00  0.00     0.085 H 
BRANCH  34  50
ATOM     50  O2  HN4 d          23.749  69.744  10.507  0.00  0.00    -0.391 OA
ATOM     51  H21 HN4 d          23.986  70.454   9.923  0.00  0.00     0.210 HD
ENDBRANCH  34  50
BRANCH  37  52
ATOM     52  O1  HN4 d          25.107  69.636  12.674  0.00  0.00    -0.391 OA
ATOM     53  H23 HN4 d          24.791  69.142  13.420  0.00  0.00     0.210 HD
ENDBRANCH  37  52
BRANCH  40  54
ATOM     54  O8  HN4 d          27.256  67.291  13.917  0.00  0.00    -0.393 OA
ATOM     55  H26 HN4 d          27.469  66.953  14.778  0.00  0.00     0.210 HD
ENDBRANCH  40  54
ENDBRANCH   1  29
TORSDOF 10
ENDMDL
MODEL 10
REMARK VINA RESULT:      -4.0      3.246      7.950
REMARK  10 active torsions:
REMARK  status: ('A' for Active; 'I' for Inactive)
REMARK    1  A    between atoms: C10_2  and  C11_3 
REMARK    2  A    between atoms: C10_2  and  C9_13 
REMARK    3  A    between atoms: C14_6  and  C17_7 
REMARK    4  A    between atoms: C17_7  and  C18_8 
REMARK    5  A    between atoms: C17_7  and  C19_9 
REMARK    6  A    between atoms: C17_7  and  C20_10 
REMARK    7  A    between atoms: C9_13  and  C5_14 
REMARK    8  A    between atoms: C2_17  and  O2_18 
REMARK    9  A    between atoms: C1_19  and  O1_20 
REMARK   10  A    between atoms: C8_22  and  O8_23 
ROOT
ATOM      1  C9  HN4 d          26.256  65.811  11.080  0.00  0.00     0.022 C 
ATOM      2  H14 HN4 d          26.160  66.871  10.799  0.00  0.00     0.048 H 
ATOM      3  H15 HN4 d          27.027  65.706  11.858  0.00  0.00     0.048 H 
ENDROOT
BRANCH   1   4
ATOM      4  C10 HN4 d          26.696  65.021   9.850  0.00  0.00     0.161 C 
ATOM      5  O10 HN4 d          26.147  63.988   9.472  0.00  0.00    -0.292 OA
BRANCH   4   6
ATOM      6  C11 HN4 d          27.914  65.493   9.113  0.00  0.00     0.010 A 
ATOM      7  C12 HN4 d          29.172  65.469   9.714  0.00  0.00    -0.069 A 
ATOM      8  C13 HN4 d          30.303  65.891   9.007  0.00  0.00    -0.075 A 
ATOM      9  H1  HN4 d          29.275  65.120  10.735  0.00  0.00     0.085 H 
ATOM     10  C14 HN4 d          30.184  66.355   7.690  0.00  0.00    -0.051 A 
ATOM     11  H2  HN4 d          31.277  65.860   9.482  0.00  0.00     0.084 H 
ATOM     12  C15 HN4 d          28.921  66.374   7.097  0.00  0.00    -0.075 A 
ATOM     13  C16 HN4 d          27.787  65.955   7.797  0.00  0.00    -0.069 A 
ATOM     14  H12 HN4 d          28.818  66.719   6.075  0.00  0.00     0.084 H 
ATOM     15  H13 HN4 d          26.813  65.987   7.324  0.00  0.00     0.085 H 
BRANCH  10  16
ATOM     16  C17 HN4 d          31.430  66.812   6.948  0.00  0.00    -0.024 C 
BRANCH  16  17
ATOM     17  C18 HN4 d          32.493  67.231   7.966  0.00  0.00    -0.066 C 
ATOM     18  H3  HN4 d          32.082  67.143   8.982  0.00  0.00     0.028 H 
ATOM     19  H4  HN4 d          32.789  68.274   7.778  0.00  0.00     0.028 H 
ATOM     20  H5  HN4 d          33.372  66.577   7.868  0.00  0.00     0.028 H 
ENDBRANCH  16  17
BRANCH  16  21
ATOM     21  C19 HN4 d          32.056  65.675   6.133  0.00  0.00    -0.066 C 
ATOM     22  H6  HN4 d          31.542  65.592   5.164  0.00  0.00     0.028 H 
ATOM     23  H7  HN4 d          31.954  64.729   6.684  0.00  0.00     0.028 H 
ATOM     24  H8  HN4 d          33.122  65.888   5.964  0.00  0.00     0.028 H 
ENDBRANCH  16  21
BRANCH  16  25
ATOM     25  C20 HN4 d          31.053  67.984   6.041  0.00  0.00    -0.066 C 
ATOM     26  H9  HN4 d          30.002  67.883   5.730  0.00  0.00     0.028 H 
ATOM     27  H10 HN4 d          31.700  67.982   5.151  0.00  0.00     0.028 H 
ATOM     28  H11 HN4 d          31.184  68.929   6.588  0.00  0.00     0.028 H 
ENDBRANCH  16  25
ENDBRANCH  10  16
ENDBRANCH   4   6
ENDBRANCH   1   4
BRANCH   1  29
ATOM     29  C5  HN4 d          24.920  65.338  11.654  0.00  0.00     0.111 C 
ATOM     30  N4  HN4 d          23.770  66.149  11.165  0.00  0.00    -0.055 N 
ATOM     31  C3  HN4 d          23.625  66.287   9.689  0.00  0.00     0.110 C 
ATOM     32  C8A HN4 d          23.736  67.558  11.664  0.00  0.00     0.155 C 
ATOM     33  H17 HN4 d          22.946  65.679  11.508  0.00  0.00     0.281 HD
ATOM     34  C2  HN4 d          22.581  67.411   9.563  0.00  0.00     0.085 C 
ATOM     35  H18 HN4 d          23.261  65.354   9.236  0.00  0.00     0.080 H 
ATOM     36  H19 HN4 d          24.578  66.575   9.221  0.00  0.00     0.080 H 
ATOM     37  C1  HN4 d          22.552  68.156  10.905  0.00  0.00     0.092 C 
ATOM     38  H20 HN4 d          22.882  68.105   8.764  0.00  0.00     0.089 H 
ATOM     39  H22 HN4 d          22.698  69.237  10.758  0.00  0.00     0.090 H 
ATOM     40  C8  HN4 d          23.699  67.608  13.184  0.00  0.00     0.066 C 
ATOM     41  H24 HN4 d          24.650  68.084  11.351  0.00  0.00     0.093 H 
ATOM     42  C7  HN4 d          24.867  66.796  13.765  0.00  0.00    -0.037 C 
ATOM     43  H25 HN4 d          22.747  67.184  13.537  0.00  0.00     0.086 H 
ATOM     44  C6  HN4 d          24.874  65.369  13.196  0.00  0.00    -0.035 C 
ATOM     45  H27 HN4 d          24.763  66.747  14.859  0.00  0.00     0.036 H 
ATOM     46  H28 HN4 d          25.814  67.291  13.509  0.00  0.00     0.036 H 
ATOM     47  H29 HN4 d          25.758  64.841  13.585  0.00  0.00     0.036 H 
ATOM     48  H30 HN4 d          23.963  64.853  13.531  0.00  0.00     0.036 H 
ATOM     49  H16 HN4 d          24.776  64.298  11.326  0.00  0.00     0.085 H 
BRANCH  34  50
ATOM     50  O2  HN4 d          21.282  66.871   9.248  0.00  0.00    -0.391 OA
ATOM     51  H21 HN4 d          21.126  66.948   8.315  0.00  0.00     0.210 HD
ENDBRANCH  34  50
BRANCH  37  52
ATOM     52  O1  HN4 d          21.280  67.938  11.574  0.00  0.00    -0.391 OA
ATOM     53  H23 HN4 d          20.596  67.835  10.924  0.00  0.00     0.210 HD
ENDBRANCH  37  52
BRANCH  40  54
ATOM     54  O8  HN4 d          23.810  68.958  13.628  0.00  0.00    -0.393 OA
ATOM     55  H26 HN4 d          23.660  69.544  12.897  0.00  0.00     0.210 HD
ENDBRANCH  40  54
ENDBRANCH   1  29
TORSDOF 10
ENDMDL
