MODEL 1
REMARK VINA RESULT:     -10.8      0.000      0.000
REMARK  13 active torsions:
REMARK  status: ('A' for Active; 'I' for Inactive)
REMARK    1  A    between atoms: C_1  and  CA_4 
REMARK       I    between atoms: NAV_21  and  C_1 
REMARK    2  A    between atoms: CAH_9  and  CAL_13 
REMARK    3  A    between atoms: CAL_13  and  CAT_20 
REMARK    4  A    between atoms: CAL_13  and  CBZ_50 
REMARK    5  A    between atoms: CAL_13  and  CCA_51 
REMARK    6  A    between atoms: CAR_18  and  CAS_19 
REMARK    7  A    between atoms: CAZ_24  and  CAR_18 
REMARK    8  A    between atoms: CAX_22  and  NAV_21 
REMARK    9  A    between atoms: CAX_22  and  CAY_23 
REMARK       I    between atoms: CAY_23  and  NBK_35 
REMARK   10  A    between atoms: NBK_35  and  SBM_37 
REMARK   11  A    between atoms: SBM_37  and  CBN_38 
REMARK   12  A    between atoms: CBV_46  and  CBX_48 
REMARK   13  A    between atoms: CBV_46  and  CBY_49 
ROOT
ATOM      1  N   SU3 d         -15.015  -9.681  13.532  0.00  0.00    -0.334 N 
ATOM      2  CA  SU3 d         -13.597  -9.708  13.967  0.00  0.00     0.094 C 
ATOM      3  CB  SU3 d         -12.908 -10.532  12.898  0.00  0.00    -0.011 C 
ATOM      4  CG  SU3 d         -14.002 -11.534  12.480  0.00  0.00     0.067 C 
ATOM      5  CAF SU3 d         -15.950  -8.958  14.144  0.00  0.00     0.244 C 
ATOM      6  OAG SU3 d         -15.622  -8.208  15.071  0.00  0.00    -0.271 OA
ATOM      7  CAH SU3 d         -17.374  -8.928  13.604  0.00  0.00     0.098 C 
ATOM      8  NAI SU3 d         -18.243  -9.229  14.730  0.00  0.00    -0.323 N 
ATOM      9  CAJ SU3 d         -18.802 -10.415  14.863  0.00  0.00     0.361 C 
ATOM     10  OAK SU3 d         -19.551 -10.539  15.980  0.00  0.00    -0.303 OA
ATOM     11  OAM SU3 d         -18.700 -11.331  14.048  0.00  0.00    -0.238 OA
ATOM     12  CAO SU3 d         -13.406 -13.564  13.575  0.00  0.00     0.371 C 
ATOM     13  OAP SU3 d         -12.535 -13.762  12.725  0.00  0.00    -0.238 OA
ATOM     14  NAQ SU3 d         -13.552 -14.374  14.576  0.00  0.00    -0.278 N 
ATOM     15  CBB SU3 d         -12.846 -15.628  14.854  0.00  0.00     0.000 A 
ATOM     16  CBC SU3 d         -13.386 -16.097  16.172  0.00  0.00    -0.008 A 
ATOM     17  CBD SU3 d         -14.343 -15.192  16.625  0.00  0.00    -0.002 A 
ATOM     18  CBE SU3 d         -14.530 -14.071  15.629  0.00  0.00     0.001 A 
ATOM     19  CBF SU3 d         -13.061 -17.213  16.929  0.00  0.00    -0.071 A 
ATOM     20  CBG SU3 d         -13.700 -17.409  18.137  0.00  0.00    -0.082 A 
ATOM     21  CBH SU3 d         -14.663 -16.504  18.580  0.00  0.00    -0.076 A 
ATOM     22  CBI SU3 d         -15.007 -15.368  17.834  0.00  0.00    -0.046 A 
ATOM     23  CBJ SU3 d         -16.030 -14.335  18.360  0.00  0.00    -0.040 C 
ATOM     24  CBS SU3 d         -17.425 -14.789  18.679  0.00  0.00    -0.061 C 
ATOM     25  CBT SU3 d         -18.254 -13.513  18.858  0.00  0.00    -0.064 C 
ATOM     26  CBU SU3 d         -18.674 -12.919  17.507  0.00  0.00    -0.057 C 
ATOM     27  CBV SU3 d         -20.062 -12.290  17.553  0.00  0.00    -0.025 C 
ATOM     28  CBW SU3 d         -20.314 -11.733  16.184  0.00  0.00     0.037 C 
ATOM     29  CD1 SU3 d         -15.245 -10.655  12.429  0.00  0.00     0.023 C 
ATOM     30  OD2 SU3 d         -14.202 -12.478  13.544  0.00  0.00    -0.296 OA
ATOM     31  H1  SU3 d         -13.476 -10.168  14.958  0.00  0.00     0.088 H 
ATOM     32  H2  SU3 d         -12.029 -11.053  13.304  0.00  0.00     0.040 H 
ATOM     33  H3  SU3 d         -12.602  -9.904  12.048  0.00  0.00     0.040 H 
ATOM     34  H4  SU3 d         -13.782 -12.032  11.524  0.00  0.00     0.086 H 
ATOM     35  H5  SU3 d         -17.480  -9.720  12.849  0.00  0.00     0.088 H 
ATOM     36  H6  SU3 d         -18.420  -8.524  15.416  0.00  0.00     0.165 HD
ATOM     37  H19 SU3 d         -12.091 -16.114  14.238  0.00  0.00     0.113 H 
ATOM     38  H20 SU3 d         -15.227 -13.235  15.679  0.00  0.00     0.113 H 
ATOM     39  H21 SU3 d         -12.317 -17.919  16.578  0.00  0.00     0.084 H 
ATOM     40  H22 SU3 d         -13.452 -18.272  18.743  0.00  0.00     0.083 H 
ATOM     41  H23 SU3 d         -15.158 -16.682  19.528  0.00  0.00     0.084 H 
ATOM     42  H24 SU3 d         -16.113 -13.547  17.597  0.00  0.00     0.040 H 
ATOM     43  H25 SU3 d         -15.611 -13.908  19.283  0.00  0.00     0.040 H 
ATOM     44  H32 SU3 d         -17.433 -15.382  19.606  0.00  0.00     0.033 H 
ATOM     45  H33 SU3 d         -17.829 -15.394  17.854  0.00  0.00     0.033 H 
ATOM     46  H34 SU3 d         -17.653 -12.770  19.403  0.00  0.00     0.033 H 
ATOM     47  H35 SU3 d         -19.157 -13.751  19.439  0.00  0.00     0.033 H 
ATOM     48  H36 SU3 d         -18.675 -13.721  16.753  0.00  0.00     0.034 H 
ATOM     49  H37 SU3 d         -17.946 -12.147  17.219  0.00  0.00     0.034 H 
ATOM     50  H38 SU3 d         -20.026 -12.481  15.430  0.00  0.00     0.076 H 
ATOM     51  H39 SU3 d         -21.384 -11.501  16.079  0.00  0.00     0.076 H 
ATOM     52  H52 SU3 d         -15.327 -10.142  11.459  0.00  0.00     0.068 H 
ATOM     53  H53 SU3 d         -16.154 -11.248  12.608  0.00  0.00     0.068 H 
ENDROOT
BRANCH   2  54
ATOM     54  C   SU3 d         -13.112  -8.248  13.991  0.00  0.00     0.241 C 
ATOM     55  O   SU3 d         -13.070  -7.548  12.973  0.00  0.00    -0.271 OA
ATOM     56  NAV SU3 d         -12.654  -7.829  15.164  0.00  0.00    -0.341 N 
ATOM     57  H15 SU3 d         -12.483  -8.506  15.880  0.00  0.00     0.163 HD
BRANCH  56  58
ATOM     58  CAX SU3 d         -12.389  -6.429  15.456  0.00  0.00     0.119 A 
ATOM     59  CAZ SU3 d         -13.698  -5.582  15.534  0.00  0.00    -0.018 A 
ATOM     60  CBA SU3 d         -12.947  -5.928  16.797  0.00  0.00    -0.027 A 
ATOM     61  H16 SU3 d         -14.671  -6.040  15.305  0.00  0.00     0.044 H 
ATOM     62  H17 SU3 d         -12.415  -5.139  17.349  0.00  0.00     0.038 H 
ATOM     63  H18 SU3 d         -13.380  -6.645  17.510  0.00  0.00     0.038 H 
BRANCH  58  64
ATOM     64  CAY SU3 d         -11.059  -5.826  15.030  0.00  0.00     0.259 C 
ATOM     65  NBK SU3 d         -10.343  -6.530  14.198  0.00  0.00    -0.252 N 
ATOM     66  H26 SU3 d         -10.636  -7.429  13.873  0.00  0.00     0.181 HD
ATOM     67  OBL SU3 d         -10.728  -4.746  15.512  0.00  0.00    -0.270 OA
BRANCH  65  68
ATOM     68  SBM SU3 d          -8.974  -5.868  13.733  0.00  0.00     0.237 S 
ATOM     69  OBO SU3 d          -9.202  -4.713  12.835  0.00  0.00    -0.205 OA
ATOM     70  OBP SU3 d          -8.076  -5.554  14.847  0.00  0.00    -0.205 OA
BRANCH  68  71
ATOM     71  CBN SU3 d          -8.195  -7.138  12.742  0.00  0.00     0.063 A 
ATOM     72  CBQ SU3 d          -6.756  -6.831  12.312  0.00  0.00    -0.046 A 
ATOM     73  CBR SU3 d          -7.040  -7.819  13.441  0.00  0.00    -0.046 A 
ATOM     74  H28 SU3 d          -6.310  -5.851  12.535  0.00  0.00     0.035 H 
ATOM     75  H29 SU3 d          -6.379  -7.193  11.343  0.00  0.00     0.035 H 
ATOM     76  H30 SU3 d          -6.862  -8.894  13.287  0.00  0.00     0.035 H 
ATOM     77  H31 SU3 d          -6.792  -7.551  14.479  0.00  0.00     0.035 H 
ATOM     78  H27 SU3 d          -8.905  -7.674  12.095  0.00  0.00     0.066 H 
ENDBRANCH  68  71
ENDBRANCH  65  68
ENDBRANCH  58  64
BRANCH  59  79
ATOM     79  CAR SU3 d         -13.678  -4.121  15.100  0.00  0.00    -0.062 C 
ATOM     80  H7  SU3 d         -14.226  -3.521  15.841  0.00  0.00     0.033 H 
ATOM     81  H8  SU3 d         -12.635  -3.777  15.049  0.00  0.00     0.033 H 
BRANCH  79  82
ATOM     82  CAS SU3 d         -14.330  -3.939  13.732  0.00  0.00    -0.076 C 
ATOM     83  H9  SU3 d         -14.299  -2.876  13.450  0.00  0.00     0.027 H 
ATOM     84  H10 SU3 d         -15.375  -4.277  13.777  0.00  0.00     0.027 H 
ATOM     85  H11 SU3 d         -13.784  -4.533  12.985  0.00  0.00     0.027 H 
ENDBRANCH  79  82
ENDBRANCH  59  79
ENDBRANCH  56  58
ENDBRANCH   2  54
BRANCH   7  86
ATOM     86  CAL SU3 d         -17.751  -7.583  12.928  0.00  0.00    -0.022 C 
BRANCH  86  87
ATOM     87  CAT SU3 d         -19.020  -7.793  12.075  0.00  0.00    -0.067 C 
ATOM     88  H12 SU3 d         -19.296  -6.845  11.590  0.00  0.00     0.028 H 
ATOM     89  H13 SU3 d         -19.844  -8.130  12.721  0.00  0.00     0.028 H 
ATOM     90  H14 SU3 d         -18.823  -8.555  11.306  0.00  0.00     0.028 H 
ENDBRANCH  86  87
BRANCH  86  91
ATOM     91  CBZ SU3 d         -18.021  -6.461  13.921  0.00  0.00    -0.067 C 
ATOM     92  H46 SU3 d         -17.127  -6.295  14.539  0.00  0.00     0.028 H 
ATOM     93  H47 SU3 d         -18.868  -6.739  14.567  0.00  0.00     0.028 H 
ATOM     94  H48 SU3 d         -18.265  -5.537  13.374  0.00  0.00     0.028 H 
ENDBRANCH  86  91
BRANCH  86  95
ATOM     95  CCA SU3 d         -16.609  -7.169  11.984  0.00  0.00    -0.067 C 
ATOM     96  H49 SU3 d         -16.414  -7.980  11.267  0.00  0.00     0.028 H 
ATOM     97  H50 SU3 d         -15.700  -6.973  12.573  0.00  0.00     0.028 H 
ATOM     98  H51 SU3 d         -16.896  -6.258  11.439  0.00  0.00     0.028 H 
ENDBRANCH  86  95
ENDBRANCH   7  86
BRANCH  27  99
ATOM     99  CBX SU3 d         -21.144 -13.352  17.799  0.00  0.00    -0.067 C 
ATOM    100  H40 SU3 d         -21.004 -13.795  18.796  0.00  0.00     0.028 H 
ATOM    101  H41 SU3 d         -21.065 -14.139  17.033  0.00  0.00     0.028 H 
ATOM    102  H42 SU3 d         -22.137 -12.883  17.742  0.00  0.00     0.028 H 
ENDBRANCH  27  99
BRANCH  27 103
ATOM    103  CBY SU3 d         -20.134 -11.186  18.629  0.00  0.00    -0.067 C 
ATOM    104  H43 SU3 d         -19.353 -10.435  18.437  0.00  0.00     0.028 H 
ATOM    105  H44 SU3 d         -19.978 -11.631  19.622  0.00  0.00     0.028 H 
ATOM    106  H45 SU3 d         -21.123 -10.704  18.593  0.00  0.00     0.028 H 
ENDBRANCH  27 103
TORSDOF 13
ENDMDL
