MODEL 1
REMARK VINA RESULT:     -10.9      0.000      0.000
REMARK  13 active torsions:
REMARK  status: ('A' for Active; 'I' for Inactive)
REMARK    1  A    between atoms: C_1  and  CA_4 
REMARK       I    between atoms: NAV_21  and  C_1 
REMARK    2  A    between atoms: CAH_9  and  CAL_13 
REMARK    3  A    between atoms: CAL_13  and  CAT_20 
REMARK    4  A    between atoms: CAL_13  and  CBZ_50 
REMARK    5  A    between atoms: CAL_13  and  CCA_51 
REMARK    6  A    between atoms: CAR_18  and  CAS_19 
REMARK    7  A    between atoms: CAZ_24  and  CAR_18 
REMARK    8  A    between atoms: CAX_22  and  NAV_21 
REMARK    9  A    between atoms: CAX_22  and  CAY_23 
REMARK       I    between atoms: CAY_23  and  NBK_35 
REMARK   10  A    between atoms: NBK_35  and  SBM_37 
REMARK   11  A    between atoms: SBM_37  and  CBN_38 
REMARK   12  A    between atoms: CBV_46  and  CBX_48 
REMARK   13  A    between atoms: CBV_46  and  CBY_49 
ROOT
ATOM      1  N   SU3 d         -15.066  -9.720  13.610  0.00  0.00    -0.334 N 
ATOM      2  CA  SU3 d         -13.674  -9.749  14.119  0.00  0.00     0.094 C 
ATOM      3  CB  SU3 d         -12.946 -10.630  13.124  0.00  0.00    -0.011 C 
ATOM      4  CG  SU3 d         -14.034 -11.632  12.692  0.00  0.00     0.067 C 
ATOM      5  CAF SU3 d         -16.019  -8.956  14.141  0.00  0.00     0.244 C 
ATOM      6  OAG SU3 d         -15.726  -8.171  15.051  0.00  0.00    -0.271 OA
ATOM      7  CAH SU3 d         -17.412  -8.927  13.527  0.00  0.00     0.098 C 
ATOM      8  NAI SU3 d         -18.343  -9.166  14.617  0.00  0.00    -0.323 N 
ATOM      9  CAJ SU3 d         -18.930 -10.335  14.770  0.00  0.00     0.361 C 
ATOM     10  OAK SU3 d         -19.737 -10.399  15.851  0.00  0.00    -0.303 OA
ATOM     11  OAM SU3 d         -18.802 -11.287  14.001  0.00  0.00    -0.238 OA
ATOM     12  CAO SU3 d         -13.532 -13.621  13.902  0.00  0.00     0.371 C 
ATOM     13  OAP SU3 d         -12.621 -13.871  13.108  0.00  0.00    -0.238 OA
ATOM     14  NAQ SU3 d         -13.744 -14.385  14.928  0.00  0.00    -0.278 N 
ATOM     15  CBB SU3 d         -13.076 -15.637  15.296  0.00  0.00     0.000 A 
ATOM     16  CBC SU3 d         -13.692 -16.040  16.602  0.00  0.00    -0.008 A 
ATOM     17  CBD SU3 d         -14.654 -15.100  16.966  0.00  0.00    -0.002 A 
ATOM     18  CBE SU3 d         -14.770 -14.021  15.914  0.00  0.00     0.001 A 
ATOM     19  CBF SU3 d         -13.426 -17.127  17.422  0.00  0.00    -0.071 A 
ATOM     20  CBG SU3 d         -14.131 -17.260  18.601  0.00  0.00    -0.082 A 
ATOM     21  CBH SU3 d         -15.098 -16.321  18.955  0.00  0.00    -0.076 A 
ATOM     22  CBI SU3 d         -15.383 -15.214  18.144  0.00  0.00    -0.046 A 
ATOM     23  CBJ SU3 d         -16.413 -14.143  18.572  0.00  0.00    -0.040 C 
ATOM     24  CBS SU3 d         -17.831 -14.560  18.836  0.00  0.00    -0.061 C 
ATOM     25  CBT SU3 d         -18.645 -13.265  18.917  0.00  0.00    -0.064 C 
ATOM     26  CBU SU3 d         -18.984 -12.724  17.521  0.00  0.00    -0.057 C 
ATOM     27  CBV SU3 d         -20.360 -12.071  17.468  0.00  0.00    -0.025 C 
ATOM     28  CBW SU3 d         -20.532 -11.571  16.065  0.00  0.00     0.037 C 
ATOM     29  CD1 SU3 d         -15.257 -10.737  12.539  0.00  0.00     0.023 C 
ATOM     30  OD2 SU3 d         -14.305 -12.526  13.784  0.00  0.00    -0.296 OA
ATOM     31  H1  SU3 d         -13.612 -10.169  15.134  0.00  0.00     0.088 H 
ATOM     32  H2  SU3 d         -12.098 -11.147  13.597  0.00  0.00     0.040 H 
ATOM     33  H3  SU3 d         -12.585 -10.044  12.266  0.00  0.00     0.040 H 
ATOM     34  H4  SU3 d         -13.774 -12.174  11.771  0.00  0.00     0.086 H 
ATOM     35  H5  SU3 d         -17.493  -9.750  12.801  0.00  0.00     0.088 H 
ATOM     36  H6  SU3 d         -18.543  -8.428  15.262  0.00  0.00     0.165 HD
ATOM     37  H19 SU3 d         -12.299 -16.161  14.741  0.00  0.00     0.113 H 
ATOM     38  H20 SU3 d         -15.453 -13.174  15.892  0.00  0.00     0.113 H 
ATOM     39  H21 SU3 d         -12.678 -17.859  17.141  0.00  0.00     0.084 H 
ATOM     40  H22 SU3 d         -13.930 -18.100  19.256  0.00  0.00     0.083 H 
ATOM     41  H23 SU3 d         -15.645 -16.450  19.883  0.00  0.00     0.084 H 
ATOM     42  H24 SU3 d         -16.443 -13.387  17.773  0.00  0.00     0.040 H 
ATOM     43  H25 SU3 d         -16.035 -13.683  19.496  0.00  0.00     0.040 H 
ATOM     44  H32 SU3 d         -17.897 -15.112  19.785  0.00  0.00     0.033 H 
ATOM     45  H33 SU3 d         -18.202 -15.194  18.017  0.00  0.00     0.033 H 
ATOM     46  H34 SU3 d         -18.059 -12.509  19.460  0.00  0.00     0.033 H 
ATOM     47  H35 SU3 d         -19.581 -13.464  19.459  0.00  0.00     0.033 H 
ATOM     48  H36 SU3 d         -18.960 -13.558  16.804  0.00  0.00     0.034 H 
ATOM     49  H37 SU3 d         -18.228 -11.977  17.240  0.00  0.00     0.034 H 
ATOM     50  H38 SU3 d         -20.218 -12.355  15.360  0.00  0.00     0.076 H 
ATOM     51  H39 SU3 d         -21.591 -11.327  15.894  0.00  0.00     0.076 H 
ATOM     52  H52 SU3 d         -15.279 -10.265  11.545  0.00  0.00     0.068 H 
ATOM     53  H53 SU3 d         -16.185 -11.306  12.695  0.00  0.00     0.068 H 
ENDROOT
BRANCH   2  54
ATOM     54  C   SU3 d         -13.165  -8.298  14.107  0.00  0.00     0.241 C 
ATOM     55  O   SU3 d         -13.098  -7.629  13.069  0.00  0.00    -0.271 OA
ATOM     56  NAV SU3 d         -12.713  -7.852  15.273  0.00  0.00    -0.341 N 
ATOM     57  H15 SU3 d         -12.562  -8.510  16.010  0.00  0.00     0.163 HD
BRANCH  56  58
ATOM     58  CAX SU3 d         -12.428  -6.449  15.527  0.00  0.00     0.119 A 
ATOM     59  CAZ SU3 d         -13.723  -5.580  15.572  0.00  0.00    -0.018 A 
ATOM     60  CBA SU3 d         -12.987  -5.901  16.850  0.00  0.00    -0.027 A 
ATOM     61  H16 SU3 d         -14.702  -6.029  15.349  0.00  0.00     0.044 H 
ATOM     62  H17 SU3 d         -12.446  -5.105  17.382  0.00  0.00     0.038 H 
ATOM     63  H18 SU3 d         -13.435  -6.592  17.580  0.00  0.00     0.038 H 
BRANCH  58  64
ATOM     64  CAY SU3 d         -11.086  -5.879  15.093  0.00  0.00     0.259 C 
ATOM     65  NBK SU3 d         -10.503  -6.469  14.086  0.00  0.00    -0.252 N 
ATOM     66  H26 SU3 d         -10.902  -7.267  13.634  0.00  0.00     0.181 HD
ATOM     67  OBL SU3 d         -10.621  -4.935  15.727  0.00  0.00    -0.270 OA
BRANCH  65  68
ATOM     68  SBM SU3 d          -9.120  -5.836  13.621  0.00  0.00     0.237 S 
ATOM     69  OBO SU3 d          -9.323  -4.688  12.709  0.00  0.00    -0.205 OA
ATOM     70  OBP SU3 d          -8.223  -5.526  14.736  0.00  0.00    -0.205 OA
BRANCH  68  71
ATOM     71  CBN SU3 d          -8.359  -7.131  12.648  0.00  0.00     0.063 A 
ATOM     72  CBQ SU3 d          -6.941  -6.821  12.155  0.00  0.00    -0.046 A 
ATOM     73  CBR SU3 d          -7.170  -7.771  13.329  0.00  0.00    -0.046 A 
ATOM     74  H28 SU3 d          -6.502  -5.828  12.327  0.00  0.00     0.035 H 
ATOM     75  H29 SU3 d          -6.594  -7.213  11.187  0.00  0.00     0.035 H 
ATOM     76  H30 SU3 d          -6.983  -8.848  13.207  0.00  0.00     0.035 H 
ATOM     77  H31 SU3 d          -6.890  -7.462  14.347  0.00  0.00     0.035 H 
ATOM     78  H27 SU3 d          -9.085  -7.700  12.047  0.00  0.00     0.066 H 
ENDBRANCH  68  71
ENDBRANCH  65  68
ENDBRANCH  58  64
BRANCH  59  79
ATOM     79  CAR SU3 d         -13.678  -4.133  15.097  0.00  0.00    -0.062 C 
ATOM     80  H7  SU3 d         -13.132  -3.530  15.838  0.00  0.00     0.033 H 
ATOM     81  H8  SU3 d         -13.155  -4.089  14.131  0.00  0.00     0.033 H 
BRANCH  79  82
ATOM     82  CAS SU3 d         -15.082  -3.559  14.929  0.00  0.00    -0.076 C 
ATOM     83  H9  SU3 d         -15.239  -3.277  13.877  0.00  0.00     0.027 H 
ATOM     84  H10 SU3 d         -15.194  -2.671  15.568  0.00  0.00     0.027 H 
ATOM     85  H11 SU3 d         -15.825  -4.316  15.220  0.00  0.00     0.027 H 
ENDBRANCH  79  82
ENDBRANCH  59  79
ENDBRANCH  56  58
ENDBRANCH   2  54
BRANCH   7  86
ATOM     86  CAL SU3 d         -17.730  -7.607  12.774  0.00  0.00    -0.022 C 
BRANCH  86  87
ATOM     87  CAT SU3 d         -18.380  -6.615  13.761  0.00  0.00    -0.067 C 
ATOM     88  H12 SU3 d         -18.969  -7.172  14.505  0.00  0.00     0.028 H 
ATOM     89  H13 SU3 d         -19.040  -5.929  13.210  0.00  0.00     0.028 H 
ATOM     90  H14 SU3 d         -17.595  -6.038  14.272  0.00  0.00     0.028 H 
ENDBRANCH  86  87
BRANCH  86  91
ATOM     91  CBZ SU3 d         -16.499  -6.944  12.169  0.00  0.00    -0.067 C 
ATOM     92  H46 SU3 d         -16.147  -6.145  12.838  0.00  0.00     0.028 H 
ATOM     93  H47 SU3 d         -16.758  -6.515  11.190  0.00  0.00     0.028 H 
ATOM     94  H48 SU3 d         -15.703  -7.693  12.043  0.00  0.00     0.028 H 
ENDBRANCH  86  91
BRANCH  86  95
ATOM     95  CCA SU3 d         -18.749  -7.907  11.663  0.00  0.00    -0.067 C 
ATOM     96  H49 SU3 d         -18.227  -7.978  10.697  0.00  0.00     0.028 H 
ATOM     97  H50 SU3 d         -19.493  -7.097  11.619  0.00  0.00     0.028 H 
ATOM     98  H51 SU3 d         -19.256  -8.859  11.877  0.00  0.00     0.028 H 
ENDBRANCH  86  95
ENDBRANCH   7  86
BRANCH  27  99
ATOM     99  CBX SU3 d         -21.472 -13.105  17.702  0.00  0.00    -0.067 C 
ATOM    100  H40 SU3 d         -22.090 -13.191  16.795  0.00  0.00     0.028 H 
ATOM    101  H41 SU3 d         -22.102 -12.782  18.544  0.00  0.00     0.028 H 
ATOM    102  H42 SU3 d         -21.023 -14.082  17.932  0.00  0.00     0.028 H 
ENDBRANCH  27  99
BRANCH  27 103
ATOM    103  CBY SU3 d         -20.468 -10.921  18.491  0.00  0.00    -0.067 C 
ATOM    104  H43 SU3 d         -20.772  -9.998  17.974  0.00  0.00     0.028 H 
ATOM    105  H44 SU3 d         -19.492 -10.766  18.973  0.00  0.00     0.028 H 
ATOM    106  H45 SU3 d         -21.218 -11.178  19.254  0.00  0.00     0.028 H 
ENDBRANCH  27 103
TORSDOF 13
ENDMDL
