REMARK  2 active torsions:
REMARK  status: ('A' for Active; 'I' for Inactive)
REMARK    1  A    between atoms: C0_1  and  C1_2 
REMARK    2  A    between atoms: C0_1  and  N1_3 
ROOT
ATOM      1  C1  ESI d           8.434   0.456  25.363  0.00  0.00     0.049 A 
ATOM      2  S2  ESI d           9.145   0.860  23.802  0.00  0.00    -0.086 SA
ATOM      3  C3  ESI d           9.262   2.553  24.134  0.00  0.00     0.017 A 
ATOM      4  C4  ESI d           8.761   2.766  25.410  0.00  0.00    -0.001 A 
ATOM      5  C5  ESI d           8.319   1.644  26.056  0.00  0.00    -0.050 A 
ATOM      6  C6  ESI d           9.735   3.582  23.353  0.00  0.00    -0.066 A 
ATOM      7  C7  ESI d           9.712   4.867  23.871  0.00  0.00    -0.080 A 
ATOM      8  C8  ESI d           9.223   5.095  25.145  0.00  0.00    -0.066 A 
ATOM      9  C9  ESI d           8.748   4.061  25.931  0.00  0.00     0.018 A 
ATOM     10  I9  ESI d           8.122   4.589  27.789  0.00  0.00    -0.044 I 
ATOM     11  H5  ESI d           7.900   1.686  27.060  0.00  0.00     0.087 H 
ATOM     12  H6  ESI d          10.117   3.392  22.356  0.00  0.00     0.085 H 
ATOM     13  H7  ESI d          10.078   5.696  23.276  0.00  0.00     0.083 H 
ATOM     14  H8  ESI d           9.212   6.106  25.536  0.00  0.00     0.085 H 
ENDROOT
BRANCH   1  15
ATOM     15  C0  ESI d           8.114  -0.834  25.732  0.00  0.00     0.109 C 
ATOM     16  N2  ESI d           8.443  -1.762  24.881  0.00  0.00    -0.385 N 
ATOM     17  H3  ESI d           8.913  -1.510  24.000  0.00  0.00     0.157 HD
ATOM     18  H4  ESI d           8.234  -2.749  25.089  0.00  0.00     0.157 HD
BRANCH  15  19
ATOM     19  N1  ESI d           7.520  -1.038  26.871  0.00  0.00    -0.385 N 
ATOM     20  H1  ESI d           7.275  -1.996  27.160  0.00  0.00     0.157 HD
ATOM     21  H2  ESI d           7.295  -0.242  27.484  0.00  0.00     0.157 HD
ENDBRANCH  15  19
ENDBRANCH   1  15
TORSDOF 2
