MODEL 1
REMARK VINA RESULT:      -6.6      0.000      0.000
REMARK  2 active torsions:
REMARK  status: ('A' for Active; 'I' for Inactive)
REMARK    1  A    between atoms: C0_1  and  C1_2 
REMARK    2  A    between atoms: C0_1  and  N1_3 
ROOT
ATOM      1  C1  ESI d           8.545   0.716  25.354  0.00  0.00     0.049 A 
ATOM      2  S2  ESI d           9.247   1.273  23.836  0.00  0.00    -0.086 SA
ATOM      3  C3  ESI d           9.090   2.952  24.216  0.00  0.00     0.017 A 
ATOM      4  C4  ESI d           8.513   3.046  25.474  0.00  0.00    -0.001 A 
ATOM      5  C5  ESI d           8.223   1.850  26.071  0.00  0.00    -0.050 A 
ATOM      6  C6  ESI d           9.431   4.066  23.484  0.00  0.00    -0.066 A 
ATOM      7  C7  ESI d           9.191   5.315  24.033  0.00  0.00    -0.080 A 
ATOM      8  C8  ESI d           8.623   5.425  25.290  0.00  0.00    -0.066 A 
ATOM      9  C9  ESI d           8.281   4.306  26.027  0.00  0.00     0.018 A 
ATOM     10  I9  ESI d           7.509   4.674  27.869  0.00  0.00    -0.044 I 
ATOM     11  H5  ESI d           7.763   1.795  27.057  0.00  0.00     0.087 H 
ATOM     12  H6  ESI d           9.876   3.968  22.500  0.00  0.00     0.085 H 
ATOM     13  H7  ESI d           9.449   6.209  23.476  0.00  0.00     0.083 H 
ATOM     14  H8  ESI d           8.442   6.410  25.706  0.00  0.00     0.085 H 
ENDROOT
BRANCH   1  15
ATOM     15  C0  ESI d           8.412  -0.619  25.675  0.00  0.00     0.109 C 
ATOM     16  N2  ESI d           8.074  -0.872  26.906  0.00  0.00    -0.385 N 
ATOM     17  H3  ESI d           7.922  -0.097  27.568  0.00  0.00     0.157 HD
ATOM     18  H4  ESI d           7.957  -1.846  27.219  0.00  0.00     0.157 HD
BRANCH  15  19
ATOM     19  N1  ESI d           8.628  -1.516  24.758  0.00  0.00    -0.385 N 
ATOM     20  H1  ESI d           8.212  -1.406  23.822  0.00  0.00     0.157 HD
ATOM     21  H2  ESI d           9.214  -2.336  24.968  0.00  0.00     0.157 HD
ENDBRANCH  15  19
ENDBRANCH   1  15
TORSDOF 2
ENDMDL
MODEL 2
REMARK VINA RESULT:      -5.0      1.956      2.719
REMARK  2 active torsions:
REMARK  status: ('A' for Active; 'I' for Inactive)
REMARK    1  A    between atoms: C0_1  and  C1_2 
REMARK    2  A    between atoms: C0_1  and  N1_3 
ROOT
ATOM      1  C1  ESI d           8.602   0.793  24.759  0.00  0.00     0.049 A 
ATOM      2  S2  ESI d           8.207   0.899  26.474  0.00  0.00    -0.086 SA
ATOM      3  C3  ESI d           8.183   2.628  26.507  0.00  0.00     0.017 A 
ATOM      4  C4  ESI d           8.475   3.076  25.227  0.00  0.00    -0.001 A 
ATOM      5  C5  ESI d           8.700   2.092  24.303  0.00  0.00    -0.050 A 
ATOM      6  C6  ESI d           7.943   3.494  27.548  0.00  0.00    -0.066 A 
ATOM      7  C7  ESI d           7.989   4.856  27.296  0.00  0.00    -0.080 A 
ATOM      8  C8  ESI d           8.270   5.319  26.023  0.00  0.00    -0.066 A 
ATOM      9  C9  ESI d           8.511   4.449  24.976  0.00  0.00     0.018 A 
ATOM     10  I9  ESI d           8.853   5.320  23.174  0.00  0.00    -0.044 I 
ATOM     11  H5  ESI d           8.942   2.321  23.267  0.00  0.00     0.087 H 
ATOM     12  H6  ESI d           7.722   3.120  28.542  0.00  0.00     0.085 H 
ATOM     13  H7  ESI d           7.804   5.560  28.099  0.00  0.00     0.083 H 
ATOM     14  H8  ESI d           8.302   6.388  25.842  0.00  0.00     0.085 H 
ENDROOT
BRANCH   1  15
ATOM     15  C0  ESI d           8.740  -0.406  24.092  0.00  0.00     0.109 C 
ATOM     16  N2  ESI d           8.814  -0.325  22.796  0.00  0.00    -0.385 N 
ATOM     17  H3  ESI d           8.770   0.594  22.334  0.00  0.00     0.157 HD
ATOM     18  H4  ESI d           8.917  -1.180  22.231  0.00  0.00     0.157 HD
BRANCH  15  19
ATOM     19  N1  ESI d           8.785  -1.510  24.778  0.00  0.00    -0.385 N 
ATOM     20  H1  ESI d           7.983  -2.156  24.768  0.00  0.00     0.157 HD
ATOM     21  H2  ESI d           9.623  -1.739  25.331  0.00  0.00     0.157 HD
ENDBRANCH  15  19
ENDBRANCH   1  15
TORSDOF 2
ENDMDL
MODEL 3
REMARK VINA RESULT:      -4.8      2.121      2.906
REMARK  2 active torsions:
REMARK  status: ('A' for Active; 'I' for Inactive)
REMARK    1  A    between atoms: C0_1  and  C1_2 
REMARK    2  A    between atoms: C0_1  and  N1_3 
ROOT
ATOM      1  C1  ESI d           8.773   1.807  24.862  0.00  0.00     0.049 A 
ATOM      2  S2  ESI d           8.328   1.905  26.565  0.00  0.00    -0.086 SA
ATOM      3  C3  ESI d           8.056   3.612  26.541  0.00  0.00     0.017 A 
ATOM      4  C4  ESI d           8.308   4.060  25.253  0.00  0.00    -0.001 A 
ATOM      5  C5  ESI d           8.693   3.092  24.366  0.00  0.00    -0.050 A 
ATOM      6  C6  ESI d           7.670   4.465  27.549  0.00  0.00    -0.066 A 
ATOM      7  C7  ESI d           7.526   5.811  27.254  0.00  0.00    -0.080 A 
ATOM      8  C8  ESI d           7.766   6.273  25.972  0.00  0.00    -0.066 A 
ATOM      9  C9  ESI d           8.153   5.415  24.958  0.00  0.00     0.018 A 
ATOM     10  I9  ESI d           8.407   6.273  23.135  0.00  0.00    -0.044 I 
ATOM     11  H5  ESI d           8.924   3.323  23.327  0.00  0.00     0.087 H 
ATOM     12  H6  ESI d           7.483   4.093  28.551  0.00  0.00     0.085 H 
ATOM     13  H7  ESI d           7.223   6.505  28.031  0.00  0.00     0.083 H 
ATOM     14  H8  ESI d           7.649   7.329  25.758  0.00  0.00     0.085 H 
ENDROOT
BRANCH   1  15
ATOM     15  C0  ESI d           9.096   0.620  24.237  0.00  0.00     0.109 C 
ATOM     16  N2  ESI d          10.191   0.634  23.534  0.00  0.00    -0.385 N 
ATOM     17  H3  ESI d          10.754   1.495  23.474  0.00  0.00     0.157 HD
ATOM     18  H4  ESI d          10.495  -0.216  23.038  0.00  0.00     0.157 HD
BRANCH  15  19
ATOM     19  N1  ESI d           8.312  -0.407  24.382  0.00  0.00    -0.385 N 
ATOM     20  H1  ESI d           8.122  -1.027  23.582  0.00  0.00     0.157 HD
ATOM     21  H2  ESI d           7.881  -0.600  25.297  0.00  0.00     0.157 HD
ENDBRANCH  15  19
ENDBRANCH   1  15
TORSDOF 2
ENDMDL
MODEL 4
REMARK VINA RESULT:      -4.4      3.334      4.426
REMARK  2 active torsions:
REMARK  status: ('A' for Active; 'I' for Inactive)
REMARK    1  A    between atoms: C0_1  and  C1_2 
REMARK    2  A    between atoms: C0_1  and  N1_3 
ROOT
ATOM      1  C1  ESI d           8.194   4.127  26.025  0.00  0.00     0.049 A 
ATOM      2  S2  ESI d           8.949   4.678  24.531  0.00  0.00    -0.086 SA
ATOM      3  C3  ESI d           9.176   3.087  23.893  0.00  0.00     0.017 A 
ATOM      4  C4  ESI d           8.678   2.186  24.823  0.00  0.00    -0.001 A 
ATOM      5  C5  ESI d           8.160   2.749  25.957  0.00  0.00    -0.050 A 
ATOM      6  C6  ESI d           9.739   2.676  22.706  0.00  0.00    -0.066 A 
ATOM      7  C7  ESI d           9.798   1.317  22.440  0.00  0.00    -0.080 A 
ATOM      8  C8  ESI d           9.298   0.407  23.355  0.00  0.00    -0.066 A 
ATOM      9  C9  ESI d           8.732   0.819  24.547  0.00  0.00     0.018 A 
ATOM     10  I9  ESI d           8.009  -0.663  25.732  0.00  0.00    -0.044 I 
ATOM     11  H5  ESI d           7.745   2.144  26.762  0.00  0.00     0.087 H 
ATOM     12  H6  ESI d          10.126   3.398  21.996  0.00  0.00     0.085 H 
ATOM     13  H7  ESI d          10.237   0.967  21.513  0.00  0.00     0.083 H 
ATOM     14  H8  ESI d           9.352  -0.653  23.132  0.00  0.00     0.085 H 
ENDROOT
BRANCH   1  15
ATOM     15  C0  ESI d           7.737   4.991  26.999  0.00  0.00     0.109 C 
ATOM     16  N2  ESI d           7.194   4.430  28.040  0.00  0.00    -0.385 N 
ATOM     17  H3  ESI d           7.129   3.404  28.097  0.00  0.00     0.157 HD
ATOM     18  H4  ESI d           6.829   5.012  28.807  0.00  0.00     0.157 HD
BRANCH  15  19
ATOM     19  N1  ESI d           7.871   6.272  26.822  0.00  0.00    -0.385 N 
ATOM     20  H1  ESI d           7.852   6.909  27.632  0.00  0.00     0.157 HD
ATOM     21  H2  ESI d           7.996   6.651  25.873  0.00  0.00     0.157 HD
ENDBRANCH  15  19
ENDBRANCH   1  15
TORSDOF 2
ENDMDL
