REMARK  2 active torsions:
REMARK  status: ('A' for Active; 'I' for Inactive)
REMARK    1  A    between atoms: CG_8  and  CA_2 
REMARK    2  A    between atoms: NM_14  and  CG_8 
ROOT
ATOM      1  CG  MOL d          -7.676 -27.518 -13.996  0.00  0.00     0.154 C 
ATOM      2  CH  MOL d          -6.563 -26.559 -14.638  0.00  0.00    -0.029 C 
ATOM      3  CI  MOL d          -6.994 -25.121 -14.394  0.00  0.00    -0.062 C 
ATOM      4  CJ  MOL d          -6.905 -24.774 -12.892  0.00  0.00    -0.065 C 
ATOM      5  CK  MOL d          -7.730 -25.777 -12.062  0.00  0.00    -0.062 C 
ATOM      6  CL  MOL d          -7.421 -27.227 -12.463  0.00  0.00    -0.029 C 
ATOM      7  H8  MOL d          -6.484 -26.748 -15.719  0.00  0.00     0.037 H 
ATOM      8  H9  MOL d          -5.589 -26.744 -14.161  0.00  0.00     0.037 H 
ATOM      9  H10 MOL d          -8.032 -24.992 -14.734  0.00  0.00     0.033 H 
ATOM     10  H11 MOL d          -6.336 -24.445 -14.961  0.00  0.00     0.033 H 
ATOM     11  H12 MOL d          -7.298 -23.759 -12.730  0.00  0.00     0.033 H 
ATOM     12  H13 MOL d          -5.854 -24.816 -12.572  0.00  0.00     0.033 H 
ATOM     13  H14 MOL d          -8.800 -25.581 -12.225  0.00  0.00     0.033 H 
ATOM     14  H15 MOL d          -7.491 -25.642 -10.997  0.00  0.00     0.033 H 
ATOM     15  H16 MOL d          -6.364 -27.434 -12.239  0.00  0.00     0.037 H 
ATOM     16  H17 MOL d          -8.060 -27.897 -11.869  0.00  0.00     0.037 H 
ENDROOT
BRANCH   1  17
ATOM     17  NM  MOL d          -7.230 -29.010 -14.194  0.00  0.00    -0.058 N 
ATOM     18  CN  MOL d          -8.271 -30.070 -13.727  0.00  0.00     0.085 C 
ATOM     19  CO  MOL d          -7.773 -31.511 -13.933  0.00  0.00    -0.042 C 
ATOM     20  H19 MOL d          -8.476 -29.916 -12.657  0.00  0.00     0.076 H 
ATOM     21  H20 MOL d          -9.199 -29.931 -14.302  0.00  0.00     0.076 H 
ATOM     22  CP  MOL d          -7.330 -31.792 -15.369  0.00  0.00    -0.062 C 
ATOM     23  H21 MOL d          -6.919 -31.686 -13.262  0.00  0.00     0.035 H 
ATOM     24  H22 MOL d          -8.588 -32.203 -13.676  0.00  0.00     0.035 H 
ATOM     25  CQ  MOL d          -6.259 -30.755 -15.765  0.00  0.00    -0.042 C 
ATOM     26  H1  MOL d          -6.907 -32.805 -15.435  0.00  0.00     0.033 H 
ATOM     27  H2  MOL d          -8.193 -31.710 -16.046  0.00  0.00     0.033 H 
ATOM     28  CR  MOL d          -6.738 -29.329 -15.615  0.00  0.00     0.085 C 
ATOM     29  H23 MOL d          -5.979 -30.923 -16.816  0.00  0.00     0.035 H 
ATOM     30  H24 MOL d          -5.377 -30.898 -15.123  0.00  0.00     0.035 H 
ATOM     31  H25 MOL d          -5.906 -28.652 -15.859  0.00  0.00     0.076 H 
ATOM     32  H26 MOL d          -7.566 -29.161 -16.319  0.00  0.00     0.076 H 
ATOM     33  H18 MOL d          -6.431 -29.127 -13.591  0.00  0.00     0.281 HD
ENDBRANCH   1  17
BRANCH   1  34
ATOM     34  CA  MOL d          -9.162 -27.240 -14.529  0.00  0.00    -0.022 A 
ATOM     35  CF  MOL d         -10.290 -27.193 -13.611  0.00  0.00    -0.074 A 
ATOM     36  CE  MOL d         -11.617 -26.926 -14.051  0.00  0.00    -0.082 A 
ATOM     37  H7  MOL d         -10.114 -27.367 -12.556  0.00  0.00     0.084 H 
ATOM     38  CD  MOL d         -11.896 -26.687 -15.384  0.00  0.00    -0.083 A 
ATOM     39  H6  MOL d         -12.424 -26.910 -13.328  0.00  0.00     0.083 H 
ATOM     40  CC  MOL d         -10.791 -26.734 -16.326  0.00  0.00    -0.082 A 
ATOM     41  H5  MOL d         -12.905 -26.472 -15.715  0.00  0.00     0.083 H 
ATOM     42  CB  MOL d          -9.443 -27.006 -15.901  0.00  0.00    -0.074 A 
ATOM     43  H4  MOL d         -10.987 -26.559 -17.378  0.00  0.00     0.083 H 
ATOM     44  H3  MOL d          -8.641 -27.032 -16.630  0.00  0.00     0.084 H 
ENDBRANCH   1  34
TORSDOF 2
