MODEL 1
REMARK VINA RESULT:     -10.3      0.000      0.000
REMARK  2 active torsions:
REMARK  status: ('A' for Active; 'I' for Inactive)
REMARK    1  A    between atoms: CG_8  and  CA_2 
REMARK    2  A    between atoms: NM_14  and  CG_8 
ROOT
ATOM      1  CG  MOL d          -7.890 -27.518 -13.933  0.00  0.00     0.154 C 
ATOM      2  CH  MOL d          -6.716 -26.686 -14.641  0.00  0.00    -0.029 C 
ATOM      3  CI  MOL d          -7.006 -25.208 -14.434  0.00  0.00    -0.062 C 
ATOM      4  CJ  MOL d          -6.835 -24.824 -12.948  0.00  0.00    -0.065 C 
ATOM      5  CK  MOL d          -7.720 -25.720 -12.059  0.00  0.00    -0.062 C 
ATOM      6  CL  MOL d          -7.558 -27.204 -12.420  0.00  0.00    -0.029 C 
ATOM      7  H8  MOL d          -6.691 -26.916 -15.717  0.00  0.00     0.037 H 
ATOM      8  H9  MOL d          -5.748 -26.945 -14.188  0.00  0.00     0.037 H 
ATOM      9  H10 MOL d          -8.038 -24.994 -14.746  0.00  0.00     0.033 H 
ATOM     10  H11 MOL d          -6.308 -24.613 -15.043  0.00  0.00     0.033 H 
ATOM     11  H12 MOL d          -7.128 -23.772 -12.809  0.00  0.00     0.033 H 
ATOM     12  H13 MOL d          -5.782 -24.953 -12.659  0.00  0.00     0.033 H 
ATOM     13  H14 MOL d          -8.772 -25.431 -12.196  0.00  0.00     0.033 H 
ATOM     14  H15 MOL d          -7.434 -25.574 -11.007  0.00  0.00     0.033 H 
ATOM     15  H16 MOL d          -6.518 -27.501 -12.221  0.00  0.00     0.037 H 
ATOM     16  H17 MOL d          -8.235 -27.793 -11.784  0.00  0.00     0.037 H 
ENDROOT
BRANCH   1  17
ATOM     17  NM  MOL d          -7.589 -29.050 -14.094  0.00  0.00    -0.058 N 
ATOM     18  CN  MOL d          -8.825 -29.923 -14.461  0.00  0.00     0.085 C 
ATOM     19  CO  MOL d          -8.471 -31.415 -14.591  0.00  0.00    -0.042 C 
ATOM     20  H19 MOL d          -9.586 -29.807 -13.675  0.00  0.00     0.076 H 
ATOM     21  H20 MOL d          -9.233 -29.572 -15.421  0.00  0.00     0.076 H 
ATOM     22  CP  MOL d          -7.322 -31.675 -15.566  0.00  0.00    -0.062 C 
ATOM     23  H21 MOL d          -8.182 -31.794 -13.600  0.00  0.00     0.035 H 
ATOM     24  H22 MOL d          -9.360 -31.956 -14.945  0.00  0.00     0.035 H 
ATOM     25  CQ  MOL d          -6.105 -30.835 -15.127  0.00  0.00    -0.042 C 
ATOM     26  H1  MOL d          -7.059 -32.743 -15.552  0.00  0.00     0.033 H 
ATOM     27  H2  MOL d          -7.625 -31.385 -16.582  0.00  0.00     0.033 H 
ATOM     28  CR  MOL d          -6.413 -29.358 -15.035  0.00  0.00     0.085 C 
ATOM     29  H23 MOL d          -5.296 -30.981 -15.859  0.00  0.00     0.035 H 
ATOM     30  H24 MOL d          -5.774 -31.187 -14.139  0.00  0.00     0.035 H 
ATOM     31  H25 MOL d          -5.519 -28.836 -14.663  0.00  0.00     0.076 H 
ATOM     32  H26 MOL d          -6.663 -28.988 -16.040  0.00  0.00     0.076 H 
ATOM     33  H18 MOL d          -7.299 -29.358 -13.179  0.00  0.00     0.281 HD
ENDBRANCH   1  17
BRANCH   1  34
ATOM     34  CA  MOL d          -9.361 -27.121 -14.430  0.00  0.00    -0.022 A 
ATOM     35  CF  MOL d          -9.600 -26.699 -15.802  0.00  0.00    -0.074 A 
ATOM     36  CE  MOL d         -10.898 -26.362 -16.278  0.00  0.00    -0.082 A 
ATOM     37  H7  MOL d          -8.760 -26.639 -16.485  0.00  0.00     0.084 H 
ATOM     38  CD  MOL d         -12.005 -26.430 -15.452  0.00  0.00    -0.083 A 
ATOM     39  H6  MOL d         -11.021 -26.045 -17.307  0.00  0.00     0.083 H 
ATOM     40  CC  MOL d         -11.797 -26.842 -14.075  0.00  0.00    -0.082 A 
ATOM     41  H5  MOL d         -12.994 -26.185 -15.820  0.00  0.00     0.083 H 
ATOM     42  CB  MOL d         -10.492 -27.183 -13.573  0.00  0.00    -0.074 A 
ATOM     43  H4  MOL d         -12.649 -26.894 -13.406  0.00  0.00     0.083 H 
ATOM     44  H3  MOL d         -10.373 -27.488 -12.540  0.00  0.00     0.084 H 
ENDBRANCH   1  34
TORSDOF 2
ENDMDL
MODEL 2
REMARK VINA RESULT:      -9.9      0.865      3.915
REMARK  2 active torsions:
REMARK  status: ('A' for Active; 'I' for Inactive)
REMARK    1  A    between atoms: CG_8  and  CA_2 
REMARK    2  A    between atoms: NM_14  and  CG_8 
ROOT
ATOM      1  CG  MOL d          -9.374 -28.140 -14.847  0.00  0.00     0.154 C 
ATOM      2  CH  MOL d         -10.715 -28.487 -14.040  0.00  0.00    -0.029 C 
ATOM      3  CI  MOL d         -11.457 -27.182 -13.791  0.00  0.00    -0.062 C 
ATOM      4  CJ  MOL d         -12.005 -26.608 -15.115  0.00  0.00    -0.065 C 
ATOM      5  CK  MOL d         -10.865 -26.443 -16.139  0.00  0.00    -0.062 C 
ATOM      6  CL  MOL d         -10.005 -27.712 -16.232  0.00  0.00    -0.029 C 
ATOM      7  H8  MOL d         -10.463 -28.963 -13.081  0.00  0.00     0.037 H 
ATOM      8  H9  MOL d         -11.344 -29.168 -14.633  0.00  0.00     0.037 H 
ATOM      9  H10 MOL d         -10.766 -26.455 -13.340  0.00  0.00     0.033 H 
ATOM     10  H11 MOL d         -12.295 -27.368 -13.103  0.00  0.00     0.033 H 
ATOM     11  H12 MOL d         -12.465 -25.627 -14.922  0.00  0.00     0.033 H 
ATOM     12  H13 MOL d         -12.762 -27.294 -15.522  0.00  0.00     0.033 H 
ATOM     13  H14 MOL d         -10.228 -25.600 -15.832  0.00  0.00     0.033 H 
ATOM     14  H15 MOL d         -11.300 -26.232 -17.127  0.00  0.00     0.033 H 
ATOM     15  H16 MOL d         -10.635 -28.535 -16.599  0.00  0.00     0.037 H 
ATOM     16  H17 MOL d          -9.188 -27.528 -16.946  0.00  0.00     0.037 H 
ENDROOT
BRANCH   1  17
ATOM     17  NM  MOL d          -8.613 -29.478 -15.157  0.00  0.00    -0.058 N 
ATOM     18  CN  MOL d          -7.064 -29.392 -15.029  0.00  0.00     0.085 C 
ATOM     19  CO  MOL d          -6.374 -30.728 -15.358  0.00  0.00    -0.042 C 
ATOM     20  H19 MOL d          -6.694 -28.623 -15.723  0.00  0.00     0.076 H 
ATOM     21  H20 MOL d          -6.810 -29.108 -13.996  0.00  0.00     0.076 H 
ATOM     22  CP  MOL d          -6.915 -31.899 -14.538  0.00  0.00    -0.062 C 
ATOM     23  H21 MOL d          -6.525 -30.947 -16.425  0.00  0.00     0.035 H 
ATOM     24  H22 MOL d          -5.298 -30.625 -15.154  0.00  0.00     0.035 H 
ATOM     25  CQ  MOL d          -8.442 -31.979 -14.744  0.00  0.00    -0.042 C 
ATOM     26  H1  MOL d          -6.446 -32.835 -14.876  0.00  0.00     0.033 H 
ATOM     27  H2  MOL d          -6.692 -31.741 -13.473  0.00  0.00     0.033 H 
ATOM     28  CR  MOL d          -9.151 -30.693 -14.384  0.00  0.00     0.085 C 
ATOM     29  H23 MOL d          -8.839 -32.788 -14.112  0.00  0.00     0.035 H 
ATOM     30  H24 MOL d          -8.643 -32.207 -15.801  0.00  0.00     0.035 H 
ATOM     31  H25 MOL d         -10.221 -30.808 -14.611  0.00  0.00     0.076 H 
ATOM     32  H26 MOL d          -9.021 -30.510 -13.308  0.00  0.00     0.076 H 
ATOM     33  H18 MOL d          -8.797 -29.665 -16.131  0.00  0.00     0.281 HD
ENDBRANCH   1  17
BRANCH   1  34
ATOM     34  CA  MOL d          -8.444 -27.051 -14.128  0.00  0.00    -0.022 A 
ATOM     35  CF  MOL d          -8.118 -27.161 -12.715  0.00  0.00    -0.074 A 
ATOM     36  CE  MOL d          -7.276 -26.222 -12.054  0.00  0.00    -0.082 A 
ATOM     37  H7  MOL d          -8.530 -27.985 -12.145  0.00  0.00     0.084 H 
ATOM     38  CD  MOL d          -6.716 -25.157 -12.735  0.00  0.00    -0.083 A 
ATOM     39  H6  MOL d          -7.071 -26.344 -10.997  0.00  0.00     0.083 H 
ATOM     40  CC  MOL d          -7.029 -25.017 -14.147  0.00  0.00    -0.082 A 
ATOM     41  H5  MOL d          -6.066 -24.451 -12.233  0.00  0.00     0.083 H 
ATOM     42  CB  MOL d          -7.880 -25.954 -14.832  0.00  0.00    -0.074 A 
ATOM     43  H4  MOL d          -6.608 -24.185 -14.700  0.00  0.00     0.083 H 
ATOM     44  H3  MOL d          -8.092 -25.821 -15.887  0.00  0.00     0.084 H 
ENDBRANCH   1  34
TORSDOF 2
ENDMDL
MODEL 3
REMARK VINA RESULT:      -9.4      1.067      3.823
REMARK  2 active torsions:
REMARK  status: ('A' for Active; 'I' for Inactive)
REMARK    1  A    between atoms: CG_8  and  CA_2 
REMARK    2  A    between atoms: NM_14  and  CG_8 
ROOT
ATOM      1  CG  MOL d          -9.728 -28.151 -14.386  0.00  0.00     0.154 C 
ATOM      2  CH  MOL d         -11.141 -27.944 -13.658  0.00  0.00    -0.029 C 
ATOM      3  CI  MOL d         -11.626 -26.539 -13.980  0.00  0.00    -0.062 C 
ATOM      4  CJ  MOL d         -12.001 -26.422 -15.473  0.00  0.00    -0.065 C 
ATOM      5  CK  MOL d         -10.811 -26.843 -16.358  0.00  0.00    -0.062 C 
ATOM      6  CL  MOL d         -10.209 -28.176 -15.892  0.00  0.00    -0.029 C 
ATOM      7  H8  MOL d         -11.023 -28.060 -12.571  0.00  0.00     0.037 H 
ATOM      8  H9  MOL d         -11.865 -28.684 -14.029  0.00  0.00     0.037 H 
ATOM      9  H10 MOL d         -10.827 -25.819 -13.750  0.00  0.00     0.033 H 
ATOM     10  H11 MOL d         -12.511 -26.312 -13.366  0.00  0.00     0.033 H 
ATOM     11  H12 MOL d         -12.270 -25.379 -15.699  0.00  0.00     0.033 H 
ATOM     12  H13 MOL d         -12.859 -27.076 -15.684  0.00  0.00     0.033 H 
ATOM     13  H14 MOL d         -10.037 -26.064 -16.309  0.00  0.00     0.033 H 
ATOM     14  H15 MOL d         -11.158 -26.950 -17.396  0.00  0.00     0.033 H 
ATOM     15  H16 MOL d         -10.971 -28.962 -16.003  0.00  0.00     0.037 H 
ATOM     16  H17 MOL d          -9.345 -28.411 -16.531  0.00  0.00     0.037 H 
ENDROOT
BRANCH   1  17
ATOM     17  NM  MOL d          -9.227 -29.613 -14.108  0.00  0.00    -0.058 N 
ATOM     18  CN  MOL d         -10.290 -30.725 -14.350  0.00  0.00     0.085 C 
ATOM     19  CO  MOL d          -9.747 -32.132 -14.048  0.00  0.00    -0.042 C 
ATOM     20  H19 MOL d         -11.157 -30.532 -13.700  0.00  0.00     0.076 H 
ATOM     21  H20 MOL d         -10.607 -30.687 -15.404  0.00  0.00     0.076 H 
ATOM     22  CP  MOL d          -8.457 -32.451 -14.804  0.00  0.00    -0.062 C 
ATOM     23  H21 MOL d          -9.548 -32.206 -12.968  0.00  0.00     0.035 H 
ATOM     24  H22 MOL d         -10.511 -32.870 -14.331  0.00  0.00     0.035 H 
ATOM     25  CQ  MOL d          -7.418 -31.356 -14.486  0.00  0.00    -0.042 C 
ATOM     26  H1  MOL d          -8.072 -33.430 -14.484  0.00  0.00     0.033 H 
ATOM     27  H2  MOL d          -8.656 -32.470 -15.885  0.00  0.00     0.033 H 
ATOM     28  CR  MOL d          -7.909 -29.965 -14.817  0.00  0.00     0.085 C 
ATOM     29  H23 MOL d          -6.507 -31.555 -15.072  0.00  0.00     0.035 H 
ATOM     30  H24 MOL d          -7.180 -31.398 -13.413  0.00  0.00     0.035 H 
ATOM     31  H25 MOL d          -7.141 -29.240 -14.511  0.00  0.00     0.076 H 
ATOM     32  H26 MOL d          -8.066 -29.897 -15.903  0.00  0.00     0.076 H 
ATOM     33  H18 MOL d          -9.026 -29.637 -13.120  0.00  0.00     0.281 HD
ENDBRANCH   1  17
BRANCH   1  34
ATOM     34  CA  MOL d          -8.633 -27.041 -14.014  0.00  0.00    -0.022 A 
ATOM     35  CF  MOL d          -8.203 -26.846 -12.638  0.00  0.00    -0.074 A 
ATOM     36  CE  MOL d          -7.218 -25.883 -12.279  0.00  0.00    -0.082 A 
ATOM     37  H7  MOL d          -8.648 -27.454 -11.859  0.00  0.00     0.084 H 
ATOM     38  CD  MOL d          -6.611 -25.088 -13.234  0.00  0.00    -0.083 A 
ATOM     39  H6  MOL d          -6.938 -25.771 -11.238  0.00  0.00     0.083 H 
ATOM     40  CC  MOL d          -7.024 -25.255 -14.616  0.00  0.00    -0.082 A 
ATOM     41  H5  MOL d          -5.852 -24.365 -12.960  0.00  0.00     0.083 H 
ATOM     42  CB  MOL d          -8.022 -26.220 -14.998  0.00  0.00    -0.074 A 
ATOM     43  H4  MOL d          -6.569 -24.636 -15.381  0.00  0.00     0.083 H 
ATOM     44  H3  MOL d          -8.306 -26.320 -16.040  0.00  0.00     0.084 H 
ENDBRANCH   1  34
TORSDOF 2
ENDMDL
MODEL 4
REMARK VINA RESULT:      -8.5      1.125      4.673
REMARK  2 active torsions:
REMARK  status: ('A' for Active; 'I' for Inactive)
REMARK    1  A    between atoms: CG_8  and  CA_2 
REMARK    2  A    between atoms: NM_14  and  CG_8 
ROOT
ATOM      1  CG  MOL d          -9.228 -27.214 -14.562  0.00  0.00     0.154 C 
ATOM      2  CH  MOL d          -9.580 -26.532 -15.970  0.00  0.00    -0.029 C 
ATOM      3  CI  MOL d         -10.682 -27.355 -16.620  0.00  0.00    -0.062 C 
ATOM      4  CJ  MOL d         -12.005 -27.207 -15.838  0.00  0.00    -0.065 C 
ATOM      5  CK  MOL d         -11.796 -27.582 -14.358  0.00  0.00    -0.062 C 
ATOM      6  CL  MOL d         -10.558 -26.888 -13.772  0.00  0.00    -0.029 C 
ATOM      7  H8  MOL d          -8.689 -26.522 -16.615  0.00  0.00     0.037 H 
ATOM      8  H9  MOL d          -9.929 -25.501 -15.809  0.00  0.00     0.037 H 
ATOM      9  H10 MOL d         -10.384 -28.414 -16.630  0.00  0.00     0.033 H 
ATOM     10  H11 MOL d         -10.831 -27.007 -17.653  0.00  0.00     0.033 H 
ATOM     11  H12 MOL d         -12.763 -27.873 -16.278  0.00  0.00     0.033 H 
ATOM     12  H13 MOL d         -12.350 -26.165 -15.904  0.00  0.00     0.033 H 
ATOM     13  H14 MOL d         -11.667 -28.671 -14.280  0.00  0.00     0.033 H 
ATOM     14  H15 MOL d         -12.683 -27.276 -13.783  0.00  0.00     0.033 H 
ATOM     15  H16 MOL d         -10.722 -25.801 -13.796  0.00  0.00     0.037 H 
ATOM     16  H17 MOL d         -10.435 -27.217 -12.729  0.00  0.00     0.037 H 
ENDROOT
BRANCH   1  17
ATOM     17  NM  MOL d          -8.124 -26.355 -13.849  0.00  0.00    -0.058 N 
ATOM     18  CN  MOL d          -7.366 -27.088 -12.703  0.00  0.00     0.085 C 
ATOM     19  CO  MOL d          -6.309 -26.193 -12.034  0.00  0.00    -0.042 C 
ATOM     20  H19 MOL d          -8.095 -27.403 -11.942  0.00  0.00     0.076 H 
ATOM     21  H20 MOL d          -6.865 -27.974 -13.121  0.00  0.00     0.076 H 
ATOM     22  CP  MOL d          -5.319 -25.588 -13.030  0.00  0.00    -0.062 C 
ATOM     23  H21 MOL d          -6.823 -25.374 -11.510  0.00  0.00     0.035 H 
ATOM     24  H22 MOL d          -5.748 -26.797 -11.306  0.00  0.00     0.035 H 
ATOM     25  CQ  MOL d          -6.113 -24.825 -14.110  0.00  0.00    -0.042 C 
ATOM     26  H1  MOL d          -4.644 -24.894 -12.507  0.00  0.00     0.033 H 
ATOM     27  H2  MOL d          -4.730 -26.389 -13.500  0.00  0.00     0.033 H 
ATOM     28  CR  MOL d          -7.129 -25.693 -14.816  0.00  0.00     0.085 C 
ATOM     29  H23 MOL d          -5.405 -24.435 -14.857  0.00  0.00     0.035 H 
ATOM     30  H24 MOL d          -6.640 -23.986 -13.632  0.00  0.00     0.035 H 
ATOM     31  H25 MOL d          -7.691 -25.069 -15.526  0.00  0.00     0.076 H 
ATOM     32  H26 MOL d          -6.595 -26.483 -15.364  0.00  0.00     0.076 H 
ATOM     33  H18 MOL d          -8.625 -25.600 -13.407  0.00  0.00     0.281 HD
ENDBRANCH   1  17
BRANCH   1  34
ATOM     34  CA  MOL d          -8.833 -28.764 -14.669  0.00  0.00    -0.022 A 
ATOM     35  CF  MOL d          -7.496 -29.169 -15.077  0.00  0.00    -0.074 A 
ATOM     36  CE  MOL d          -7.109 -30.536 -15.159  0.00  0.00    -0.082 A 
ATOM     37  H7  MOL d          -6.770 -28.404 -15.325  0.00  0.00     0.084 H 
ATOM     38  CD  MOL d          -7.992 -31.552 -14.844  0.00  0.00    -0.083 A 
ATOM     39  H6  MOL d          -6.103 -30.786 -15.476  0.00  0.00     0.083 H 
ATOM     40  CC  MOL d          -9.337 -31.179 -14.440  0.00  0.00    -0.082 A 
ATOM     41  H5  MOL d          -7.691 -32.592 -14.896  0.00  0.00     0.083 H 
ATOM     42  CB  MOL d          -9.748 -29.802 -14.354  0.00  0.00    -0.074 A 
ATOM     43  H4  MOL d         -10.050 -31.958 -14.197  0.00  0.00     0.083 H 
ATOM     44  H3  MOL d         -10.759 -29.558 -14.047  0.00  0.00     0.084 H 
ENDBRANCH   1  34
TORSDOF 2
ENDMDL
MODEL 5
REMARK VINA RESULT:      -7.9      1.152      4.587
REMARK  2 active torsions:
REMARK  status: ('A' for Active; 'I' for Inactive)
REMARK    1  A    between atoms: CG_8  and  CA_2 
REMARK    2  A    between atoms: NM_14  and  CG_8 
ROOT
ATOM      1  CG  MOL d          -7.913 -26.791 -13.924  0.00  0.00     0.154 C 
ATOM      2  CH  MOL d          -7.885 -26.394 -12.371  0.00  0.00    -0.029 C 
ATOM      3  CI  MOL d          -6.497 -26.712 -11.836  0.00  0.00    -0.062 C 
ATOM      4  CJ  MOL d          -5.448 -25.755 -12.443  0.00  0.00    -0.065 C 
ATOM      5  CK  MOL d          -5.504 -25.807 -13.982  0.00  0.00    -0.062 C 
ATOM      6  CL  MOL d          -6.946 -25.680 -14.497  0.00  0.00    -0.029 C 
ATOM      7  H8  MOL d          -8.640 -26.976 -11.822  0.00  0.00     0.037 H 
ATOM      8  H9  MOL d          -8.094 -25.320 -12.255  0.00  0.00     0.037 H 
ATOM      9  H10 MOL d          -6.236 -27.748 -12.100  0.00  0.00     0.033 H 
ATOM     10  H11 MOL d          -6.497 -26.602 -10.741  0.00  0.00     0.033 H 
ATOM     11  H12 MOL d          -4.444 -26.055 -12.106  0.00  0.00     0.033 H 
ATOM     12  H13 MOL d          -5.656 -24.729 -12.106  0.00  0.00     0.033 H 
ATOM     13  H14 MOL d          -5.086 -26.765 -14.323  0.00  0.00     0.033 H 
ATOM     14  H15 MOL d          -4.905 -24.979 -14.390  0.00  0.00     0.033 H 
ATOM     15  H16 MOL d          -7.336 -24.693 -14.205  0.00  0.00     0.037 H 
ATOM     16  H17 MOL d          -6.933 -25.759 -15.594  0.00  0.00     0.037 H 
ENDROOT
BRANCH   1  17
ATOM     17  NM  MOL d          -9.323 -26.429 -14.511  0.00  0.00    -0.058 N 
ATOM     18  CN  MOL d          -9.472 -26.665 -16.043  0.00  0.00     0.085 C 
ATOM     19  CO  MOL d         -10.868 -26.279 -16.562  0.00  0.00    -0.042 C 
ATOM     20  H19 MOL d          -8.720 -26.058 -16.569  0.00  0.00     0.076 H 
ATOM     21  H20 MOL d          -9.298 -27.730 -16.255  0.00  0.00     0.076 H 
ATOM     22  CP  MOL d         -12.001 -26.968 -15.801  0.00  0.00    -0.062 C 
ATOM     23  H21 MOL d         -10.991 -25.190 -16.463  0.00  0.00     0.035 H 
ATOM     24  H22 MOL d         -10.937 -26.560 -17.623  0.00  0.00     0.035 H 
ATOM     25  CQ  MOL d         -11.844 -26.658 -14.298  0.00  0.00    -0.042 C 
ATOM     26  H1  MOL d         -12.971 -26.590 -16.158  0.00  0.00     0.033 H 
ATOM     27  H2  MOL d         -11.949 -28.055 -15.962  0.00  0.00     0.033 H 
ATOM     28  CR  MOL d         -10.496 -27.068 -13.751  0.00  0.00     0.085 C 
ATOM     29  H23 MOL d         -12.628 -27.197 -13.744  0.00  0.00     0.035 H 
ATOM     30  H24 MOL d         -11.969 -25.575 -14.148  0.00  0.00     0.035 H 
ATOM     31  H25 MOL d         -10.439 -26.765 -12.696  0.00  0.00     0.076 H 
ATOM     32  H26 MOL d         -10.407 -28.162 -13.824  0.00  0.00     0.076 H 
ATOM     33  H18 MOL d          -9.415 -25.434 -14.377  0.00  0.00     0.281 HD
ENDBRANCH   1  17
BRANCH   1  34
ATOM     34  CA  MOL d          -7.492 -28.311 -14.216  0.00  0.00    -0.022 A 
ATOM     35  CF  MOL d          -8.406 -29.408 -13.934  0.00  0.00    -0.074 A 
ATOM     36  CE  MOL d          -8.070 -30.764 -14.204  0.00  0.00    -0.082 A 
ATOM     37  H7  MOL d          -9.375 -29.184 -13.504  0.00  0.00     0.084 H 
ATOM     38  CD  MOL d          -6.851 -31.104 -14.761  0.00  0.00    -0.083 A 
ATOM     39  H6  MOL d          -8.783 -31.545 -13.967  0.00  0.00     0.083 H 
ATOM     40  CC  MOL d          -5.915 -30.031 -15.047  0.00  0.00    -0.082 A 
ATOM     41  H5  MOL d          -6.602 -32.136 -14.976  0.00  0.00     0.083 H 
ATOM     42  CB  MOL d          -6.235 -28.653 -14.779  0.00  0.00    -0.074 A 
ATOM     43  H4  MOL d          -4.949 -30.274 -15.476  0.00  0.00     0.083 H 
ATOM     44  H3  MOL d          -5.513 -27.876 -15.006  0.00  0.00     0.084 H 
ENDBRANCH   1  34
TORSDOF 2
ENDMDL
MODEL 6
REMARK VINA RESULT:      -7.5      1.295      4.403
REMARK  2 active torsions:
REMARK  status: ('A' for Active; 'I' for Inactive)
REMARK    1  A    between atoms: CG_8  and  CA_2 
REMARK    2  A    between atoms: NM_14  and  CG_8 
ROOT
ATOM      1  CG  MOL d          -8.154 -29.117 -14.065  0.00  0.00     0.154 C 
ATOM      2  CH  MOL d          -8.286 -30.396 -13.108  0.00  0.00    -0.029 C 
ATOM      3  CI  MOL d          -8.933 -31.512 -13.914  0.00  0.00    -0.062 C 
ATOM      4  CJ  MOL d          -7.973 -32.018 -15.012  0.00  0.00    -0.065 C 
ATOM      5  CK  MOL d          -7.517 -30.846 -15.903  0.00  0.00    -0.062 C 
ATOM      6  CL  MOL d          -7.048 -29.649 -15.063  0.00  0.00    -0.029 C 
ATOM      7  H8  MOL d          -8.914 -30.150 -12.238  0.00  0.00     0.037 H 
ATOM      8  H9  MOL d          -7.290 -30.712 -12.764  0.00  0.00     0.037 H 
ATOM      9  H10 MOL d          -9.852 -31.133 -14.384  0.00  0.00     0.033 H 
ATOM     10  H11 MOL d          -9.183 -32.346 -13.240  0.00  0.00     0.033 H 
ATOM     11  H12 MOL d          -8.490 -32.765 -15.631  0.00  0.00     0.033 H 
ATOM     12  H13 MOL d          -7.093 -32.478 -14.540  0.00  0.00     0.033 H 
ATOM     13  H14 MOL d          -8.359 -30.531 -16.537  0.00  0.00     0.033 H 
ATOM     14  H15 MOL d          -6.685 -31.183 -16.540  0.00  0.00     0.033 H 
ATOM     15  H16 MOL d          -6.168 -29.955 -14.479  0.00  0.00     0.037 H 
ATOM     16  H17 MOL d          -6.770 -28.832 -15.745  0.00  0.00     0.037 H 
ENDROOT
BRANCH   1  17
ATOM     17  NM  MOL d          -7.445 -27.964 -13.270  0.00  0.00    -0.058 N 
ATOM     18  CN  MOL d          -6.146 -27.416 -13.932  0.00  0.00     0.085 C 
ATOM     19  CO  MOL d          -5.491 -26.300 -13.101  0.00  0.00    -0.042 C 
ATOM     20  H19 MOL d          -5.430 -28.244 -14.042  0.00  0.00     0.076 H 
ATOM     21  H20 MOL d          -6.399 -27.016 -14.926  0.00  0.00     0.076 H 
ATOM     22  CP  MOL d          -6.449 -25.155 -12.774  0.00  0.00    -0.062 C 
ATOM     23  H21 MOL d          -5.127 -26.733 -12.158  0.00  0.00     0.035 H 
ATOM     24  H22 MOL d          -4.641 -25.894 -13.669  0.00  0.00     0.035 H 
ATOM     25  CQ  MOL d          -7.690 -25.739 -12.069  0.00  0.00    -0.042 C 
ATOM     26  H1  MOL d          -5.951 -24.432 -12.111  0.00  0.00     0.033 H 
ATOM     27  H2  MOL d          -6.754 -24.650 -13.703  0.00  0.00     0.033 H 
ATOM     28  CR  MOL d          -8.381 -26.808 -12.884  0.00  0.00     0.085 C 
ATOM     29  H23 MOL d          -8.404 -24.923 -11.881  0.00  0.00     0.035 H 
ATOM     30  H24 MOL d          -7.375 -26.178 -11.110  0.00  0.00     0.035 H 
ATOM     31  H25 MOL d          -9.216 -27.213 -12.294  0.00  0.00     0.076 H 
ATOM     32  H26 MOL d          -8.771 -26.350 -13.805  0.00  0.00     0.076 H 
ATOM     33  H18 MOL d          -7.153 -28.386 -12.402  0.00  0.00     0.281 HD
ENDBRANCH   1  17
BRANCH   1  34
ATOM     34  CA  MOL d          -9.537 -28.652 -14.728  0.00  0.00    -0.022 A 
ATOM     35  CF  MOL d          -9.560 -27.680 -15.810  0.00  0.00    -0.074 A 
ATOM     36  CE  MOL d         -10.770 -27.265 -16.434  0.00  0.00    -0.082 A 
ATOM     37  H7  MOL d          -8.623 -27.257 -16.154  0.00  0.00     0.084 H 
ATOM     38  CD  MOL d         -11.992 -27.780 -16.042  0.00  0.00    -0.083 A 
ATOM     39  H6  MOL d         -10.733 -26.531 -17.231  0.00  0.00     0.083 H 
ATOM     40  CC  MOL d         -12.002 -28.748 -14.958  0.00  0.00    -0.082 A 
ATOM     41  H5  MOL d         -12.911 -27.471 -16.526  0.00  0.00     0.083 H 
ATOM     42  CB  MOL d         -10.790 -29.177 -14.313  0.00  0.00    -0.074 A 
ATOM     43  H4  MOL d         -12.950 -29.158 -14.627  0.00  0.00     0.083 H 
ATOM     44  H3  MOL d         -10.833 -29.903 -13.509  0.00  0.00     0.084 H 
ENDBRANCH   1  34
TORSDOF 2
ENDMDL
