MODEL 1
REMARK VINA RESULT:      -8.0      0.000      0.000
REMARK  17 active torsions:
REMARK  status: ('A' for Active; 'I' for Inactive)
REMARK    1  A    between atoms: CBD_3  and  OAI_4 
REMARK    2  A    between atoms: CBF_7  and  CAV_8 
REMARK    3  A    between atoms: CAV_8  and  CBI_9 
REMARK    4  A    between atoms: CBI_9  and  PBK_10 
REMARK    5  A    between atoms: CBI_9  and  NAY_14 
REMARK       I    between atoms: NAY_14  and  C_15 
REMARK    6  A    between atoms: C_15  and  CA_17 
REMARK    7  A    between atoms: CA_17  and  N_18 
REMARK    8  A    between atoms: CA_17  and  CB_30 
REMARK       I    between atoms: N_18  and  CBB_19 
REMARK    9  A    between atoms: CBB_19  and  CBJ_21 
REMARK   10  A    between atoms: CBJ_21  and  CBG_22 
REMARK   11  A    between atoms: CBJ_21  and  NAX_26 
REMARK   12  A    between atoms: CBG_22  and  CAC_23 
REMARK   13  A    between atoms: CBG_22  and  CAT_24 
REMARK   14  A    between atoms: CAT_24  and  CAA_25 
REMARK       I    between atoms: NAX_26  and  CAZ_27 
REMARK   15  A    between atoms: CAZ_27  and  CAB_28 
REMARK   16  A    between atoms: CB_30  and  CG_31 
REMARK   17  A    between atoms: CZ_34  and  OH_35 
ROOT
ATOM      1  CA  K26 d          -9.185  22.499 -13.713  0.00  0.00     0.093 C 
ATOM      2  H10 K26 d          -9.000  21.634 -13.058  0.00  0.00     0.088 H 
ENDROOT
BRANCH   1   3
ATOM      3  C   K26 d          -7.908  23.339 -13.788  0.00  0.00     0.241 C 
ATOM      4  NAY K26 d          -6.773  22.643 -13.895  0.00  0.00    -0.342 N 
ATOM      5  H9  K26 d          -6.824  21.650 -14.003  0.00  0.00     0.163 HD
ATOM      6  O   K26 d          -7.977  24.566 -13.709  0.00  0.00    -0.271 OA
BRANCH   4   7
ATOM      7  CBI K26 d          -5.449  23.287 -13.860  0.00  0.00     0.124 C 
ATOM      8  H8  K26 d          -5.579  24.360 -13.656  0.00  0.00     0.095 H 
BRANCH   7   9
ATOM      9  CAV K26 d          -4.646  22.656 -12.700  0.00  0.00    -0.010 C 
ATOM     10  H6  K26 d          -5.097  21.688 -12.438  0.00  0.00     0.044 H 
ATOM     11  H7  K26 d          -3.607  22.500 -13.028  0.00  0.00     0.044 H 
BRANCH   9  12
ATOM     12  CBF K26 d          -4.644  23.558 -11.455  0.00  0.00    -0.055 A 
ATOM     13  CAR K26 d          -3.501  24.291 -11.142  0.00  0.00    -0.074 A 
ATOM     14  CAN K26 d          -3.482  25.123 -10.026  0.00  0.00    -0.051 A 
ATOM     15  H1  K26 d          -2.622  24.212 -11.771  0.00  0.00     0.084 H 
ATOM     16  CBD K26 d          -4.612  25.228  -9.216  0.00  0.00     0.065 A 
ATOM     17  H2  K26 d          -2.588  25.690  -9.787  0.00  0.00     0.087 H 
ATOM     18  CAO K26 d          -5.769  24.505  -9.525  0.00  0.00    -0.051 A 
ATOM     19  CAS K26 d          -5.780  23.670 -10.642  0.00  0.00    -0.074 A 
ATOM     20  H4  K26 d          -6.651  24.594  -8.900  0.00  0.00     0.087 H 
ATOM     21  H5  K26 d          -6.673  23.103 -10.883  0.00  0.00     0.084 H 
BRANCH  16  22
ATOM     22  OAI K26 d          -4.577  26.044  -8.128  0.00  0.00    -0.361 OA
ATOM     23  H3  K26 d          -5.282  26.678  -8.186  0.00  0.00     0.217 HD
ENDBRANCH  16  22
ENDBRANCH   9  12
ENDBRANCH   7   9
BRANCH   7  24
ATOM     24  PBK K26 d          -4.592  23.113 -15.482  0.00  0.00     0.283 P 
ATOM     25  OAJ K26 d          -4.128  24.572 -15.885  0.00  0.00    -0.638 OA
ATOM     26  OAK K26 d          -3.261  22.243 -15.115  0.00  0.00    -0.638 OA
ATOM     27  OAG K26 d          -5.438  22.483 -16.531  0.00  0.00    -0.638 OA
ENDBRANCH   7  24
ENDBRANCH   4   7
ENDBRANCH   1   3
BRANCH   1  28
ATOM     28  N   K26 d         -10.266  23.323 -13.134  0.00  0.00    -0.346 N 
ATOM     29  CBB K26 d         -10.584  23.344 -11.833  0.00  0.00     0.241 C 
ATOM     30  OAF K26 d         -10.036  22.662 -10.965  0.00  0.00    -0.271 OA
ATOM     31  H11 K26 d         -10.796  23.903 -13.753  0.00  0.00     0.163 HD
BRANCH  29  32
ATOM     32  CBJ K26 d         -11.781  24.244 -11.482  0.00  0.00     0.092 C 
ATOM     33  H12 K26 d         -12.249  24.589 -12.416  0.00  0.00     0.088 H 
BRANCH  32  34
ATOM     34  CBG K26 d         -11.375  25.487 -10.681  0.00  0.00    -0.030 C 
ATOM     35  H13 K26 d         -12.091  26.294 -10.899  0.00  0.00     0.043 H 
BRANCH  34  36
ATOM     36  CAC K26 d         -11.422  25.181  -9.179  0.00  0.00    -0.071 C 
ATOM     37  H14 K26 d         -11.409  26.124  -8.612  0.00  0.00     0.028 H 
ATOM     38  H15 K26 d         -10.548  24.574  -8.901  0.00  0.00     0.028 H 
ATOM     39  H16 K26 d         -12.343  24.626  -8.946  0.00  0.00     0.028 H 
ENDBRANCH  34  36
BRANCH  34  40
ATOM     40  CAT K26 d          -9.969  25.963 -11.080  0.00  0.00    -0.063 C 
ATOM     41  H17 K26 d         -10.067  26.848 -11.727  0.00  0.00     0.033 H 
ATOM     42  H18 K26 d          -9.469  25.156 -11.636  0.00  0.00     0.033 H 
BRANCH  40  43
ATOM     43  CAA K26 d          -9.108  26.332  -9.873  0.00  0.00    -0.076 C 
ATOM     44  H19 K26 d          -8.695  25.417  -9.424  0.00  0.00     0.027 H 
ATOM     45  H20 K26 d          -9.724  26.859  -9.130  0.00  0.00     0.027 H 
ATOM     46  H21 K26 d          -8.284  26.986 -10.196  0.00  0.00     0.027 H 
ENDBRANCH  40  43
ENDBRANCH  34  40
ENDBRANCH  32  34
BRANCH  32  47
ATOM     47  NAX K26 d         -12.746  23.399 -10.750  0.00  0.00    -0.348 N 
ATOM     48  CAZ K26 d         -13.921  23.046 -11.275  0.00  0.00     0.214 C 
ATOM     49  OAD K26 d         -14.335  23.431 -12.367  0.00  0.00    -0.274 OA
ATOM     50  H22 K26 d         -12.511  23.080  -9.831  0.00  0.00     0.163 HD
BRANCH  48  51
ATOM     51  CAB K26 d         -14.780  22.129 -10.401  0.00  0.00    -0.003 C 
ATOM     52  H23 K26 d         -14.847  22.548  -9.386  0.00  0.00     0.040 H 
ATOM     53  H24 K26 d         -14.321  21.130 -10.357  0.00  0.00     0.040 H 
ATOM     54  H25 K26 d         -15.788  22.051 -10.833  0.00  0.00     0.040 H 
ENDBRANCH  48  51
ENDBRANCH  32  47
ENDBRANCH  29  32
ENDBRANCH   1  28
BRANCH   1  55
ATOM     55  CB  K26 d          -9.617  21.987 -15.081  0.00  0.00    -0.014 C 
ATOM     56  H26 K26 d         -10.547  21.408 -14.982  0.00  0.00     0.043 H 
ATOM     57  H27 K26 d          -8.829  21.346 -15.502  0.00  0.00     0.043 H 
BRANCH  55  58
ATOM     58  CG  K26 d          -9.855  23.190 -16.008  0.00  0.00    -0.056 A 
ATOM     59  CD1 K26 d         -11.043  23.911 -15.920  0.00  0.00    -0.074 A 
ATOM     60  CE1 K26 d         -11.257  25.016 -16.750  0.00  0.00    -0.051 A 
ATOM     61  H28 K26 d         -11.804  23.616 -15.207  0.00  0.00     0.084 H 
ATOM     62  CZ  K26 d         -10.280  25.402 -17.668  0.00  0.00     0.065 A 
ATOM     63  H29 K26 d         -12.184  25.573 -16.680  0.00  0.00     0.087 H 
ATOM     64  CE2 K26 d          -9.088  24.683 -17.750  0.00  0.00    -0.051 A 
ATOM     65  CD2 K26 d          -8.872  23.581 -16.919  0.00  0.00    -0.074 A 
ATOM     66  H31 K26 d          -8.327  24.980 -18.462  0.00  0.00     0.087 H 
ATOM     67  H32 K26 d          -7.940  23.030 -16.981  0.00  0.00     0.084 H 
BRANCH  62  68
ATOM     68  OH  K26 d         -10.497  26.477 -18.486  0.00  0.00    -0.361 OA
ATOM     69  H30 K26 d         -10.342  27.278 -18.002  0.00  0.00     0.217 HD
ENDBRANCH  62  68
ENDBRANCH  55  58
ENDBRANCH   1  55
TORSDOF 17
ENDMDL
MODEL 2
REMARK VINA RESULT:      -7.5      1.854      2.759
REMARK  17 active torsions:
REMARK  status: ('A' for Active; 'I' for Inactive)
REMARK    1  A    between atoms: CBD_3  and  OAI_4 
REMARK    2  A    between atoms: CBF_7  and  CAV_8 
REMARK    3  A    between atoms: CAV_8  and  CBI_9 
REMARK    4  A    between atoms: CBI_9  and  PBK_10 
REMARK    5  A    between atoms: CBI_9  and  NAY_14 
REMARK       I    between atoms: NAY_14  and  C_15 
REMARK    6  A    between atoms: C_15  and  CA_17 
REMARK    7  A    between atoms: CA_17  and  N_18 
REMARK    8  A    between atoms: CA_17  and  CB_30 
REMARK       I    between atoms: N_18  and  CBB_19 
REMARK    9  A    between atoms: CBB_19  and  CBJ_21 
REMARK   10  A    between atoms: CBJ_21  and  CBG_22 
REMARK   11  A    between atoms: CBJ_21  and  NAX_26 
REMARK   12  A    between atoms: CBG_22  and  CAC_23 
REMARK   13  A    between atoms: CBG_22  and  CAT_24 
REMARK   14  A    between atoms: CAT_24  and  CAA_25 
REMARK       I    between atoms: NAX_26  and  CAZ_27 
REMARK   15  A    between atoms: CAZ_27  and  CAB_28 
REMARK   16  A    between atoms: CB_30  and  CG_31 
REMARK   17  A    between atoms: CZ_34  and  OH_35 
ROOT
ATOM      1  CA  K26 d          -7.830  23.131 -13.547  0.00  0.00     0.093 C 
ATOM      2  H10 K26 d          -7.705  22.171 -13.024  0.00  0.00     0.088 H 
ENDROOT
BRANCH   1   3
ATOM      3  C   K26 d          -6.704  24.074 -13.117  0.00  0.00     0.241 C 
ATOM      4  NAY K26 d          -5.993  23.669 -12.061  0.00  0.00    -0.342 N 
ATOM      5  H9  K26 d          -6.172  22.764 -11.677  0.00  0.00     0.163 HD
ATOM      6  O   K26 d          -6.537  25.139 -13.713  0.00  0.00    -0.271 OA
BRANCH   4   7
ATOM      7  CBI K26 d          -4.953  24.510 -11.444  0.00  0.00     0.124 C 
ATOM      8  H8  K26 d          -5.127  25.558 -11.728  0.00  0.00     0.095 H 
BRANCH   7   9
ATOM      9  CAV K26 d          -5.090  24.383  -9.909  0.00  0.00    -0.010 C 
ATOM     10  H6  K26 d          -5.151  23.318  -9.644  0.00  0.00     0.044 H 
ATOM     11  H7  K26 d          -4.204  24.830  -9.434  0.00  0.00     0.044 H 
BRANCH   9  12
ATOM     12  CBF K26 d          -6.347  25.099  -9.391  0.00  0.00    -0.055 A 
ATOM     13  CAR K26 d          -7.322  24.367  -8.717  0.00  0.00    -0.074 A 
ATOM     14  CAN K26 d          -8.463  24.997  -8.228  0.00  0.00    -0.051 A 
ATOM     15  H1  K26 d          -7.191  23.301  -8.573  0.00  0.00     0.084 H 
ATOM     16  CBD K26 d          -8.633  26.370  -8.411  0.00  0.00     0.065 A 
ATOM     17  H2  K26 d          -9.220  24.422  -7.705  0.00  0.00     0.087 H 
ATOM     18  CAO K26 d          -7.657  27.118  -9.077  0.00  0.00    -0.051 A 
ATOM     19  CAS K26 d          -6.518  26.479  -9.568  0.00  0.00    -0.074 A 
ATOM     20  H4  K26 d          -7.785  28.186  -9.211  0.00  0.00     0.087 H 
ATOM     21  H5  K26 d          -5.760  27.053 -10.090  0.00  0.00     0.084 H 
BRANCH  16  22
ATOM     22  OAI K26 d          -9.755  26.971  -7.928  0.00  0.00    -0.361 OA
ATOM     23  H3  K26 d          -9.960  27.730  -8.461  0.00  0.00     0.217 HD
ENDBRANCH  16  22
ENDBRANCH   9  12
ENDBRANCH   7   9
BRANCH   7  24
ATOM     24  PBK K26 d          -3.278  24.026 -12.041  0.00  0.00     0.283 P 
ATOM     25  OAJ K26 d          -2.956  24.990 -13.255  0.00  0.00    -0.638 OA
ATOM     26  OAK K26 d          -2.302  24.433 -10.799  0.00  0.00    -0.638 OA
ATOM     27  OAG K26 d          -3.181  22.591 -12.422  0.00  0.00    -0.638 OA
ENDBRANCH   7  24
ENDBRANCH   4   7
ENDBRANCH   1   3
BRANCH   1  28
ATOM     28  N   K26 d          -9.126  23.727 -13.165  0.00  0.00    -0.346 N 
ATOM     29  CBB K26 d          -9.701  23.575 -11.965  0.00  0.00     0.241 C 
ATOM     30  OAF K26 d          -9.237  22.902 -11.044  0.00  0.00    -0.271 OA
ATOM     31  H11 K26 d          -9.607  24.279 -13.847  0.00  0.00     0.163 HD
BRANCH  29  32
ATOM     32  CBJ K26 d         -11.076  24.252 -11.825  0.00  0.00     0.092 C 
ATOM     33  H12 K26 d         -11.451  24.499 -12.829  0.00  0.00     0.088 H 
BRANCH  32  34
ATOM     34  CBG K26 d         -11.018  25.555 -11.018  0.00  0.00    -0.030 C 
ATOM     35  H13 K26 d         -10.496  25.356 -10.070  0.00  0.00     0.043 H 
BRANCH  34  36
ATOM     36  CAC K26 d         -10.235  26.618 -11.798  0.00  0.00    -0.071 C 
ATOM     37  H14 K26 d          -9.694  26.141 -12.628  0.00  0.00     0.028 H 
ATOM     38  H15 K26 d          -9.516  27.110 -11.126  0.00  0.00     0.028 H 
ATOM     39  H16 K26 d         -10.933  27.368 -12.198  0.00  0.00     0.028 H 
ENDBRANCH  34  36
BRANCH  34  40
ATOM     40  CAT K26 d         -12.432  26.066 -10.698  0.00  0.00    -0.063 C 
ATOM     41  H17 K26 d         -13.152  25.532 -11.335  0.00  0.00     0.033 H 
ATOM     42  H18 K26 d         -12.475  27.143 -10.920  0.00  0.00     0.033 H 
BRANCH  40  43
ATOM     43  CAA K26 d         -12.818  25.851  -9.235  0.00  0.00    -0.076 C 
ATOM     44  H19 K26 d         -13.909  25.941  -9.128  0.00  0.00     0.027 H 
ATOM     45  H20 K26 d         -12.324  26.610  -8.611  0.00  0.00     0.027 H 
ATOM     46  H21 K26 d         -12.498  24.849  -8.915  0.00  0.00     0.027 H 
ENDBRANCH  40  43
ENDBRANCH  34  40
ENDBRANCH  32  34
BRANCH  32  47
ATOM     47  NAX K26 d         -11.977  23.255 -11.212  0.00  0.00    -0.348 N 
ATOM     48  CAZ K26 d         -13.180  22.980 -11.719  0.00  0.00     0.214 C 
ATOM     49  OAD K26 d         -13.674  23.560 -12.684  0.00  0.00    -0.274 OA
ATOM     50  H22 K26 d         -11.675  22.770 -10.391  0.00  0.00     0.163 HD
BRANCH  48  51
ATOM     51  CAB K26 d         -13.965  21.889 -10.988  0.00  0.00    -0.003 C 
ATOM     52  H23 K26 d         -15.027  22.170 -10.940  0.00  0.00     0.040 H 
ATOM     53  H24 K26 d         -13.570  21.774  -9.967  0.00  0.00     0.040 H 
ATOM     54  H25 K26 d         -13.861  20.937 -11.530  0.00  0.00     0.040 H 
ENDBRANCH  48  51
ENDBRANCH  32  47
ENDBRANCH  29  32
ENDBRANCH   1  28
BRANCH   1  55
ATOM     55  CB  K26 d          -7.817  22.869 -15.048  0.00  0.00    -0.014 C 
ATOM     56  H26 K26 d          -7.948  21.793 -15.236  0.00  0.00     0.043 H 
ATOM     57  H27 K26 d          -6.858  23.200 -15.473  0.00  0.00     0.043 H 
BRANCH  55  58
ATOM     58  CG  K26 d          -8.968  23.652 -15.698  0.00  0.00    -0.056 A 
ATOM     59  CD1 K26 d         -10.195  23.031 -15.918  0.00  0.00    -0.074 A 
ATOM     60  CE1 K26 d         -11.251  23.743 -16.494  0.00  0.00    -0.051 A 
ATOM     61  H28 K26 d         -10.333  21.991 -15.640  0.00  0.00     0.084 H 
ATOM     62  CZ  K26 d         -11.080  25.082 -16.850  0.00  0.00     0.065 A 
ATOM     63  H29 K26 d         -12.204  23.255 -16.664  0.00  0.00     0.087 H 
ATOM     64  CE2 K26 d          -9.853  25.704 -16.625  0.00  0.00    -0.051 A 
ATOM     65  CD2 K26 d          -8.799  24.994 -16.045  0.00  0.00    -0.074 A 
ATOM     66  H31 K26 d          -9.717  26.744 -16.900  0.00  0.00     0.087 H 
ATOM     67  H32 K26 d          -7.849  25.485 -15.864  0.00  0.00     0.084 H 
BRANCH  62  68
ATOM     68  OH  K26 d         -12.112  25.773 -17.424  0.00  0.00    -0.361 OA
ATOM     69  H30 K26 d         -11.996  25.786 -18.367  0.00  0.00     0.217 HD
ENDBRANCH  62  68
ENDBRANCH  55  58
ENDBRANCH   1  55
TORSDOF 17
ENDMDL
MODEL 3
REMARK VINA RESULT:      -7.5      2.354      5.466
REMARK  17 active torsions:
REMARK  status: ('A' for Active; 'I' for Inactive)
REMARK    1  A    between atoms: CBD_3  and  OAI_4 
REMARK    2  A    between atoms: CBF_7  and  CAV_8 
REMARK    3  A    between atoms: CAV_8  and  CBI_9 
REMARK    4  A    between atoms: CBI_9  and  PBK_10 
REMARK    5  A    between atoms: CBI_9  and  NAY_14 
REMARK       I    between atoms: NAY_14  and  C_15 
REMARK    6  A    between atoms: C_15  and  CA_17 
REMARK    7  A    between atoms: CA_17  and  N_18 
REMARK    8  A    between atoms: CA_17  and  CB_30 
REMARK       I    between atoms: N_18  and  CBB_19 
REMARK    9  A    between atoms: CBB_19  and  CBJ_21 
REMARK   10  A    between atoms: CBJ_21  and  CBG_22 
REMARK   11  A    between atoms: CBJ_21  and  NAX_26 
REMARK   12  A    between atoms: CBG_22  and  CAC_23 
REMARK   13  A    between atoms: CBG_22  and  CAT_24 
REMARK   14  A    between atoms: CAT_24  and  CAA_25 
REMARK       I    between atoms: NAX_26  and  CAZ_27 
REMARK   15  A    between atoms: CAZ_27  and  CAB_28 
REMARK   16  A    between atoms: CB_30  and  CG_31 
REMARK   17  A    between atoms: CZ_34  and  OH_35 
ROOT
ATOM      1  CA  K26 d          -7.867  25.592 -11.736  0.00  0.00     0.093 C 
ATOM      2  H10 K26 d          -7.359  26.519 -11.433  0.00  0.00     0.088 H 
ENDROOT
BRANCH   1   3
ATOM      3  C   K26 d          -7.822  25.485 -13.262  0.00  0.00     0.241 C 
ATOM      4  NAY K26 d          -7.905  24.244 -13.750  0.00  0.00    -0.342 N 
ATOM      5  H9  K26 d          -8.073  23.487 -13.118  0.00  0.00     0.163 HD
ATOM      6  O   K26 d          -7.676  26.501 -13.943  0.00  0.00    -0.271 OA
BRANCH   4   7
ATOM      7  CBI K26 d          -7.759  23.951 -15.185  0.00  0.00     0.124 C 
ATOM      8  H8  K26 d          -7.448  24.868 -15.707  0.00  0.00     0.095 H 
BRANCH   7   9
ATOM      9  CAV K26 d          -6.645  22.891 -15.342  0.00  0.00    -0.010 C 
ATOM     10  H6  K26 d          -7.043  21.909 -15.047  0.00  0.00     0.044 H 
ATOM     11  H7  K26 d          -6.330  22.857 -16.396  0.00  0.00     0.044 H 
BRANCH   9  12
ATOM     12  CBF K26 d          -5.424  23.217 -14.467  0.00  0.00    -0.055 A 
ATOM     13  CAR K26 d          -5.087  22.365 -13.417  0.00  0.00    -0.074 A 
ATOM     14  CAN K26 d          -3.978  22.634 -12.620  0.00  0.00    -0.051 A 
ATOM     15  H1  K26 d          -5.692  21.487 -13.221  0.00  0.00     0.084 H 
ATOM     16  CBD K26 d          -3.197  23.762 -12.872  0.00  0.00     0.065 A 
ATOM     17  H2  K26 d          -3.722  21.968 -11.803  0.00  0.00     0.087 H 
ATOM     18  CAO K26 d          -3.519  24.620 -13.928  0.00  0.00    -0.051 A 
ATOM     19  CAS K26 d          -4.633  24.346 -14.721  0.00  0.00    -0.074 A 
ATOM     20  H4  K26 d          -2.906  25.492 -14.129  0.00  0.00     0.087 H 
ATOM     21  H5  K26 d          -4.890  25.011 -15.539  0.00  0.00     0.084 H 
BRANCH  16  22
ATOM     22  OAI K26 d          -2.118  24.013 -12.082  0.00  0.00    -0.361 OA
ATOM     23  H3  K26 d          -2.408  24.172 -11.192  0.00  0.00     0.217 HD
ENDBRANCH  16  22
ENDBRANCH   9  12
ENDBRANCH   7   9
BRANCH   7  24
ATOM     24  PBK K26 d          -9.361  23.397 -15.909  0.00  0.00     0.283 P 
ATOM     25  OAJ K26 d          -9.457  21.846 -15.610  0.00  0.00    -0.638 OA
ATOM     26  OAK K26 d         -10.474  24.159 -14.992  0.00  0.00    -0.638 OA
ATOM     27  OAG K26 d          -9.485  23.698 -17.361  0.00  0.00    -0.638 OA
ENDBRANCH   7  24
ENDBRANCH   4   7
ENDBRANCH   1   3
BRANCH   1  28
ATOM     28  N   K26 d          -9.278  25.648 -11.302  0.00  0.00    -0.346 N 
ATOM     29  CBB K26 d         -10.099  24.591 -11.269  0.00  0.00     0.241 C 
ATOM     30  OAF K26 d          -9.791  23.451 -11.619  0.00  0.00    -0.271 OA
ATOM     31  H11 K26 d          -9.645  26.533 -11.015  0.00  0.00     0.163 HD
BRANCH  29  32
ATOM     32  CBJ K26 d         -11.538  24.912 -10.828  0.00  0.00     0.092 C 
ATOM     33  H12 K26 d         -12.040  25.463 -11.637  0.00  0.00     0.088 H 
BRANCH  32  34
ATOM     34  CBG K26 d         -11.592  25.786  -9.569  0.00  0.00    -0.030 C 
ATOM     35  H13 K26 d         -11.216  26.789  -9.822  0.00  0.00     0.043 H 
BRANCH  34  36
ATOM     36  CAC K26 d         -13.041  25.914  -9.083  0.00  0.00    -0.071 C 
ATOM     37  H14 K26 d         -13.084  26.621  -8.240  0.00  0.00     0.028 H 
ATOM     38  H15 K26 d         -13.406  24.930  -8.755  0.00  0.00     0.028 H 
ATOM     39  H16 K26 d         -13.673  26.284  -9.904  0.00  0.00     0.028 H 
ENDBRANCH  34  36
BRANCH  34  40
ATOM     40  CAT K26 d         -10.709  25.201  -8.455  0.00  0.00    -0.063 C 
ATOM     41  H17 K26 d         -10.384  26.020  -7.797  0.00  0.00     0.033 H 
ATOM     42  H18 K26 d          -9.829  24.729  -8.915  0.00  0.00     0.033 H 
BRANCH  40  43
ATOM     43  CAA K26 d         -11.441  24.157  -7.613  0.00  0.00    -0.076 C 
ATOM     44  H19 K26 d         -12.454  24.517  -7.382  0.00  0.00     0.027 H 
ATOM     45  H20 K26 d         -10.889  23.989  -6.676  0.00  0.00     0.027 H 
ATOM     46  H21 K26 d         -11.505  23.213  -8.174  0.00  0.00     0.027 H 
ENDBRANCH  40  43
ENDBRANCH  34  40
ENDBRANCH  32  34
BRANCH  32  47
ATOM     47  NAX K26 d         -12.222  23.617 -10.639  0.00  0.00    -0.348 N 
ATOM     48  CAZ K26 d         -13.156  23.178 -11.485  0.00  0.00     0.214 C 
ATOM     49  OAD K26 d         -13.575  23.819 -12.446  0.00  0.00    -0.274 OA
ATOM     50  H22 K26 d         -11.977  23.051  -9.851  0.00  0.00     0.163 HD
BRANCH  48  51
ATOM     51  CAB K26 d         -13.729  21.795 -11.166  0.00  0.00    -0.003 C 
ATOM     52  H23 K26 d         -14.344  21.450 -12.010  0.00  0.00     0.040 H 
ATOM     53  H24 K26 d         -14.349  21.856 -10.260  0.00  0.00     0.040 H 
ATOM     54  H25 K26 d         -12.905  21.086 -11.000  0.00  0.00     0.040 H 
ENDBRANCH  48  51
ENDBRANCH  32  47
ENDBRANCH  29  32
ENDBRANCH   1  28
BRANCH   1  55
ATOM     55  CB  K26 d          -7.176  24.417 -11.057  0.00  0.00    -0.014 C 
ATOM     56  H26 K26 d          -6.518  23.909 -11.777  0.00  0.00     0.043 H 
ATOM     57  H27 K26 d          -7.931  23.708 -10.686  0.00  0.00     0.043 H 
BRANCH  55  58
ATOM     58  CG  K26 d          -6.342  24.945  -9.879  0.00  0.00    -0.056 A 
ATOM     59  CD1 K26 d          -4.986  25.213 -10.052  0.00  0.00    -0.074 A 
ATOM     60  CE1 K26 d          -4.226  25.709  -8.989  0.00  0.00    -0.051 A 
ATOM     61  H28 K26 d          -4.518  25.037 -11.015  0.00  0.00     0.084 H 
ATOM     62  CZ  K26 d          -4.824  25.940  -7.749  0.00  0.00     0.065 A 
ATOM     63  H29 K26 d          -3.171  25.915  -9.128  0.00  0.00     0.087 H 
ATOM     64  CE2 K26 d          -6.183  25.677  -7.579  0.00  0.00    -0.051 A 
ATOM     65  CD2 K26 d          -6.944  25.185  -8.642  0.00  0.00    -0.074 A 
ATOM     66  H31 K26 d          -6.650  25.856  -6.618  0.00  0.00     0.087 H 
ATOM     67  H32 K26 d          -8.001  24.990  -8.507  0.00  0.00     0.084 H 
BRANCH  62  68
ATOM     68  OH  K26 d          -4.075  26.415  -6.708  0.00  0.00    -0.361 OA
ATOM     69  H30 K26 d          -3.450  25.752  -6.440  0.00  0.00     0.217 HD
ENDBRANCH  62  68
ENDBRANCH  55  58
ENDBRANCH   1  55
TORSDOF 17
ENDMDL
MODEL 4
REMARK VINA RESULT:      -7.4      2.878      7.456
REMARK  17 active torsions:
REMARK  status: ('A' for Active; 'I' for Inactive)
REMARK    1  A    between atoms: CBD_3  and  OAI_4 
REMARK    2  A    between atoms: CBF_7  and  CAV_8 
REMARK    3  A    between atoms: CAV_8  and  CBI_9 
REMARK    4  A    between atoms: CBI_9  and  PBK_10 
REMARK    5  A    between atoms: CBI_9  and  NAY_14 
REMARK       I    between atoms: NAY_14  and  C_15 
REMARK    6  A    between atoms: C_15  and  CA_17 
REMARK    7  A    between atoms: CA_17  and  N_18 
REMARK    8  A    between atoms: CA_17  and  CB_30 
REMARK       I    between atoms: N_18  and  CBB_19 
REMARK    9  A    between atoms: CBB_19  and  CBJ_21 
REMARK   10  A    between atoms: CBJ_21  and  CBG_22 
REMARK   11  A    between atoms: CBJ_21  and  NAX_26 
REMARK   12  A    between atoms: CBG_22  and  CAC_23 
REMARK   13  A    between atoms: CBG_22  and  CAT_24 
REMARK   14  A    between atoms: CAT_24  and  CAA_25 
REMARK       I    between atoms: NAX_26  and  CAZ_27 
REMARK   15  A    between atoms: CAZ_27  and  CAB_28 
REMARK   16  A    between atoms: CB_30  and  CG_31 
REMARK   17  A    between atoms: CZ_34  and  OH_35 
ROOT
ATOM      1  CA  K26 d          -7.426  25.092 -12.247  0.00  0.00     0.093 C 
ATOM      2  H10 K26 d          -7.859  25.788 -12.979  0.00  0.00     0.088 H 
ENDROOT
BRANCH   1   3
ATOM      3  C   K26 d          -7.546  25.710 -10.852  0.00  0.00     0.241 C 
ATOM      4  NAY K26 d          -8.591  25.295 -10.131  0.00  0.00    -0.342 N 
ATOM      5  H9  K26 d          -9.169  24.565 -10.496  0.00  0.00     0.163 HD
ATOM      6  O   K26 d          -6.730  26.558 -10.486  0.00  0.00    -0.271 OA
BRANCH   4   7
ATOM      7  CBI K26 d          -8.922  25.874  -8.819  0.00  0.00     0.124 C 
ATOM      8  H8  K26 d          -8.501  26.889  -8.760  0.00  0.00     0.095 H 
BRANCH   7   9
ATOM      9  CAV K26 d         -10.461  25.971  -8.717  0.00  0.00    -0.010 C 
ATOM     10  H6  K26 d         -10.790  25.464  -7.798  0.00  0.00     0.044 H 
ATOM     11  H7  K26 d         -10.750  27.031  -8.674  0.00  0.00     0.044 H 
BRANCH   9  12
ATOM     12  CBF K26 d         -11.152  25.314  -9.923  0.00  0.00    -0.055 A 
ATOM     13  CAR K26 d         -11.359  23.936  -9.927  0.00  0.00    -0.074 A 
ATOM     14  CAN K26 d         -11.993  23.322 -11.004  0.00  0.00    -0.051 A 
ATOM     15  H1  K26 d         -11.023  23.340  -9.087  0.00  0.00     0.084 H 
ATOM     16  CBD K26 d         -12.427  24.089 -12.085  0.00  0.00     0.065 A 
ATOM     17  H2  K26 d         -12.150  22.250 -11.001  0.00  0.00     0.087 H 
ATOM     18  CAO K26 d         -12.235  25.474 -12.089  0.00  0.00    -0.051 A 
ATOM     19  CAS K26 d         -11.595  26.083 -11.009  0.00  0.00    -0.074 A 
ATOM     20  H4  K26 d         -12.580  26.071 -12.926  0.00  0.00     0.087 H 
ATOM     21  H5  K26 d         -11.438  27.156 -11.009  0.00  0.00     0.084 H 
BRANCH  16  22
ATOM     22  OAI K26 d         -13.044  23.474 -13.130  0.00  0.00    -0.361 OA
ATOM     23  H3  K26 d         -13.087  24.072 -13.867  0.00  0.00     0.217 HD
ENDBRANCH  16  22
ENDBRANCH   9  12
ENDBRANCH   7   9
BRANCH   7  24
ATOM     24  PBK K26 d          -8.191  24.872  -7.456  0.00  0.00     0.283 P 
ATOM     25  OAJ K26 d          -7.388  23.704  -8.160  0.00  0.00    -0.638 OA
ATOM     26  OAK K26 d          -7.111  25.889  -6.776  0.00  0.00    -0.638 OA
ATOM     27  OAG K26 d          -9.203  24.359  -6.495  0.00  0.00    -0.638 OA
ENDBRANCH   7  24
ENDBRANCH   4   7
ENDBRANCH   1   3
BRANCH   1  28
ATOM     28  N   K26 d          -5.996  24.887 -12.558  0.00  0.00    -0.346 N 
ATOM     29  CBB K26 d          -5.334  25.538 -13.523  0.00  0.00     0.241 C 
ATOM     30  OAF K26 d          -5.838  26.365 -14.285  0.00  0.00    -0.271 OA
ATOM     31  H11 K26 d          -5.490  24.219 -12.013  0.00  0.00     0.163 HD
BRANCH  29  32
ATOM     32  CBJ K26 d          -3.864  25.115 -13.687  0.00  0.00     0.092 C 
ATOM     33  H12 K26 d          -3.298  25.960 -14.103  0.00  0.00     0.088 H 
BRANCH  32  34
ATOM     34  CBG K26 d          -3.691  23.927 -14.642  0.00  0.00    -0.030 C 
ATOM     35  H13 K26 d          -2.740  24.048 -15.183  0.00  0.00     0.043 H 
BRANCH  34  36
ATOM     36  CAC K26 d          -3.640  22.618 -13.845  0.00  0.00    -0.071 C 
ATOM     37  H14 K26 d          -4.072  21.805 -14.449  0.00  0.00     0.028 H 
ATOM     38  H15 K26 d          -4.218  22.731 -12.916  0.00  0.00     0.028 H 
ATOM     39  H16 K26 d          -2.595  22.378 -13.600  0.00  0.00     0.028 H 
ENDBRANCH  34  36
BRANCH  34  40
ATOM     40  CAT K26 d          -4.833  23.877 -15.670  0.00  0.00    -0.063 C 
ATOM     41  H17 K26 d          -4.398  23.889 -16.680  0.00  0.00     0.033 H 
ATOM     42  H18 K26 d          -5.468  24.765 -15.534  0.00  0.00     0.033 H 
BRANCH  40  43
ATOM     43  CAA K26 d          -5.701  22.628 -15.525  0.00  0.00    -0.076 C 
ATOM     44  H19 K26 d          -5.565  21.983 -16.405  0.00  0.00     0.027 H 
ATOM     45  H20 K26 d          -6.758  22.923 -15.446  0.00  0.00     0.027 H 
ATOM     46  H21 K26 d          -5.405  22.079 -14.618  0.00  0.00     0.027 H 
ENDBRANCH  40  43
ENDBRANCH  34  40
ENDBRANCH  32  34
BRANCH  32  47
ATOM     47  NAX K26 d          -3.355  24.821 -12.333  0.00  0.00    -0.348 N 
ATOM     48  CAZ K26 d          -2.553  25.663 -11.678  0.00  0.00     0.214 C 
ATOM     49  OAD K26 d          -2.118  26.712 -12.149  0.00  0.00    -0.274 OA
ATOM     50  H22 K26 d          -3.620  23.963 -11.891  0.00  0.00     0.163 HD
BRANCH  48  51
ATOM     51  CAB K26 d          -2.156  25.226 -10.266  0.00  0.00    -0.003 C 
ATOM     52  H23 K26 d          -1.679  26.066  -9.742  0.00  0.00     0.040 H 
ATOM     53  H24 K26 d          -1.450  24.384 -10.329  0.00  0.00     0.040 H 
ATOM     54  H25 K26 d          -3.054  24.911  -9.714  0.00  0.00     0.040 H 
ENDBRANCH  48  51
ENDBRANCH  32  47
ENDBRANCH  29  32
ENDBRANCH   1  28
BRANCH   1  55
ATOM     55  CB  K26 d          -8.161  23.762 -12.350  0.00  0.00    -0.014 C 
ATOM     56  H26 K26 d          -8.761  23.599 -11.443  0.00  0.00     0.043 H 
ATOM     57  H27 K26 d          -7.433  22.944 -12.458  0.00  0.00     0.043 H 
BRANCH  55  58
ATOM     58  CG  K26 d          -9.083  23.798 -13.579  0.00  0.00    -0.056 A 
ATOM     59  CD1 K26 d          -9.398  25.017 -14.175  0.00  0.00    -0.074 A 
ATOM     60  CE1 K26 d         -10.223  25.055 -15.303  0.00  0.00    -0.051 A 
ATOM     61  H28 K26 d          -9.003  25.939 -13.764  0.00  0.00     0.084 H 
ATOM     62  CZ  K26 d         -10.732  23.871 -15.838  0.00  0.00     0.065 A 
ATOM     63  H29 K26 d         -10.468  26.005 -15.763  0.00  0.00     0.087 H 
ATOM     64  CE2 K26 d         -10.411  22.651 -15.244  0.00  0.00    -0.051 A 
ATOM     65  CD2 K26 d          -9.584  22.612 -14.119  0.00  0.00    -0.074 A 
ATOM     66  H31 K26 d         -10.805  21.730 -15.657  0.00  0.00     0.087 H 
ATOM     67  H32 K26 d          -9.330  21.661 -13.666  0.00  0.00     0.084 H 
BRANCH  62  68
ATOM     68  OH  K26 d         -11.549  23.912 -16.936  0.00  0.00    -0.361 OA
ATOM     69  H30 K26 d         -12.046  23.105 -16.989  0.00  0.00     0.217 HD
ENDBRANCH  62  68
ENDBRANCH  55  58
ENDBRANCH   1  55
TORSDOF 17
ENDMDL
MODEL 5
REMARK VINA RESULT:      -7.2      2.251      5.244
REMARK  17 active torsions:
REMARK  status: ('A' for Active; 'I' for Inactive)
REMARK    1  A    between atoms: CBD_3  and  OAI_4 
REMARK    2  A    between atoms: CBF_7  and  CAV_8 
REMARK    3  A    between atoms: CAV_8  and  CBI_9 
REMARK    4  A    between atoms: CBI_9  and  PBK_10 
REMARK    5  A    between atoms: CBI_9  and  NAY_14 
REMARK       I    between atoms: NAY_14  and  C_15 
REMARK    6  A    between atoms: C_15  and  CA_17 
REMARK    7  A    between atoms: CA_17  and  N_18 
REMARK    8  A    between atoms: CA_17  and  CB_30 
REMARK       I    between atoms: N_18  and  CBB_19 
REMARK    9  A    between atoms: CBB_19  and  CBJ_21 
REMARK   10  A    between atoms: CBJ_21  and  CBG_22 
REMARK   11  A    between atoms: CBJ_21  and  NAX_26 
REMARK   12  A    between atoms: CBG_22  and  CAC_23 
REMARK   13  A    between atoms: CBG_22  and  CAT_24 
REMARK   14  A    between atoms: CAT_24  and  CAA_25 
REMARK       I    between atoms: NAX_26  and  CAZ_27 
REMARK   15  A    between atoms: CAZ_27  and  CAB_28 
REMARK   16  A    between atoms: CB_30  and  CG_31 
REMARK   17  A    between atoms: CZ_34  and  OH_35 
ROOT
ATOM      1  CA  K26 d          -7.992  26.637 -12.676  0.00  0.00     0.093 C 
ATOM      2  H10 K26 d          -7.958  27.698 -12.964  0.00  0.00     0.088 H 
ENDROOT
BRANCH   1   3
ATOM      3  C   K26 d          -6.565  26.158 -12.396  0.00  0.00     0.241 C 
ATOM      4  NAY K26 d          -6.407  24.833 -12.352  0.00  0.00    -0.342 N 
ATOM      5  H9  K26 d          -7.183  24.246 -12.581  0.00  0.00     0.163 HD
ATOM      6  O   K26 d          -5.673  26.982 -12.192  0.00  0.00    -0.271 OA
BRANCH   4   7
ATOM      7  CBI K26 d          -5.128  24.206 -11.978  0.00  0.00     0.124 C 
ATOM      8  H8  K26 d          -4.426  24.990 -11.657  0.00  0.00     0.095 H 
BRANCH   7   9
ATOM      9  CAV K26 d          -5.394  23.261 -10.783  0.00  0.00    -0.010 C 
ATOM     10  H6  K26 d          -6.046  22.440 -11.116  0.00  0.00     0.044 H 
ATOM     11  H7  K26 d          -4.436  22.850 -10.433  0.00  0.00     0.044 H 
BRANCH   9  12
ATOM     12  CBF K26 d          -6.076  23.998  -9.618  0.00  0.00    -0.055 A 
ATOM     13  CAR K26 d          -5.432  25.080  -9.023  0.00  0.00    -0.074 A 
ATOM     14  CAN K26 d          -6.037  25.769  -7.975  0.00  0.00    -0.051 A 
ATOM     15  H1  K26 d          -4.456  25.388  -9.378  0.00  0.00     0.084 H 
ATOM     16  CBD K26 d          -7.295  25.376  -7.517  0.00  0.00     0.065 A 
ATOM     17  H2  K26 d          -5.530  26.610  -7.514  0.00  0.00     0.087 H 
ATOM     18  CAO K26 d          -7.955  24.297  -8.113  0.00  0.00    -0.051 A 
ATOM     19  CAS K26 d          -7.342  23.608  -9.160  0.00  0.00    -0.074 A 
ATOM     20  H4  K26 d          -8.936  23.997  -7.762  0.00  0.00     0.087 H 
ATOM     21  H5  K26 d          -7.848  22.768  -9.622  0.00  0.00     0.084 H 
BRANCH  16  22
ATOM     22  OAI K26 d          -7.871  26.058  -6.490  0.00  0.00    -0.361 OA
ATOM     23  H3  K26 d          -7.855  25.521  -5.707  0.00  0.00     0.217 HD
ENDBRANCH  16  22
ENDBRANCH   9  12
ENDBRANCH   7   9
BRANCH   7  24
ATOM     24  PBK K26 d          -4.383  23.326 -13.415  0.00  0.00     0.283 P 
ATOM     25  OAJ K26 d          -5.560  23.116 -14.452  0.00  0.00    -0.638 OA
ATOM     26  OAK K26 d          -3.350  24.424 -14.038  0.00  0.00    -0.638 OA
ATOM     27  OAG K26 d          -3.726  22.044 -13.043  0.00  0.00    -0.638 OA
ENDBRANCH   7  24
ENDBRANCH   4   7
ENDBRANCH   1   3
BRANCH   1  28
ATOM     28  N   K26 d          -8.550  25.849 -13.794  0.00  0.00    -0.346 N 
ATOM     29  CBB K26 d          -7.961  25.716 -14.990  0.00  0.00     0.241 C 
ATOM     30  OAF K26 d          -6.901  26.252 -15.314  0.00  0.00    -0.271 OA
ATOM     31  H11 K26 d          -9.424  25.386 -13.650  0.00  0.00     0.163 HD
BRANCH  29  32
ATOM     32  CBJ K26 d          -8.763  24.886 -16.008  0.00  0.00     0.092 C 
ATOM     33  H12 K26 d          -9.137  25.558 -16.794  0.00  0.00     0.088 H 
BRANCH  32  34
ATOM     34  CBG K26 d          -9.976  24.187 -15.381  0.00  0.00    -0.030 C 
ATOM     35  H13 K26 d          -9.933  24.323 -14.290  0.00  0.00     0.043 H 
BRANCH  34  36
ATOM     36  CAC K26 d         -11.272  24.818 -15.905  0.00  0.00    -0.071 C 
ATOM     37  H14 K26 d         -11.940  24.027 -16.279  0.00  0.00     0.028 H 
ATOM     38  H15 K26 d         -11.037  25.516 -16.721  0.00  0.00     0.028 H 
ATOM     39  H16 K26 d         -11.770  25.363 -15.090  0.00  0.00     0.028 H 
ENDBRANCH  34  36
BRANCH  34  40
ATOM     40  CAT K26 d          -9.960  22.680 -15.685  0.00  0.00    -0.063 C 
ATOM     41  H17 K26 d          -9.288  22.501 -16.538  0.00  0.00     0.033 H 
ATOM     42  H18 K26 d         -10.980  22.364 -15.949  0.00  0.00     0.033 H 
BRANCH  40  43
ATOM     43  CAA K26 d          -9.480  21.846 -14.499  0.00  0.00    -0.076 C 
ATOM     44  H19 K26 d         -10.280  21.784 -13.747  0.00  0.00     0.027 H 
ATOM     45  H20 K26 d          -8.593  22.320 -14.052  0.00  0.00     0.027 H 
ATOM     46  H21 K26 d          -9.220  20.834 -14.843  0.00  0.00     0.027 H 
ENDBRANCH  40  43
ENDBRANCH  34  40
ENDBRANCH  32  34
BRANCH  32  47
ATOM     47  NAX K26 d          -7.816  23.927 -16.611  0.00  0.00    -0.348 N 
ATOM     48  CAZ K26 d          -7.220  24.160 -17.782  0.00  0.00     0.214 C 
ATOM     49  OAD K26 d          -7.441  25.142 -18.488  0.00  0.00    -0.274 OA
ATOM     50  H22 K26 d          -7.615  23.075 -16.127  0.00  0.00     0.163 HD
BRANCH  48  51
ATOM     51  CAB K26 d          -6.233  23.085 -18.240  0.00  0.00    -0.003 C 
ATOM     52  H23 K26 d          -5.215  23.502 -18.253  0.00  0.00     0.040 H 
ATOM     53  H24 K26 d          -6.504  22.745 -19.251  0.00  0.00     0.040 H 
ATOM     54  H25 K26 d          -6.270  22.233 -17.545  0.00  0.00     0.040 H 
ENDBRANCH  48  51
ENDBRANCH  32  47
ENDBRANCH  29  32
ENDBRANCH   1  28
BRANCH   1  55
ATOM     55  CB  K26 d          -8.895  26.495 -11.458  0.00  0.00    -0.014 C 
ATOM     56  H26 K26 d          -9.279  27.483 -11.165  0.00  0.00     0.043 H 
ATOM     57  H27 K26 d          -8.324  26.061 -10.623  0.00  0.00     0.043 H 
BRANCH  55  58
ATOM     58  CG  K26 d         -10.069  25.570 -11.816  0.00  0.00    -0.056 A 
ATOM     59  CD1 K26 d         -11.253  26.110 -12.314  0.00  0.00    -0.074 A 
ATOM     60  CE1 K26 d         -12.318  25.272 -12.656  0.00  0.00    -0.051 A 
ATOM     61  H28 K26 d         -11.349  27.183 -12.436  0.00  0.00     0.084 H 
ATOM     62  CZ  K26 d         -12.199  23.890 -12.503  0.00  0.00     0.065 A 
ATOM     63  H29 K26 d         -13.238  25.696 -13.041  0.00  0.00     0.087 H 
ATOM     64  CE2 K26 d         -11.012  23.350 -12.010  0.00  0.00    -0.051 A 
ATOM     65  CD2 K26 d          -9.945  24.187 -11.671  0.00  0.00    -0.074 A 
ATOM     66  H31 K26 d         -10.916  22.278 -11.889  0.00  0.00     0.087 H 
ATOM     67  H32 K26 d          -9.021  23.762 -11.296  0.00  0.00     0.084 H 
BRANCH  62  68
ATOM     68  OH  K26 d         -13.248  23.074 -12.828  0.00  0.00    -0.361 OA
ATOM     69  H30 K26 d         -13.979  23.602 -13.124  0.00  0.00     0.217 HD
ENDBRANCH  62  68
ENDBRANCH  55  58
ENDBRANCH   1  55
TORSDOF 17
ENDMDL
MODEL 6
REMARK VINA RESULT:      -7.1      2.571      6.979
REMARK  17 active torsions:
REMARK  status: ('A' for Active; 'I' for Inactive)
REMARK    1  A    between atoms: CBD_3  and  OAI_4 
REMARK    2  A    between atoms: CBF_7  and  CAV_8 
REMARK    3  A    between atoms: CAV_8  and  CBI_9 
REMARK    4  A    between atoms: CBI_9  and  PBK_10 
REMARK    5  A    between atoms: CBI_9  and  NAY_14 
REMARK       I    between atoms: NAY_14  and  C_15 
REMARK    6  A    between atoms: C_15  and  CA_17 
REMARK    7  A    between atoms: CA_17  and  N_18 
REMARK    8  A    between atoms: CA_17  and  CB_30 
REMARK       I    between atoms: N_18  and  CBB_19 
REMARK    9  A    between atoms: CBB_19  and  CBJ_21 
REMARK   10  A    between atoms: CBJ_21  and  CBG_22 
REMARK   11  A    between atoms: CBJ_21  and  NAX_26 
REMARK   12  A    between atoms: CBG_22  and  CAC_23 
REMARK   13  A    between atoms: CBG_22  and  CAT_24 
REMARK   14  A    between atoms: CAT_24  and  CAA_25 
REMARK       I    between atoms: NAX_26  and  CAZ_27 
REMARK   15  A    between atoms: CAZ_27  and  CAB_28 
REMARK   16  A    between atoms: CB_30  and  CG_31 
REMARK   17  A    between atoms: CZ_34  and  OH_35 
ROOT
ATOM      1  CA  K26 d          -8.061  25.400 -12.583  0.00  0.00     0.093 C 
ATOM      2  H10 K26 d          -7.934  26.236 -13.288  0.00  0.00     0.088 H 
ENDROOT
BRANCH   1   3
ATOM      3  C   K26 d          -8.037  25.955 -11.157  0.00  0.00     0.241 C 
ATOM      4  NAY K26 d          -8.891  25.379 -10.306  0.00  0.00    -0.342 N 
ATOM      5  H9  K26 d          -9.419  24.588 -10.614  0.00  0.00     0.163 HD
ATOM      6  O   K26 d          -7.291  26.895 -10.878  0.00  0.00    -0.271 OA
BRANCH   4   7
ATOM      7  CBI K26 d          -9.081  25.868  -8.931  0.00  0.00     0.124 C 
ATOM      8  H8  K26 d          -8.695  26.896  -8.861  0.00  0.00     0.095 H 
BRANCH   7   9
ATOM      9  CAV K26 d         -10.600  25.889  -8.641  0.00  0.00    -0.010 C 
ATOM     10  H6  K26 d         -10.795  25.314  -7.723  0.00  0.00     0.044 H 
ATOM     11  H7  K26 d         -10.921  26.931  -8.496  0.00  0.00     0.044 H 
BRANCH   9  12
ATOM     12  CBF K26 d         -11.407  25.274  -9.795  0.00  0.00    -0.055 A 
ATOM     13  CAR K26 d         -11.637  23.900  -9.814  0.00  0.00    -0.074 A 
ATOM     14  CAN K26 d         -12.375  23.323 -10.843  0.00  0.00    -0.051 A 
ATOM     15  H1  K26 d         -11.238  23.277  -9.021  0.00  0.00     0.084 H 
ATOM     16  CBD K26 d         -12.891  24.124 -11.863  0.00  0.00     0.065 A 
ATOM     17  H2  K26 d         -12.550  22.253 -10.853  0.00  0.00     0.087 H 
ATOM     18  CAO K26 d         -12.676  25.506 -11.851  0.00  0.00    -0.051 A 
ATOM     19  CAS K26 d         -11.931  26.076 -10.818  0.00  0.00    -0.074 A 
ATOM     20  H4  K26 d         -13.084  26.129 -12.639  0.00  0.00     0.087 H 
ATOM     21  H5  K26 d         -11.756  27.147 -10.807  0.00  0.00     0.084 H 
BRANCH  16  22
ATOM     22  OAI K26 d         -13.609  23.545 -12.863  0.00  0.00    -0.361 OA
ATOM     23  H3  K26 d         -14.331  23.053 -12.490  0.00  0.00     0.217 HD
ENDBRANCH  16  22
ENDBRANCH   9  12
ENDBRANCH   7   9
BRANCH   7  24
ATOM     24  PBK K26 d          -8.152  24.826  -7.728  0.00  0.00     0.283 P 
ATOM     25  OAJ K26 d          -7.035  25.764  -7.114  0.00  0.00    -0.638 OA
ATOM     26  OAK K26 d          -9.252  24.520  -6.563  0.00  0.00    -0.638 OA
ATOM     27  OAG K26 d          -7.580  23.595  -8.337  0.00  0.00    -0.638 OA
ENDBRANCH   7  24
ENDBRANCH   4   7
ENDBRANCH   1   3
BRANCH   1  28
ATOM     28  N   K26 d          -6.938  24.454 -12.747  0.00  0.00    -0.346 N 
ATOM     29  CBB K26 d          -5.800  24.739 -13.393  0.00  0.00     0.241 C 
ATOM     30  OAF K26 d          -5.558  25.810 -13.951  0.00  0.00    -0.271 OA
ATOM     31  H11 K26 d          -7.035  23.541 -12.351  0.00  0.00     0.163 HD
BRANCH  29  32
ATOM     32  CBJ K26 d          -4.802  23.570 -13.473  0.00  0.00     0.092 C 
ATOM     33  H12 K26 d          -5.254  22.687 -13.000  0.00  0.00     0.088 H 
BRANCH  32  34
ATOM     34  CBG K26 d          -3.485  23.863 -12.745  0.00  0.00    -0.030 C 
ATOM     35  H13 K26 d          -3.181  22.960 -12.194  0.00  0.00     0.043 H 
BRANCH  34  36
ATOM     36  CAC K26 d          -2.390  24.210 -13.761  0.00  0.00    -0.071 C 
ATOM     37  H14 K26 d          -2.846  24.378 -14.748  0.00  0.00     0.028 H 
ATOM     38  H15 K26 d          -1.673  23.378 -13.826  0.00  0.00     0.028 H 
ATOM     39  H16 K26 d          -1.865  25.121 -13.439  0.00  0.00     0.028 H 
ENDBRANCH  34  36
BRANCH  34  40
ATOM     40  CAT K26 d          -3.656  25.013 -11.739  0.00  0.00    -0.063 C 
ATOM     41  H17 K26 d          -4.383  25.732 -12.147  0.00  0.00     0.033 H 
ATOM     42  H18 K26 d          -2.685  25.511 -11.605  0.00  0.00     0.033 H 
BRANCH  40  43
ATOM     43  CAA K26 d          -4.154  24.533 -10.376  0.00  0.00    -0.076 C 
ATOM     44  H19 K26 d          -5.218  24.265 -10.448  0.00  0.00     0.027 H 
ATOM     45  H20 K26 d          -4.028  25.337  -9.636  0.00  0.00     0.027 H 
ATOM     46  H21 K26 d          -3.573  23.653 -10.063  0.00  0.00     0.027 H 
ENDBRANCH  40  43
ENDBRANCH  34  40
ENDBRANCH  32  34
BRANCH  32  47
ATOM     47  NAX K26 d          -4.596  23.288 -14.908  0.00  0.00    -0.348 N 
ATOM     48  CAZ K26 d          -5.586  22.866 -15.697  0.00  0.00     0.214 C 
ATOM     49  OAD K26 d          -6.724  22.615 -15.306  0.00  0.00    -0.274 OA
ATOM     50  H22 K26 d          -3.685  23.418 -15.301  0.00  0.00     0.163 HD
BRANCH  48  51
ATOM     51  CAB K26 d          -5.211  22.666 -17.167  0.00  0.00    -0.003 C 
ATOM     52  H23 K26 d          -5.898  21.940 -17.626  0.00  0.00     0.040 H 
ATOM     53  H24 K26 d          -4.180  22.290 -17.235  0.00  0.00     0.040 H 
ATOM     54  H25 K26 d          -5.286  23.627 -17.698  0.00  0.00     0.040 H 
ENDBRANCH  48  51
ENDBRANCH  32  47
ENDBRANCH  29  32
ENDBRANCH   1  28
BRANCH   1  55
ATOM     55  CB  K26 d          -9.371  24.692 -12.902  0.00  0.00    -0.014 C 
ATOM     56  H26 K26 d         -10.187  25.145 -12.321  0.00  0.00     0.043 H 
ATOM     57  H27 K26 d          -9.286  23.625 -12.644  0.00  0.00     0.043 H 
BRANCH  55  58
ATOM     58  CG  K26 d          -9.661  24.838 -14.404  0.00  0.00    -0.056 A 
ATOM     59  CD1 K26 d          -9.061  25.864 -15.132  0.00  0.00    -0.074 A 
ATOM     60  CE1 K26 d          -9.309  25.991 -16.501  0.00  0.00    -0.051 A 
ATOM     61  H28 K26 d          -8.400  26.564 -14.635  0.00  0.00     0.084 H 
ATOM     62  CZ  K26 d         -10.158  25.090 -17.146  0.00  0.00     0.065 A 
ATOM     63  H29 K26 d          -8.842  26.791 -17.063  0.00  0.00     0.087 H 
ATOM     64  CE2 K26 d         -10.753  24.061 -16.418  0.00  0.00    -0.051 A 
ATOM     65  CD2 K26 d         -10.503  23.930 -15.050  0.00  0.00    -0.074 A 
ATOM     66  H31 K26 d         -11.413  23.359 -16.916  0.00  0.00     0.087 H 
ATOM     67  H32 K26 d         -10.961  23.123 -14.490  0.00  0.00     0.084 H 
BRANCH  62  68
ATOM     68  OH  K26 d         -10.408  25.225 -18.485  0.00  0.00    -0.361 OA
ATOM     69  H30 K26 d         -10.776  26.084 -18.652  0.00  0.00     0.217 HD
ENDBRANCH  62  68
ENDBRANCH  55  58
ENDBRANCH   1  55
TORSDOF 17
ENDMDL
MODEL 7
REMARK VINA RESULT:      -7.0      2.774      8.338
REMARK  17 active torsions:
REMARK  status: ('A' for Active; 'I' for Inactive)
REMARK    1  A    between atoms: CBD_3  and  OAI_4 
REMARK    2  A    between atoms: CBF_7  and  CAV_8 
REMARK    3  A    between atoms: CAV_8  and  CBI_9 
REMARK    4  A    between atoms: CBI_9  and  PBK_10 
REMARK    5  A    between atoms: CBI_9  and  NAY_14 
REMARK       I    between atoms: NAY_14  and  C_15 
REMARK    6  A    between atoms: C_15  and  CA_17 
REMARK    7  A    between atoms: CA_17  and  N_18 
REMARK    8  A    between atoms: CA_17  and  CB_30 
REMARK       I    between atoms: N_18  and  CBB_19 
REMARK    9  A    between atoms: CBB_19  and  CBJ_21 
REMARK   10  A    between atoms: CBJ_21  and  CBG_22 
REMARK   11  A    between atoms: CBJ_21  and  NAX_26 
REMARK   12  A    between atoms: CBG_22  and  CAC_23 
REMARK   13  A    between atoms: CBG_22  and  CAT_24 
REMARK   14  A    between atoms: CAT_24  and  CAA_25 
REMARK       I    between atoms: NAX_26  and  CAZ_27 
REMARK   15  A    between atoms: CAZ_27  and  CAB_28 
REMARK   16  A    between atoms: CB_30  and  CG_31 
REMARK   17  A    between atoms: CZ_34  and  OH_35 
ROOT
ATOM      1  CA  K26 d          -7.315  23.543 -11.723  0.00  0.00     0.093 C 
ATOM      2  H10 K26 d          -7.991  22.771 -12.119  0.00  0.00     0.088 H 
ENDROOT
BRANCH   1   3
ATOM      3  C   K26 d          -8.116  24.829 -11.500  0.00  0.00     0.241 C 
ATOM      4  NAY K26 d          -9.352  24.655 -11.024  0.00  0.00    -0.342 N 
ATOM      5  H9  K26 d          -9.645  23.735 -10.767  0.00  0.00     0.163 HD
ATOM      6  O   K26 d          -7.621  25.917 -11.795  0.00  0.00    -0.271 OA
BRANCH   4   7
ATOM      7  CBI K26 d         -10.297  25.773 -10.864  0.00  0.00     0.124 C 
ATOM      8  H8  K26 d          -9.736  26.719 -10.879  0.00  0.00     0.095 H 
BRANCH   7   9
ATOM      9  CAV K26 d         -11.265  25.751 -12.069  0.00  0.00    -0.010 C 
ATOM     10  H6  K26 d         -12.280  25.528 -11.707  0.00  0.00     0.044 H 
ATOM     11  H7  K26 d         -11.257  26.740 -12.551  0.00  0.00     0.044 H 
BRANCH   9  12
ATOM     12  CBF K26 d         -10.860  24.690 -13.104  0.00  0.00    -0.055 A 
ATOM     13  CAR K26 d         -11.139  23.348 -12.853  0.00  0.00    -0.074 A 
ATOM     14  CAN K26 d         -10.792  22.371 -13.782  0.00  0.00    -0.051 A 
ATOM     15  H1  K26 d         -11.629  23.064 -11.929  0.00  0.00     0.084 H 
ATOM     16  CBD K26 d         -10.163  22.735 -14.973  0.00  0.00     0.065 A 
ATOM     17  H2  K26 d         -11.011  21.328 -13.580  0.00  0.00     0.087 H 
ATOM     18  CAO K26 d          -9.886  24.079 -15.241  0.00  0.00    -0.051 A 
ATOM     19  CAS K26 d         -10.233  25.052 -14.304  0.00  0.00    -0.074 A 
ATOM     20  H4  K26 d          -9.405  24.362 -16.170  0.00  0.00     0.087 H 
ATOM     21  H5  K26 d         -10.016  26.096 -14.504  0.00  0.00     0.084 H 
BRANCH  16  22
ATOM     22  OAI K26 d          -9.828  21.767 -15.869  0.00  0.00    -0.361 OA
ATOM     23  H3  K26 d          -9.054  21.309 -15.565  0.00  0.00     0.217 HD
ENDBRANCH  16  22
ENDBRANCH   9  12
ENDBRANCH   7   9
BRANCH   7  24
ATOM     24  PBK K26 d         -11.182  25.659  -9.251  0.00  0.00     0.283 P 
ATOM     25  OAJ K26 d         -11.322  24.112  -8.943  0.00  0.00    -0.638 OA
ATOM     26  OAK K26 d         -10.117  26.291  -8.190  0.00  0.00    -0.638 OA
ATOM     27  OAG K26 d         -12.497  26.353  -9.252  0.00  0.00    -0.638 OA
ENDBRANCH   7  24
ENDBRANCH   4   7
ENDBRANCH   1   3
BRANCH   1  28
ATOM     28  N   K26 d          -6.249  23.809 -12.711  0.00  0.00    -0.346 N 
ATOM     29  CBB K26 d          -6.198  23.258 -13.930  0.00  0.00     0.241 C 
ATOM     30  OAF K26 d          -7.013  22.444 -14.368  0.00  0.00    -0.271 OA
ATOM     31  H11 K26 d          -5.519  24.441 -12.453  0.00  0.00     0.163 HD
BRANCH  29  32
ATOM     32  CBJ K26 d          -4.962  23.651 -14.758  0.00  0.00     0.092 C 
ATOM     33  H12 K26 d          -4.378  22.745 -14.972  0.00  0.00     0.088 H 
BRANCH  32  34
ATOM     34  CBG K26 d          -4.042  24.633 -14.022  0.00  0.00    -0.030 C 
ATOM     35  H13 K26 d          -4.528  24.928 -13.079  0.00  0.00     0.043 H 
BRANCH  34  36
ATOM     36  CAC K26 d          -2.707  23.953 -13.695  0.00  0.00    -0.071 C 
ATOM     37  H14 K26 d          -1.897  24.697 -13.738  0.00  0.00     0.028 H 
ATOM     38  H15 K26 d          -2.511  23.156 -14.426  0.00  0.00     0.028 H 
ATOM     39  H16 K26 d          -2.753  23.520 -12.685  0.00  0.00     0.028 H 
ENDBRANCH  34  36
BRANCH  34  40
ATOM     40  CAT K26 d          -3.801  25.897 -14.863  0.00  0.00    -0.063 C 
ATOM     41  H17 K26 d          -4.054  26.778 -14.255  0.00  0.00     0.033 H 
ATOM     42  H18 K26 d          -4.454  25.861 -15.747  0.00  0.00     0.033 H 
BRANCH  40  43
ATOM     43  CAA K26 d          -2.351  26.024 -15.330  0.00  0.00    -0.076 C 
ATOM     44  H19 K26 d          -2.300  25.852 -16.415  0.00  0.00     0.027 H 
ATOM     45  H20 K26 d          -1.731  25.279 -14.810  0.00  0.00     0.027 H 
ATOM     46  H21 K26 d          -1.980  27.034 -15.101  0.00  0.00     0.027 H 
ENDBRANCH  40  43
ENDBRANCH  34  40
ENDBRANCH  32  34
BRANCH  32  47
ATOM     47  NAX K26 d          -5.465  24.205 -16.031  0.00  0.00    -0.348 N 
ATOM     48  CAZ K26 d          -5.343  23.551 -17.187  0.00  0.00     0.214 C 
ATOM     49  OAD K26 d          -4.758  22.477 -17.317  0.00  0.00    -0.274 OA
ATOM     50  H22 K26 d          -5.912  25.101 -16.027  0.00  0.00     0.163 HD
BRANCH  48  51
ATOM     51  CAB K26 d          -5.960  24.247 -18.403  0.00  0.00    -0.003 C 
ATOM     52  H23 K26 d          -6.792  23.641 -18.789  0.00  0.00     0.040 H 
ATOM     53  H24 K26 d          -5.195  24.363 -19.185  0.00  0.00     0.040 H 
ATOM     54  H25 K26 d          -6.335  25.238 -18.106  0.00  0.00     0.040 H 
ENDBRANCH  48  51
ENDBRANCH  32  47
ENDBRANCH  29  32
ENDBRANCH   1  28
BRANCH   1  55
ATOM     55  CB  K26 d          -6.691  23.025 -10.433  0.00  0.00    -0.014 C 
ATOM     56  H26 K26 d          -6.091  22.129 -10.647  0.00  0.00     0.043 H 
ATOM     57  H27 K26 d          -7.484  22.773  -9.714  0.00  0.00     0.043 H 
BRANCH  55  58
ATOM     58  CG  K26 d          -5.789  24.121  -9.844  0.00  0.00    -0.056 A 
ATOM     59  CD1 K26 d          -4.539  24.371 -10.406  0.00  0.00    -0.074 A 
ATOM     60  CE1 K26 d          -3.722  25.377  -9.884  0.00  0.00    -0.051 A 
ATOM     61  H28 K26 d          -4.199  23.783 -11.252  0.00  0.00     0.084 H 
ATOM     62  CZ  K26 d          -4.155  26.138  -8.798  0.00  0.00     0.065 A 
ATOM     63  H29 K26 d          -2.749  25.567 -10.324  0.00  0.00     0.087 H 
ATOM     64  CE2 K26 d          -5.409  25.892  -8.239  0.00  0.00    -0.051 A 
ATOM     65  CD2 K26 d          -6.228  24.888  -8.763  0.00  0.00    -0.074 A 
ATOM     66  H31 K26 d          -5.749  26.481  -7.396  0.00  0.00     0.087 H 
ATOM     67  H32 K26 d          -7.206  24.706  -8.330  0.00  0.00     0.084 H 
BRANCH  62  68
ATOM     68  OH  K26 d          -3.348  27.115  -8.282  0.00  0.00    -0.361 OA
ATOM     69  H30 K26 d          -3.485  27.923  -8.762  0.00  0.00     0.217 HD
ENDBRANCH  62  68
ENDBRANCH  55  58
ENDBRANCH   1  55
TORSDOF 17
ENDMDL
MODEL 8
REMARK VINA RESULT:      -6.9      2.297      5.469
REMARK  17 active torsions:
REMARK  status: ('A' for Active; 'I' for Inactive)
REMARK    1  A    between atoms: CBD_3  and  OAI_4 
REMARK    2  A    between atoms: CBF_7  and  CAV_8 
REMARK    3  A    between atoms: CAV_8  and  CBI_9 
REMARK    4  A    between atoms: CBI_9  and  PBK_10 
REMARK    5  A    between atoms: CBI_9  and  NAY_14 
REMARK       I    between atoms: NAY_14  and  C_15 
REMARK    6  A    between atoms: C_15  and  CA_17 
REMARK    7  A    between atoms: CA_17  and  N_18 
REMARK    8  A    between atoms: CA_17  and  CB_30 
REMARK       I    between atoms: N_18  and  CBB_19 
REMARK    9  A    between atoms: CBB_19  and  CBJ_21 
REMARK   10  A    between atoms: CBJ_21  and  CBG_22 
REMARK   11  A    between atoms: CBJ_21  and  NAX_26 
REMARK   12  A    between atoms: CBG_22  and  CAC_23 
REMARK   13  A    between atoms: CBG_22  and  CAT_24 
REMARK   14  A    between atoms: CAT_24  and  CAA_25 
REMARK       I    between atoms: NAX_26  and  CAZ_27 
REMARK   15  A    between atoms: CAZ_27  and  CAB_28 
REMARK   16  A    between atoms: CB_30  and  CG_31 
REMARK   17  A    between atoms: CZ_34  and  OH_35 
ROOT
ATOM      1  CA  K26 d          -7.995  25.595 -12.623  0.00  0.00     0.093 C 
ATOM      2  H10 K26 d          -7.264  26.322 -12.240  0.00  0.00     0.088 H 
ENDROOT
BRANCH   1   3
ATOM      3  C   K26 d          -8.520  26.093 -13.972  0.00  0.00     0.241 C 
ATOM      4  NAY K26 d          -8.162  25.359 -15.029  0.00  0.00    -0.342 N 
ATOM      5  H9  K26 d          -7.660  24.508 -14.879  0.00  0.00     0.163 HD
ATOM      6  O   K26 d          -9.187  27.127 -14.025  0.00  0.00    -0.271 OA
BRANCH   4   7
ATOM      7  CBI K26 d          -8.481  25.761 -16.410  0.00  0.00     0.124 C 
ATOM      8  H8  K26 d          -8.736  26.832 -16.420  0.00  0.00     0.095 H 
BRANCH   7   9
ATOM      9  CAV K26 d          -7.215  25.547 -17.271  0.00  0.00    -0.010 C 
ATOM     10  H6  K26 d          -7.499  25.030 -18.200  0.00  0.00     0.044 H 
ATOM     11  H7  K26 d          -6.778  26.527 -17.515  0.00  0.00     0.044 H 
BRANCH   9  12
ATOM     12  CBF K26 d          -6.163  24.703 -16.533  0.00  0.00    -0.055 A 
ATOM     13  CAR K26 d          -6.312  23.319 -16.478  0.00  0.00    -0.074 A 
ATOM     14  CAN K26 d          -5.366  22.533 -15.825  0.00  0.00    -0.051 A 
ATOM     15  H1  K26 d          -7.171  22.851 -16.945  0.00  0.00     0.084 H 
ATOM     16  CBD K26 d          -4.259  23.133 -15.224  0.00  0.00     0.065 A 
ATOM     17  H2  K26 d          -5.488  21.457 -15.785  0.00  0.00     0.087 H 
ATOM     18  CAO K26 d          -4.092  24.521 -15.281  0.00  0.00    -0.051 A 
ATOM     19  CAS K26 d          -5.047  25.302 -15.933  0.00  0.00    -0.074 A 
ATOM     20  H4  K26 d          -3.227  24.986 -14.822  0.00  0.00     0.087 H 
ATOM     21  H5  K26 d          -4.925  26.379 -15.976  0.00  0.00     0.084 H 
BRANCH  16  22
ATOM     22  OAI K26 d          -3.343  22.353 -14.589  0.00  0.00    -0.361 OA
ATOM     23  H3  K26 d          -3.791  21.648 -14.135  0.00  0.00     0.217 HD
ENDBRANCH  16  22
ENDBRANCH   9  12
ENDBRANCH   7   9
BRANCH   7  24
ATOM     24  PBK K26 d          -9.931  24.822 -17.049  0.00  0.00     0.283 P 
ATOM     25  OAJ K26 d          -9.541  23.292 -16.934  0.00  0.00    -0.638 OA
ATOM     26  OAK K26 d         -11.096  25.131 -15.950  0.00  0.00    -0.638 OA
ATOM     27  OAG K26 d         -10.313  25.202 -18.436  0.00  0.00    -0.638 OA
ENDBRANCH   7  24
ENDBRANCH   4   7
ENDBRANCH   1   3
BRANCH   1  28
ATOM     28  N   K26 d          -9.125  25.497 -11.677  0.00  0.00    -0.346 N 
ATOM     29  CBB K26 d         -10.060  24.539 -11.715  0.00  0.00     0.241 C 
ATOM     30  OAF K26 d         -10.110  23.641 -12.556  0.00  0.00    -0.271 OA
ATOM     31  H11 K26 d          -9.196  26.191 -10.961  0.00  0.00     0.163 HD
BRANCH  29  32
ATOM     32  CBJ K26 d         -11.164  24.681 -10.653  0.00  0.00     0.092 C 
ATOM     33  H12 K26 d         -11.849  25.485 -10.961  0.00  0.00     0.088 H 
BRANCH  32  34
ATOM     34  CBG K26 d         -10.613  25.047  -9.269  0.00  0.00    -0.030 C 
ATOM     35  H13 K26 d         -10.579  26.144  -9.185  0.00  0.00     0.043 H 
BRANCH  34  36
ATOM     36  CAC K26 d         -11.538  24.499  -8.176  0.00  0.00    -0.071 C 
ATOM     37  H14 K26 d         -11.621  25.235  -7.362  0.00  0.00     0.028 H 
ATOM     38  H15 K26 d         -11.123  23.561  -7.780  0.00  0.00     0.028 H 
ATOM     39  H16 K26 d         -12.535  24.307  -8.600  0.00  0.00     0.028 H 
ENDBRANCH  34  36
BRANCH  34  40
ATOM     40  CAT K26 d          -9.189  24.499  -9.081  0.00  0.00    -0.063 C 
ATOM     41  H17 K26 d          -8.501  25.086  -9.709  0.00  0.00     0.033 H 
ATOM     42  H18 K26 d          -9.172  23.448  -9.402  0.00  0.00     0.033 H 
BRANCH  40  43
ATOM     43  CAA K26 d          -8.716  24.577  -7.631  0.00  0.00    -0.076 C 
ATOM     44  H19 K26 d          -9.515  25.003  -7.007  0.00  0.00     0.027 H 
ATOM     45  H20 K26 d          -7.823  25.217  -7.570  0.00  0.00     0.027 H 
ATOM     46  H21 K26 d          -8.468  23.567  -7.271  0.00  0.00     0.027 H 
ENDBRANCH  40  43
ENDBRANCH  34  40
ENDBRANCH  32  34
BRANCH  32  47
ATOM     47  NAX K26 d         -11.904  23.404 -10.640  0.00  0.00    -0.348 N 
ATOM     48  CAZ K26 d         -13.071  23.253 -11.269  0.00  0.00     0.214 C 
ATOM     49  OAD K26 d         -13.663  24.157 -11.856  0.00  0.00    -0.274 OA
ATOM     50  H22 K26 d         -11.519  22.626 -10.142  0.00  0.00     0.163 HD
BRANCH  48  51
ATOM     51  CAB K26 d         -13.680  21.852 -11.193  0.00  0.00    -0.003 C 
ATOM     52  H23 K26 d         -13.488  21.316 -12.134  0.00  0.00     0.040 H 
ATOM     53  H24 K26 d         -14.766  21.932 -11.032  0.00  0.00     0.040 H 
ATOM     54  H25 K26 d         -13.226  21.299 -10.357  0.00  0.00     0.040 H 
ENDBRANCH  48  51
ENDBRANCH  32  47
ENDBRANCH  29  32
ENDBRANCH   1  28
BRANCH   1  55
ATOM     55  CB  K26 d          -7.313  24.238 -12.738  0.00  0.00    -0.014 C 
ATOM     56  H26 K26 d          -7.232  23.953 -13.798  0.00  0.00     0.043 H 
ATOM     57  H27 K26 d          -7.903  23.481 -12.200  0.00  0.00     0.043 H 
BRANCH  55  58
ATOM     58  CG  K26 d          -5.909  24.334 -12.121  0.00  0.00    -0.056 A 
ATOM     59  CD1 K26 d          -5.340  25.582 -11.877  0.00  0.00    -0.074 A 
ATOM     60  CE1 K26 d          -4.071  25.675 -11.300  0.00  0.00    -0.051 A 
ATOM     61  H28 K26 d          -5.884  26.484 -12.135  0.00  0.00     0.084 H 
ATOM     62  CZ  K26 d          -3.368  24.517 -10.964  0.00  0.00     0.065 A 
ATOM     63  H29 K26 d          -3.631  26.648 -11.114  0.00  0.00     0.087 H 
ATOM     64  CE2 K26 d          -3.941  23.269 -11.202  0.00  0.00    -0.051 A 
ATOM     65  CD2 K26 d          -5.211  23.175 -11.775  0.00  0.00    -0.074 A 
ATOM     66  H31 K26 d          -3.398  22.367 -10.942  0.00  0.00     0.087 H 
ATOM     67  H32 K26 d          -5.656  22.201 -11.951  0.00  0.00     0.084 H 
BRANCH  62  68
ATOM     68  OH  K26 d          -2.120  24.612 -10.410  0.00  0.00    -0.361 OA
ATOM     69  H30 K26 d          -1.989  23.892  -9.805  0.00  0.00     0.217 HD
ENDBRANCH  62  68
ENDBRANCH  55  58
ENDBRANCH   1  55
TORSDOF 17
ENDMDL
MODEL 9
REMARK VINA RESULT:      -6.9      2.835      7.019
REMARK  17 active torsions:
REMARK  status: ('A' for Active; 'I' for Inactive)
REMARK    1  A    between atoms: CBD_3  and  OAI_4 
REMARK    2  A    between atoms: CBF_7  and  CAV_8 
REMARK    3  A    between atoms: CAV_8  and  CBI_9 
REMARK    4  A    between atoms: CBI_9  and  PBK_10 
REMARK    5  A    between atoms: CBI_9  and  NAY_14 
REMARK       I    between atoms: NAY_14  and  C_15 
REMARK    6  A    between atoms: C_15  and  CA_17 
REMARK    7  A    between atoms: CA_17  and  N_18 
REMARK    8  A    between atoms: CA_17  and  CB_30 
REMARK       I    between atoms: N_18  and  CBB_19 
REMARK    9  A    between atoms: CBB_19  and  CBJ_21 
REMARK   10  A    between atoms: CBJ_21  and  CBG_22 
REMARK   11  A    between atoms: CBJ_21  and  NAX_26 
REMARK   12  A    between atoms: CBG_22  and  CAC_23 
REMARK   13  A    between atoms: CBG_22  and  CAT_24 
REMARK   14  A    between atoms: CAT_24  and  CAA_25 
REMARK       I    between atoms: NAX_26  and  CAZ_27 
REMARK   15  A    between atoms: CAZ_27  and  CAB_28 
REMARK   16  A    between atoms: CB_30  and  CG_31 
REMARK   17  A    between atoms: CZ_34  and  OH_35 
ROOT
ATOM      1  CA  K26 d          -7.548  26.857 -13.480  0.00  0.00     0.093 C 
ATOM      2  H10 K26 d          -7.044  27.831 -13.403  0.00  0.00     0.088 H 
ENDROOT
BRANCH   1   3
ATOM      3  C   K26 d          -8.289  26.584 -12.168  0.00  0.00     0.241 C 
ATOM      4  NAY K26 d          -7.697  25.711 -11.349  0.00  0.00    -0.342 N 
ATOM      5  H9  K26 d          -6.793  25.360 -11.590  0.00  0.00     0.163 HD
ATOM      6  O   K26 d          -9.373  27.128 -11.953  0.00  0.00    -0.271 OA
BRANCH   4   7
ATOM      7  CBI K26 d          -8.331  25.246 -10.104  0.00  0.00     0.124 C 
ATOM      8  H8  K26 d          -9.056  26.002  -9.769  0.00  0.00     0.095 H 
BRANCH   7   9
ATOM      9  CAV K26 d          -9.092  23.937 -10.418  0.00  0.00    -0.010 C 
ATOM     10  H6  K26 d          -8.870  23.636 -11.453  0.00  0.00     0.044 H 
ATOM     11  H7  K26 d          -8.752  23.152  -9.727  0.00  0.00     0.044 H 
BRANCH   9  12
ATOM     12  CBF K26 d         -10.611  24.113 -10.265  0.00  0.00    -0.055 A 
ATOM     13  CAR K26 d         -11.470  23.185 -10.851  0.00  0.00    -0.074 A 
ATOM     14  CAN K26 d         -12.849  23.318 -10.715  0.00  0.00    -0.051 A 
ATOM     15  H1  K26 d         -11.061  22.355 -11.416  0.00  0.00     0.084 H 
ATOM     16  CBD K26 d         -13.377  24.385  -9.987  0.00  0.00     0.065 A 
ATOM     17  H2  K26 d         -13.512  22.594 -11.175  0.00  0.00     0.087 H 
ATOM     18  CAO K26 d         -12.525  25.317  -9.386  0.00  0.00    -0.051 A 
ATOM     19  CAS K26 d         -11.144  25.180  -9.530  0.00  0.00    -0.074 A 
ATOM     20  H4  K26 d         -12.936  26.141  -8.813  0.00  0.00     0.087 H 
ATOM     21  H5  K26 d         -10.480  25.903  -9.070  0.00  0.00     0.084 H 
BRANCH  16  22
ATOM     22  OAI K26 d         -14.727  24.502  -9.865  0.00  0.00    -0.361 OA
ATOM     23  H3  K26 d         -14.996  25.365 -10.157  0.00  0.00     0.217 HD
ENDBRANCH  16  22
ENDBRANCH   9  12
ENDBRANCH   7   9
BRANCH   7  24
ATOM     24  PBK K26 d          -7.077  25.025  -8.772  0.00  0.00     0.283 P 
ATOM     25  OAJ K26 d          -7.770  24.125  -7.670  0.00  0.00    -0.638 OA
ATOM     26  OAK K26 d          -5.913  24.137  -9.491  0.00  0.00    -0.638 OA
ATOM     27  OAG K26 d          -6.578  26.311  -8.215  0.00  0.00    -0.638 OA
ENDBRANCH   7  24
ENDBRANCH   4   7
ENDBRANCH   1   3
BRANCH   1  28
ATOM     28  N   K26 d          -6.535  25.801 -13.685  0.00  0.00    -0.346 N 
ATOM     29  CBB K26 d          -5.437  25.947 -14.437  0.00  0.00     0.241 C 
ATOM     30  OAF K26 d          -5.148  26.964 -15.070  0.00  0.00    -0.271 OA
ATOM     31  H11 K26 d          -6.679  24.921 -13.234  0.00  0.00     0.163 HD
BRANCH  29  32
ATOM     32  CBJ K26 d          -4.560  24.687 -14.538  0.00  0.00     0.092 C 
ATOM     33  H12 K26 d          -4.986  23.908 -13.889  0.00  0.00     0.088 H 
BRANCH  32  34
ATOM     34  CBG K26 d          -3.116  24.930 -14.082  0.00  0.00    -0.030 C 
ATOM     35  H13 K26 d          -2.621  25.582 -14.818  0.00  0.00     0.043 H 
BRANCH  34  36
ATOM     36  CAC K26 d          -3.108  25.633 -12.719  0.00  0.00    -0.071 C 
ATOM     37  H14 K26 d          -2.120  25.512 -12.250  0.00  0.00     0.028 H 
ATOM     38  H15 K26 d          -3.878  25.189 -12.072  0.00  0.00     0.028 H 
ATOM     39  H16 K26 d          -3.320  26.704 -12.858  0.00  0.00     0.028 H 
ENDBRANCH  34  36
BRANCH  34  40
ATOM     40  CAT K26 d          -2.335  23.608 -14.000  0.00  0.00    -0.063 C 
ATOM     41  H17 K26 d          -1.298  23.829 -13.709  0.00  0.00     0.033 H 
ATOM     42  H18 K26 d          -2.344  23.132 -14.991  0.00  0.00     0.033 H 
BRANCH  40  43
ATOM     43  CAA K26 d          -2.932  22.635 -12.984  0.00  0.00    -0.076 C 
ATOM     44  H19 K26 d          -2.939  21.621 -13.408  0.00  0.00     0.027 H 
ATOM     45  H20 K26 d          -3.962  22.939 -12.745  0.00  0.00     0.027 H 
ATOM     46  H21 K26 d          -2.325  22.645 -12.066  0.00  0.00     0.027 H 
ENDBRANCH  40  43
ENDBRANCH  34  40
ENDBRANCH  32  34
BRANCH  32  47
ATOM     47  NAX K26 d          -4.634  24.231 -15.940  0.00  0.00    -0.348 N 
ATOM     48  CAZ K26 d          -5.432  23.232 -16.321  0.00  0.00     0.214 C 
ATOM     49  OAD K26 d          -6.121  22.565 -15.551  0.00  0.00    -0.274 OA
ATOM     50  H22 K26 d          -4.067  24.686 -16.628  0.00  0.00     0.163 HD
BRANCH  48  51
ATOM     51  CAB K26 d          -5.421  22.918 -17.818  0.00  0.00    -0.003 C 
ATOM     52  H23 K26 d          -5.225  21.846 -17.968  0.00  0.00     0.040 H 
ATOM     53  H24 K26 d          -4.633  23.508 -18.310  0.00  0.00     0.040 H 
ATOM     54  H25 K26 d          -6.398  23.177 -18.254  0.00  0.00     0.040 H 
ENDBRANCH  48  51
ENDBRANCH  32  47
ENDBRANCH  29  32
ENDBRANCH   1  28
BRANCH   1  55
ATOM     55  CB  K26 d          -8.491  26.892 -14.675  0.00  0.00    -0.014 C 
ATOM     56  H26 K26 d          -7.986  27.364 -15.531  0.00  0.00     0.043 H 
ATOM     57  H27 K26 d          -9.392  27.470 -14.419  0.00  0.00     0.043 H 
BRANCH  55  58
ATOM     58  CG  K26 d          -8.886  25.452 -15.039  0.00  0.00    -0.056 A 
ATOM     59  CD1 K26 d          -9.464  24.626 -14.077  0.00  0.00    -0.074 A 
ATOM     60  CE1 K26 d          -9.840  23.321 -14.406  0.00  0.00    -0.051 A 
ATOM     61  H28 K26 d          -9.621  24.996 -13.070  0.00  0.00     0.084 H 
ATOM     62  CZ  K26 d          -9.641  22.841 -15.701  0.00  0.00     0.065 A 
ATOM     63  H29 K26 d         -10.287  22.681 -13.654  0.00  0.00     0.087 H 
ATOM     64  CE2 K26 d          -9.069  23.671 -16.665  0.00  0.00    -0.051 A 
ATOM     65  CD2 K26 d          -8.696  24.977 -16.337  0.00  0.00    -0.074 A 
ATOM     66  H31 K26 d          -8.914  23.301 -17.672  0.00  0.00     0.087 H 
ATOM     67  H32 K26 d          -8.259  25.621 -17.092  0.00  0.00     0.084 H 
BRANCH  62  68
ATOM     68  OH  K26 d         -10.001  21.559 -16.017  0.00  0.00    -0.361 OA
ATOM     69  H30 K26 d         -10.329  21.534 -16.908  0.00  0.00     0.217 HD
ENDBRANCH  62  68
ENDBRANCH  55  58
ENDBRANCH   1  55
TORSDOF 17
ENDMDL
MODEL 10
REMARK VINA RESULT:      -6.9      2.626      7.818
REMARK  17 active torsions:
REMARK  status: ('A' for Active; 'I' for Inactive)
REMARK    1  A    between atoms: CBD_3  and  OAI_4 
REMARK    2  A    between atoms: CBF_7  and  CAV_8 
REMARK    3  A    between atoms: CAV_8  and  CBI_9 
REMARK    4  A    between atoms: CBI_9  and  PBK_10 
REMARK    5  A    between atoms: CBI_9  and  NAY_14 
REMARK       I    between atoms: NAY_14  and  C_15 
REMARK    6  A    between atoms: C_15  and  CA_17 
REMARK    7  A    between atoms: CA_17  and  N_18 
REMARK    8  A    between atoms: CA_17  and  CB_30 
REMARK       I    between atoms: N_18  and  CBB_19 
REMARK    9  A    between atoms: CBB_19  and  CBJ_21 
REMARK   10  A    between atoms: CBJ_21  and  CBG_22 
REMARK   11  A    between atoms: CBJ_21  and  NAX_26 
REMARK   12  A    between atoms: CBG_22  and  CAC_23 
REMARK   13  A    between atoms: CBG_22  and  CAT_24 
REMARK   14  A    between atoms: CAT_24  and  CAA_25 
REMARK       I    between atoms: NAX_26  and  CAZ_27 
REMARK   15  A    between atoms: CAZ_27  and  CAB_28 
REMARK   16  A    between atoms: CB_30  and  CG_31 
REMARK   17  A    between atoms: CZ_34  and  OH_35 
ROOT
ATOM      1  CA  K26 d          -6.498  24.289 -12.484  0.00  0.00     0.093 C 
ATOM      2  H10 K26 d          -6.535  23.315 -11.975  0.00  0.00     0.088 H 
ENDROOT
BRANCH   1   3
ATOM      3  C   K26 d          -7.844  24.535 -13.172  0.00  0.00     0.241 C 
ATOM      4  NAY K26 d          -8.637  23.465 -13.271  0.00  0.00    -0.342 N 
ATOM      5  H9  K26 d          -8.355  22.613 -12.831  0.00  0.00     0.163 HD
ATOM      6  O   K26 d          -8.107  25.651 -13.620  0.00  0.00    -0.271 OA
BRANCH   4   7
ATOM      7  CBI K26 d          -9.912  23.496 -14.007  0.00  0.00     0.124 C 
ATOM      8  H8  K26 d         -10.591  22.745 -13.577  0.00  0.00     0.095 H 
BRANCH   7   9
ATOM      9  CAV K26 d         -10.537  24.897 -13.812  0.00  0.00    -0.010 C 
ATOM     10  H6  K26 d          -9.730  25.640 -13.734  0.00  0.00     0.044 H 
ATOM     11  H7  K26 d         -11.167  25.131 -14.684  0.00  0.00     0.044 H 
BRANCH   9  12
ATOM     12  CBF K26 d         -11.400  24.962 -12.542  0.00  0.00    -0.055 A 
ATOM     13  CAR K26 d         -12.381  23.996 -12.331  0.00  0.00    -0.074 A 
ATOM     14  CAN K26 d         -13.166  24.029 -11.181  0.00  0.00    -0.051 A 
ATOM     15  H1  K26 d         -12.534  23.215 -13.066  0.00  0.00     0.084 H 
ATOM     16  CBD K26 d         -12.970  25.033 -10.233  0.00  0.00     0.065 A 
ATOM     17  H2  K26 d         -13.929  23.275 -11.023  0.00  0.00     0.087 H 
ATOM     18  CAO K26 d         -11.982  26.003 -10.428  0.00  0.00    -0.051 A 
ATOM     19  CAS K26 d         -11.202  25.967 -11.585  0.00  0.00    -0.074 A 
ATOM     20  H4  K26 d         -11.824  26.778  -9.687  0.00  0.00     0.087 H 
ATOM     21  H5  K26 d         -10.438  26.720 -11.744  0.00  0.00     0.084 H 
BRANCH  16  22
ATOM     22  OAI K26 d         -13.747  25.052  -9.116  0.00  0.00    -0.361 OA
ATOM     23  H3  K26 d         -13.676  25.903  -8.698  0.00  0.00     0.217 HD
ENDBRANCH  16  22
ENDBRANCH   9  12
ENDBRANCH   7   9
BRANCH   7  24
ATOM     24  PBK K26 d          -9.655  23.084 -15.784  0.00  0.00     0.283 P 
ATOM     25  OAJ K26 d          -9.618  21.503 -15.861  0.00  0.00    -0.638 OA
ATOM     26  OAK K26 d         -11.034  23.592 -16.493  0.00  0.00    -0.638 OA
ATOM     27  OAG K26 d          -8.432  23.704 -16.361  0.00  0.00    -0.638 OA
ENDBRANCH   7  24
ENDBRANCH   4   7
ENDBRANCH   1   3
BRANCH   1  28
ATOM     28  N   K26 d          -5.435  24.261 -13.509  0.00  0.00    -0.346 N 
ATOM     29  CBB K26 d          -4.886  23.140 -13.994  0.00  0.00     0.241 C 
ATOM     30  OAF K26 d          -5.177  22.000 -13.630  0.00  0.00    -0.271 OA
ATOM     31  H11 K26 d          -5.104  25.135 -13.864  0.00  0.00     0.163 HD
BRANCH  29  32
ATOM     32  CBJ K26 d          -3.761  23.372 -15.018  0.00  0.00     0.092 C 
ATOM     33  H12 K26 d          -3.509  22.410 -15.489  0.00  0.00     0.088 H 
BRANCH  32  34
ATOM     34  CBG K26 d          -2.480  23.924 -14.380  0.00  0.00    -0.030 C 
ATOM     35  H13 K26 d          -1.619  23.382 -14.798  0.00  0.00     0.043 H 
BRANCH  34  36
ATOM     36  CAC K26 d          -2.331  25.414 -14.710  0.00  0.00    -0.071 C 
ATOM     37  H14 K26 d          -1.273  25.704 -14.625  0.00  0.00     0.028 H 
ATOM     38  H15 K26 d          -2.931  26.008 -14.005  0.00  0.00     0.028 H 
ATOM     39  H16 K26 d          -2.682  25.600 -15.736  0.00  0.00     0.028 H 
ENDBRANCH  34  36
BRANCH  34  40
ATOM     40  CAT K26 d          -2.493  23.718 -12.856  0.00  0.00    -0.063 C 
ATOM     41  H17 K26 d          -1.735  22.964 -12.597  0.00  0.00     0.033 H 
ATOM     42  H18 K26 d          -3.488  23.355 -12.558  0.00  0.00     0.033 H 
BRANCH  40  43
ATOM     43  CAA K26 d          -2.189  25.003 -12.087  0.00  0.00    -0.076 C 
ATOM     44  H19 K26 d          -3.112  25.379 -11.623  0.00  0.00     0.027 H 
ATOM     45  H20 K26 d          -1.791  25.759 -12.779  0.00  0.00     0.027 H 
ATOM     46  H21 K26 d          -1.444  24.794 -11.305  0.00  0.00     0.027 H 
ENDBRANCH  40  43
ENDBRANCH  34  40
ENDBRANCH  32  34
BRANCH  32  47
ATOM     47  NAX K26 d          -4.306  24.277 -16.049  0.00  0.00    -0.348 N 
ATOM     48  CAZ K26 d          -4.957  23.822 -17.121  0.00  0.00     0.214 C 
ATOM     49  OAD K26 d          -5.109  22.631 -17.385  0.00  0.00    -0.274 OA
ATOM     50  H22 K26 d          -4.185  25.265 -15.940  0.00  0.00     0.163 HD
BRANCH  48  51
ATOM     51  CAB K26 d          -5.498  24.898 -18.065  0.00  0.00    -0.003 C 
ATOM     52  H23 K26 d          -6.197  25.548 -17.519  0.00  0.00     0.040 H 
ATOM     53  H24 K26 d          -6.022  24.419 -18.905  0.00  0.00     0.040 H 
ATOM     54  H25 K26 d          -4.662  25.501 -18.451  0.00  0.00     0.040 H 
ENDBRANCH  48  51
ENDBRANCH  32  47
ENDBRANCH  29  32
ENDBRANCH   1  28
BRANCH   1  55
ATOM     55  CB  K26 d          -6.177  25.363 -11.452  0.00  0.00    -0.014 C 
ATOM     56  H26 K26 d          -6.380  26.357 -11.877  0.00  0.00     0.043 H 
ATOM     57  H27 K26 d          -5.116  25.296 -11.167  0.00  0.00     0.043 H 
BRANCH  55  58
ATOM     58  CG  K26 d          -7.060  25.141 -10.214  0.00  0.00    -0.056 A 
ATOM     59  CD1 K26 d          -6.958  23.953  -9.492  0.00  0.00    -0.074 A 
ATOM     60  CE1 K26 d          -7.747  23.753  -8.356  0.00  0.00    -0.051 A 
ATOM     61  H28 K26 d          -6.266  23.183  -9.812  0.00  0.00     0.084 H 
ATOM     62  CZ  K26 d          -8.638  24.743  -7.938  0.00  0.00     0.065 A 
ATOM     63  H29 K26 d          -7.667  22.827  -7.797  0.00  0.00     0.087 H 
ATOM     64  CE2 K26 d          -8.734  25.933  -8.658  0.00  0.00    -0.051 A 
ATOM     65  CD2 K26 d          -7.943  26.136  -9.792  0.00  0.00    -0.074 A 
ATOM     66  H31 K26 d          -9.425  26.704  -8.337  0.00  0.00     0.087 H 
ATOM     67  H32 K26 d          -8.016  27.066 -10.344  0.00  0.00     0.084 H 
BRANCH  62  68
ATOM     68  OH  K26 d          -9.417  24.539  -6.832  0.00  0.00    -0.361 OA
ATOM     69  H30 K26 d          -8.877  24.589  -6.052  0.00  0.00     0.217 HD
ENDBRANCH  62  68
ENDBRANCH  55  58
ENDBRANCH   1  55
TORSDOF 17
ENDMDL
