REMARK  8 active torsions:
REMARK  status: ('A' for Active; 'I' for Inactive)
REMARK    1  A    between atoms: C4_4  and  N17_5 
REMARK    2  A    between atoms: C10_8  and  C18_9 
REMARK    3  A    between atoms: C18_9  and  C19_10 
REMARK    4  A    between atoms: C19_10  and  N20_11 
REMARK    5  A    between atoms: N20_11  and  C21_12 
REMARK    6  A    between atoms: C21_12  and  C22_13 
REMARK    7  A    between atoms: C12_20  and  N14_21 
REMARK    8  A    between atoms: N14_21  and  C15_22 
ROOT
ATOM      1  C2  AFQ d          18.183  17.142  23.055  0.00  0.00     0.272 C 
ATOM      2  O16 AFQ d          19.278  17.516  23.435  0.00  0.00    -0.267 OA
ATOM      3  N3  AFQ d          17.141  16.866  23.884  0.00  0.00    -0.156 N 
ATOM      4  C4  AFQ d          15.991  16.374  23.334  0.00  0.00     0.679 C 
ATOM      5  N5  AFQ d          15.791  16.293  22.067  0.00  0.00    -0.190 N 
ATOM      6  C6  AFQ d          16.706  16.627  21.109  0.00  0.00     0.073 A 
ATOM      7  C10 AFQ d          16.384  16.522  19.736  0.00  0.00     0.004 A 
ATOM      8  C9  AFQ d          17.406  16.913  18.869  0.00  0.00     0.111 A 
ATOM      9  N11 AFQ d          17.498  17.047  17.524  0.00  0.00    -0.062 NA
ATOM     10  C12 AFQ d          18.662  17.435  17.170  0.00  0.00     0.701 A 
ATOM     11  N13 AFQ d          19.446  17.652  18.244  0.00  0.00    -0.188 N 
ATOM     12  C8  AFQ d          18.621  17.337  19.340  0.00  0.00     0.080 A 
ATOM     13  C7  AFQ d          18.987  17.434  20.681  0.00  0.00    -0.037 A 
ATOM     14  C1  AFQ d          17.971  17.036  21.565  0.00  0.00     0.062 A 
ATOM     15  H1  AFQ d          17.214  17.019  24.869  0.00  0.00     0.187 HD
ATOM     16  H4  AFQ d          14.873  15.951  21.750  0.00  0.00     0.184 HD
ATOM     17  H26 AFQ d          20.424  17.974  18.259  0.00  0.00     0.184 HD
ATOM     18  H27 AFQ d          19.960  17.782  21.009  0.00  0.00     0.088 H 
ENDROOT
BRANCH   7  19
ATOM     19  C18 AFQ d          15.146  15.865  19.154  0.00  0.00    -0.014 C 
ATOM     20  H5  AFQ d          14.769  16.506  18.344  0.00  0.00     0.042 H 
ATOM     21  H6  AFQ d          14.390  15.798  19.950  0.00  0.00     0.042 H 
BRANCH  19  22
ATOM     22  C19 AFQ d          15.366  14.425  18.571  0.00  0.00     0.085 C 
ATOM     23  H7  AFQ d          15.359  13.677  19.377  0.00  0.00     0.076 H 
ATOM     24  H8  AFQ d          16.321  14.370  18.028  0.00  0.00     0.076 H 
BRANCH  22  25
ATOM     25  N20 AFQ d          14.222  14.205  17.642  0.00  0.00    -0.074 N 
ATOM     26  H9  AFQ d          14.348  13.303  17.211  0.00  0.00     0.277 HD
ATOM     27  H10 AFQ d          14.260  14.923  16.936  0.00  0.00     0.277 HD
BRANCH  25  28
ATOM     28  C21 AFQ d          12.853  14.233  18.244  0.00  0.00     0.085 C 
ATOM     29  H11 AFQ d          12.752  15.113  18.896  0.00  0.00     0.076 H 
ATOM     30  H12 AFQ d          12.688  13.319  18.834  0.00  0.00     0.076 H 
BRANCH  28  31
ATOM     31  C22 AFQ d          11.810  14.310  17.089  0.00  0.00    -0.031 C 
ATOM     32  C26 AFQ d          11.695  15.716  16.474  0.00  0.00    -0.060 C 
ATOM     33  C25 AFQ d          10.248  15.777  15.924  0.00  0.00    -0.065 C 
ATOM     34  H14 AFQ d          12.426  15.847  15.662  0.00  0.00     0.033 H 
ATOM     35  H15 AFQ d          11.854  16.490  17.239  0.00  0.00     0.033 H 
ATOM     36  C24 AFQ d           9.399  14.960  16.956  0.00  0.00    -0.065 C 
ATOM     37  H16 AFQ d          10.192  15.319  14.926  0.00  0.00     0.033 H 
ATOM     38  H17 AFQ d           9.897  16.818  15.870  0.00  0.00     0.033 H 
ATOM     39  C23 AFQ d          10.390  13.976  17.605  0.00  0.00    -0.060 C 
ATOM     40  H18 AFQ d           8.592  14.414  16.445  0.00  0.00     0.033 H 
ATOM     41  H19 AFQ d           8.966  15.629  17.715  0.00  0.00     0.033 H 
ATOM     42  H20 AFQ d          10.357  14.082  18.699  0.00  0.00     0.033 H 
ATOM     43  H21 AFQ d          10.126  12.945  17.328  0.00  0.00     0.033 H 
ATOM     44  H13 AFQ d          12.103  13.592  16.309  0.00  0.00     0.042 H 
ENDBRANCH  28  31
ENDBRANCH  25  28
ENDBRANCH  22  25
ENDBRANCH  19  22
ENDBRANCH   7  19
BRANCH   4  45
ATOM     45  N17 AFQ d          14.999  16.026  24.195  0.00  0.00    -0.234 N 
ATOM     46  H2  AFQ d          14.111  15.650  23.833  0.00  0.00     0.174 HD
ATOM     47  H3  AFQ d          15.135  16.139  25.210  0.00  0.00     0.174 HD
ENDBRANCH   4  45
BRANCH  10  48
ATOM     48  N14 AFQ d          19.226  17.660  15.982  0.00  0.00    -0.229 N 
ATOM     49  H22 AFQ d          20.198  18.002  15.987  0.00  0.00     0.177 HD
BRANCH  48  50
ATOM     50  C15 AFQ d          18.608  17.471  14.685  0.00  0.00    -0.005 C 
ATOM     51  H23 AFQ d          19.324  17.741  13.895  0.00  0.00     0.057 H 
ATOM     52  H24 AFQ d          17.717  18.111  14.607  0.00  0.00     0.057 H 
ATOM     53  H25 AFQ d          18.314  16.418  14.569  0.00  0.00     0.057 H 
ENDBRANCH  48  50
ENDBRANCH  10  48
TORSDOF 8
