MODEL 1
REMARK VINA RESULT:      -6.1      0.000      0.000
REMARK  8 active torsions:
REMARK  status: ('A' for Active; 'I' for Inactive)
REMARK    1  A    between atoms: C2_2  and  C6_6 
REMARK    2  A    between atoms: C3_3  and  O20_16 
REMARK    3  A    between atoms: C5_5  and  C9_9 
REMARK    4  A    between atoms: C11_11  and  N29_21 
REMARK    5  A    between atoms: O20_16  and  C21_17 
REMARK    6  A    between atoms: C21_17  and  C22_18 
REMARK    7  A    between atoms: N29_21  and  C30_22 
REMARK    8  A    between atoms: C30_22  and  C31_23 
ROOT
ATOM      1  C9  MOL d          47.860  11.810   1.344  0.00  0.00    -0.015 A 
ATOM      2  C10 MOL d          47.672  10.470   1.825  0.00  0.00    -0.046 A 
ATOM      3  C11 MOL d          48.472   9.403   1.319  0.00  0.00     0.029 A 
ATOM      4  C12 MOL d          49.479   9.671   0.317  0.00  0.00    -0.058 A 
ATOM      5  C13 MOL d          49.677  11.006  -0.168  0.00  0.00    -0.080 A 
ATOM      6  C14 MOL d          48.862  12.065   0.350  0.00  0.00    -0.072 A 
ATOM      7  H1  MOL d          46.917  10.268   2.576  0.00  0.00     0.088 H 
ATOM      8  H2  MOL d          50.087   8.860  -0.068  0.00  0.00     0.086 H 
ATOM      9  H3  MOL d          50.434  11.212  -0.916  0.00  0.00     0.083 H 
ATOM     10  H4  MOL d          49.006  13.075  -0.016  0.00  0.00     0.084 H 
ENDROOT
BRANCH   1  11
ATOM     11  C5  MOL d          47.027  12.945   1.855  0.00  0.00     0.036 A 
ATOM     12  S1  MOL d          47.509  13.844   3.197  0.00  0.00    -0.078 SA
ATOM     13  C2  MOL d          46.165  14.898   3.198  0.00  0.00     0.117 A 
ATOM     14  C3  MOL d          45.299  14.562   2.124  0.00  0.00     0.112 A 
ATOM     15  C4  MOL d          45.794  13.458   1.377  0.00  0.00     0.064 A 
ATOM     16 BR19 MOL d          44.859  12.770  -0.120  0.00  0.00    -0.047 Br
BRANCH  13  17
ATOM     17  C6  MOL d          46.051  15.915   4.172  0.00  0.00     0.219 C 
ATOM     18  O7  MOL d          46.865  16.835   4.227  0.00  0.00    -0.643 OA
ATOM     19  O8  MOL d          45.103  15.843   4.962  0.00  0.00    -0.643 OA
ENDBRANCH  13  17
BRANCH  14  20
ATOM     20  O20 MOL d          44.066  15.213   1.771  0.00  0.00    -0.338 OA
BRANCH  20  21
ATOM     21  C21 MOL d          44.201  16.562   1.311  0.00  0.00     0.106 C 
ATOM     22  H5  MOL d          45.146  16.983   1.684  0.00  0.00     0.091 H 
ATOM     23  H6  MOL d          43.358  17.161   1.686  0.00  0.00     0.091 H 
BRANCH  21  24
ATOM     24  C22 MOL d          44.201  16.589  -0.217  0.00  0.00     0.198 C 
ATOM     25  O25 MOL d          44.960  17.378  -0.809  0.00  0.00    -0.646 OA
ATOM     26  O26 MOL d          43.444  15.820  -0.816  0.00  0.00    -0.646 OA
ENDBRANCH  21  24
ENDBRANCH  20  21
ENDBRANCH  14  20
ENDBRANCH   1  11
BRANCH   3  27
ATOM     27  N29 MOL d          48.229   8.140   1.828  0.00  0.00    -0.386 N 
ATOM     28  H7  MOL d          48.202   7.357   1.159  0.00  0.00     0.160 HD
BRANCH  27  29
ATOM     29  C30 MOL d          48.006   7.824   3.249  0.00  0.00     0.016 C 
ATOM     30  H8  MOL d          47.172   7.111   3.322  0.00  0.00     0.071 H 
ATOM     31  H9  MOL d          47.742   8.753   3.776  0.00  0.00     0.071 H 
BRANCH  29  32
ATOM     32  C31 MOL d          49.218   7.217   3.923  0.00  0.00    -0.041 A 
ATOM     33  C34 MOL d          49.055   6.073   4.783  0.00  0.00    -0.075 A 
ATOM     34  C35 MOL d          50.196   5.490   5.421  0.00  0.00    -0.082 A 
ATOM     35  H10 MOL d          48.069   5.654   4.947  0.00  0.00     0.084 H 
ATOM     36  C36 MOL d          51.491   6.064   5.187  0.00  0.00    -0.083 A 
ATOM     37  H11 MOL d          50.084   4.630   6.070  0.00  0.00     0.083 H 
ATOM     38  C37 MOL d          51.661   7.209   4.328  0.00  0.00    -0.082 A 
ATOM     39  H12 MOL d          52.359   5.627   5.666  0.00  0.00     0.083 H 
ATOM     40  C38 MOL d          50.513   7.789   3.690  0.00  0.00    -0.075 A 
ATOM     41  H13 MOL d          52.648   7.628   4.165  0.00  0.00     0.083 H 
ATOM     42  H14 MOL d          50.624   8.650   3.040  0.00  0.00     0.084 H 
ENDBRANCH  29  32
ENDBRANCH  27  29
ENDBRANCH   3  27
TORSDOF 8
ENDMDL
MODEL 2
REMARK VINA RESULT:      -5.6      4.632      8.275
REMARK  8 active torsions:
REMARK  status: ('A' for Active; 'I' for Inactive)
REMARK    1  A    between atoms: C2_2  and  C6_6 
REMARK    2  A    between atoms: C3_3  and  O20_16 
REMARK    3  A    between atoms: C5_5  and  C9_9 
REMARK    4  A    between atoms: C11_11  and  N29_21 
REMARK    5  A    between atoms: O20_16  and  C21_17 
REMARK    6  A    between atoms: C21_17  and  C22_18 
REMARK    7  A    between atoms: N29_21  and  C30_22 
REMARK    8  A    between atoms: C30_22  and  C31_23 
ROOT
ATOM      1  C9  MOL d          45.958  13.136   0.400  0.00  0.00    -0.015 A 
ATOM      2  C10 MOL d          45.507  13.718   1.633  0.00  0.00    -0.046 A 
ATOM      3  C11 MOL d          44.689  14.886   1.622  0.00  0.00     0.029 A 
ATOM      4  C12 MOL d          44.310  15.488   0.363  0.00  0.00    -0.058 A 
ATOM      5  C13 MOL d          44.753  14.913  -0.874  0.00  0.00    -0.080 A 
ATOM      6  C14 MOL d          45.576  13.741  -0.844  0.00  0.00    -0.072 A 
ATOM      7  H1  MOL d          45.789  13.267   2.577  0.00  0.00     0.088 H 
ATOM      8  H2  MOL d          43.689  16.377   0.354  0.00  0.00     0.086 H 
ATOM      9  H3  MOL d          44.468  15.360  -1.820  0.00  0.00     0.083 H 
ATOM     10  H4  MOL d          45.916  13.304  -1.776  0.00  0.00     0.084 H 
ENDROOT
BRANCH   1  11
ATOM     11  C5  MOL d          46.823  11.913   0.386  0.00  0.00     0.036 A 
ATOM     12  S1  MOL d          48.503  12.033   0.451  0.00  0.00    -0.078 SA
ATOM     13  C2  MOL d          48.804  10.353   0.404  0.00  0.00     0.117 A 
ATOM     14  C3  MOL d          47.571   9.652   0.339  0.00  0.00     0.112 A 
ATOM     15  C4  MOL d          46.462  10.542   0.327  0.00  0.00     0.064 A 
ATOM     16 BR19 MOL d          44.679   9.909   0.243  0.00  0.00    -0.047 Br
BRANCH  13  17
ATOM     17  C6  MOL d          50.128   9.860   0.434  0.00  0.00     0.219 C 
ATOM     18  O7  MOL d          50.632   9.464   1.484  0.00  0.00    -0.643 OA
ATOM     19  O8  MOL d          50.753   9.839  -0.631  0.00  0.00    -0.643 OA
ENDBRANCH  13  17
BRANCH  14  20
ATOM     20  O20 MOL d          47.387   8.227   0.296  0.00  0.00    -0.338 OA
BRANCH  20  21
ATOM     21  C21 MOL d          47.630   7.544   1.531  0.00  0.00     0.106 C 
ATOM     22  H5  MOL d          46.669   7.294   2.006  0.00  0.00     0.091 H 
ATOM     23  H6  MOL d          48.211   8.196   2.200  0.00  0.00     0.091 H 
BRANCH  21  24
ATOM     24  C22 MOL d          48.415   6.260   1.266  0.00  0.00     0.198 C 
ATOM     25  O25 MOL d          48.814   6.020   0.112  0.00  0.00    -0.646 OA
ATOM     26  O26 MOL d          48.630   5.499   2.214  0.00  0.00    -0.646 OA
ENDBRANCH  21  24
ENDBRANCH  20  21
ENDBRANCH  14  20
ENDBRANCH   1  11
BRANCH   3  27
ATOM     27  N29 MOL d          44.297  15.390   2.849  0.00  0.00    -0.386 N 
ATOM     28  H7  MOL d          43.650  14.819   3.411  0.00  0.00     0.160 HD
BRANCH  27  29
ATOM     29  C30 MOL d          44.731  16.678   3.416  0.00  0.00     0.016 C 
ATOM     30  H8  MOL d          44.084  16.919   4.272  0.00  0.00     0.071 H 
ATOM     31  H9  MOL d          44.624  17.454   2.644  0.00  0.00     0.071 H 
BRANCH  29  32
ATOM     32  C31 MOL d          46.170  16.668   3.890  0.00  0.00    -0.041 A 
ATOM     33  C34 MOL d          47.135  15.839   3.214  0.00  0.00    -0.075 A 
ATOM     34  C35 MOL d          48.497  15.828   3.652  0.00  0.00    -0.082 A 
ATOM     35  H10 MOL d          46.830  15.225   2.374  0.00  0.00     0.084 H 
ATOM     36  C36 MOL d          48.875  16.651   4.766  0.00  0.00    -0.083 A 
ATOM     37  H11 MOL d          49.232  15.208   3.151  0.00  0.00     0.083 H 
ATOM     38  C37 MOL d          47.915  17.481   5.447  0.00  0.00    -0.082 A 
ATOM     39  H12 MOL d          49.906  16.647   5.103  0.00  0.00     0.083 H 
ATOM     40  C38 MOL d          46.549  17.490   5.003  0.00  0.00    -0.075 A 
ATOM     41  H13 MOL d          48.221  18.095   6.288  0.00  0.00     0.083 H 
ATOM     42  H14 MOL d          45.814  18.109   5.503  0.00  0.00     0.084 H 
ENDBRANCH  29  32
ENDBRANCH  27  29
ENDBRANCH   3  27
TORSDOF 8
ENDMDL
MODEL 3
REMARK VINA RESULT:      -5.4      4.858      8.315
REMARK  8 active torsions:
REMARK  status: ('A' for Active; 'I' for Inactive)
REMARK    1  A    between atoms: C2_2  and  C6_6 
REMARK    2  A    between atoms: C3_3  and  O20_16 
REMARK    3  A    between atoms: C5_5  and  C9_9 
REMARK    4  A    between atoms: C11_11  and  N29_21 
REMARK    5  A    between atoms: O20_16  and  C21_17 
REMARK    6  A    between atoms: C21_17  and  C22_18 
REMARK    7  A    between atoms: N29_21  and  C30_22 
REMARK    8  A    between atoms: C30_22  and  C31_23 
ROOT
ATOM      1  C9  MOL d          46.647  11.440   0.941  0.00  0.00    -0.015 A 
ATOM      2  C10 MOL d          45.776  12.207   1.786  0.00  0.00    -0.046 A 
ATOM      3  C11 MOL d          45.194  13.419   1.310  0.00  0.00     0.029 A 
ATOM      4  C12 MOL d          45.481  13.878  -0.030  0.00  0.00    -0.058 A 
ATOM      5  C13 MOL d          46.348  13.118  -0.883  0.00  0.00    -0.080 A 
ATOM      6  C14 MOL d          46.926  11.904  -0.388  0.00  0.00    -0.072 A 
ATOM      7  H1  MOL d          45.559  11.864   2.791  0.00  0.00     0.088 H 
ATOM      8  H2  MOL d          45.040  14.800  -0.392  0.00  0.00     0.086 H 
ATOM      9  H3  MOL d          46.563  13.457  -1.890  0.00  0.00     0.083 H 
ATOM     10  H4  MOL d          47.584  11.328  -1.027  0.00  0.00     0.084 H 
ENDROOT
BRANCH   1  11
ATOM     11  C5  MOL d          47.276  10.167   1.421  0.00  0.00     0.036 A 
ATOM     12  S1  MOL d          48.068  10.093   2.907  0.00  0.00    -0.078 SA
ATOM     13  C2  MOL d          48.499   8.444   2.797  0.00  0.00     0.117 A 
ATOM     14  C3  MOL d          48.018   7.909   1.572  0.00  0.00     0.112 A 
ATOM     15  C4  MOL d          47.333   8.891   0.805  0.00  0.00     0.064 A 
ATOM     16 BR19 MOL d          46.576   8.484  -0.883  0.00  0.00    -0.047 Br
BRANCH  13  17
ATOM     17  C6  MOL d          49.223   7.821   3.838  0.00  0.00     0.219 C 
ATOM     18  O7  MOL d          50.393   8.122   4.065  0.00  0.00    -0.643 OA
ATOM     19  O8  MOL d          48.635   6.967   4.509  0.00  0.00    -0.643 OA
ENDBRANCH  13  17
BRANCH  14  20
ATOM     20  O20 MOL d          48.160   6.558   1.104  0.00  0.00    -0.338 OA
BRANCH  20  21
ATOM     21  C21 MOL d          48.975   6.401  -0.064  0.00  0.00     0.106 C 
ATOM     22  H5  MOL d          48.536   6.974  -0.895  0.00  0.00     0.091 H 
ATOM     23  H6  MOL d          49.021   5.337  -0.336  0.00  0.00     0.091 H 
BRANCH  21  24
ATOM     24  C22 MOL d          50.386   6.915   0.218  0.00  0.00     0.198 C 
ATOM     25  O25 MOL d          50.754   7.989  -0.293  0.00  0.00    -0.646 OA
ATOM     26  O26 MOL d          51.118   6.243   0.949  0.00  0.00    -0.646 OA
ENDBRANCH  21  24
ENDBRANCH  20  21
ENDBRANCH  14  20
ENDBRANCH   1  11
BRANCH   3  27
ATOM     27  N29 MOL d          44.368  14.105   2.184  0.00  0.00    -0.386 N 
ATOM     28  H7  MOL d          43.670  13.556   2.705  0.00  0.00     0.160 HD
BRANCH  27  29
ATOM     29  C30 MOL d          44.408  15.556   2.427  0.00  0.00     0.016 C 
ATOM     30  H8  MOL d          43.453  15.861   2.881  0.00  0.00     0.071 H 
ATOM     31  H9  MOL d          44.536  16.070   1.463  0.00  0.00     0.071 H 
BRANCH  29  32
ATOM     32  C31 MOL d          45.534  15.977   3.348  0.00  0.00    -0.041 A 
ATOM     33  C34 MOL d          46.862  15.463   3.129  0.00  0.00    -0.075 A 
ATOM     34  C35 MOL d          47.932  15.859   3.992  0.00  0.00    -0.082 A 
ATOM     35  H10 MOL d          47.049  14.776   2.312  0.00  0.00     0.084 H 
ATOM     36  C36 MOL d          47.657  16.770   5.067  0.00  0.00    -0.083 A 
ATOM     37  H11 MOL d          48.935  15.478   3.837  0.00  0.00     0.083 H 
ATOM     38  C37 MOL d          46.331  17.289   5.292  0.00  0.00    -0.082 A 
ATOM     39  H12 MOL d          48.464  17.075   5.724  0.00  0.00     0.083 H 
ATOM     40  C38 MOL d          45.261  16.888   4.423  0.00  0.00    -0.075 A 
ATOM     41  H13 MOL d          46.144  17.975   6.111  0.00  0.00     0.083 H 
ATOM     42  H14 MOL d          44.258  17.269   4.577  0.00  0.00     0.084 H 
ENDBRANCH  29  32
ENDBRANCH  27  29
ENDBRANCH   3  27
TORSDOF 8
ENDMDL
MODEL 4
REMARK VINA RESULT:      -5.1      4.529      8.483
REMARK  8 active torsions:
REMARK  status: ('A' for Active; 'I' for Inactive)
REMARK    1  A    between atoms: C2_2  and  C6_6 
REMARK    2  A    between atoms: C3_3  and  O20_16 
REMARK    3  A    between atoms: C5_5  and  C9_9 
REMARK    4  A    between atoms: C11_11  and  N29_21 
REMARK    5  A    between atoms: O20_16  and  C21_17 
REMARK    6  A    between atoms: C21_17  and  C22_18 
REMARK    7  A    between atoms: N29_21  and  C30_22 
REMARK    8  A    between atoms: C30_22  and  C31_23 
ROOT
ATOM      1  C9  MOL d          45.798  13.136   0.655  0.00  0.00    -0.015 A 
ATOM      2  C10 MOL d          45.179  13.807   1.764  0.00  0.00    -0.046 A 
ATOM      3  C11 MOL d          44.461  15.022   1.561  0.00  0.00     0.029 A 
ATOM      4  C12 MOL d          44.354  15.583   0.233  0.00  0.00    -0.058 A 
ATOM      5  C13 MOL d          44.966  14.919  -0.882  0.00  0.00    -0.080 A 
ATOM      6  C14 MOL d          45.685  13.700  -0.659  0.00  0.00    -0.072 A 
ATOM      7  H1  MOL d          45.258  13.388   2.761  0.00  0.00     0.088 H 
ATOM      8  H2  MOL d          43.809  16.507   0.079  0.00  0.00     0.086 H 
ATOM      9  H3  MOL d          44.885  15.334  -1.880  0.00  0.00     0.083 H 
ATOM     10  H4  MOL d          46.152  13.196  -1.497  0.00  0.00     0.084 H 
ENDROOT
BRANCH   1  11
ATOM     11  C5  MOL d          46.562  11.862   0.844  0.00  0.00     0.036 A 
ATOM     12  S1  MOL d          46.664  10.716  -0.387  0.00  0.00    -0.078 SA
ATOM     13  C2  MOL d          47.628   9.605   0.482  0.00  0.00     0.117 A 
ATOM     14  C3  MOL d          47.897  10.123   1.776  0.00  0.00     0.112 A 
ATOM     15  C4  MOL d          47.288  11.393   1.969  0.00  0.00     0.064 A 
ATOM     16 BR19 MOL d          47.462  12.343   3.600  0.00  0.00    -0.047 Br
BRANCH  13  17
ATOM     17  C6  MOL d          48.036   8.390  -0.112  0.00  0.00     0.219 C 
ATOM     18  O7  MOL d          49.227   8.118  -0.246  0.00  0.00    -0.643 OA
ATOM     19  O8  MOL d          47.150   7.614  -0.487  0.00  0.00    -0.643 OA
ENDBRANCH  13  17
BRANCH  14  20
ATOM     20  O20 MOL d          48.681   9.503   2.810  0.00  0.00    -0.338 OA
BRANCH  20  21
ATOM     21  C21 MOL d          48.283   8.173   3.160  0.00  0.00     0.106 C 
ATOM     22  H5  MOL d          48.006   7.622   2.248  0.00  0.00     0.091 H 
ATOM     23  H6  MOL d          47.419   8.217   3.838  0.00  0.00     0.091 H 
BRANCH  21  24
ATOM     24  C22 MOL d          49.439   7.454   3.855  0.00  0.00     0.198 C 
ATOM     25  O25 MOL d          49.189   6.648   4.770  0.00  0.00    -0.646 OA
ATOM     26  O26 MOL d          50.589   7.699   3.482  0.00  0.00    -0.646 OA
ENDBRANCH  21  24
ENDBRANCH  20  21
ENDBRANCH  14  20
ENDBRANCH   1  11
BRANCH   3  27
ATOM     27  N29 MOL d          43.896  15.612   2.678  0.00  0.00    -0.386 N 
ATOM     28  H7  MOL d          43.088  15.139   3.106  0.00  0.00     0.160 HD
BRANCH  27  29
ATOM     29  C30 MOL d          44.358  16.863   3.304  0.00  0.00     0.016 C 
ATOM     30  H8  MOL d          43.703  17.089   4.158  0.00  0.00     0.071 H 
ATOM     31  H9  MOL d          44.287  17.672   2.562  0.00  0.00     0.071 H 
BRANCH  29  32
ATOM     32  C31 MOL d          45.787  16.790   3.801  0.00  0.00    -0.041 A 
ATOM     33  C34 MOL d          46.770  16.066   3.035  0.00  0.00    -0.075 A 
ATOM     34  C35 MOL d          48.123  15.998   3.495  0.00  0.00    -0.082 A 
ATOM     35  H10 MOL d          46.484  15.575   2.113  0.00  0.00     0.084 H 
ATOM     36  C36 MOL d          48.475  16.658   4.721  0.00  0.00    -0.083 A 
ATOM     37  H11 MOL d          48.871  15.456   2.928  0.00  0.00     0.083 H 
ATOM     38  C37 MOL d          47.497  17.383   5.491  0.00  0.00    -0.082 A 
ATOM     39  H12 MOL d          49.499  16.609   5.074  0.00  0.00     0.083 H 
ATOM     40  C38 MOL d          46.140  17.450   5.025  0.00  0.00    -0.075 A 
ATOM     41  H13 MOL d          47.783  17.874   6.415  0.00  0.00     0.083 H 
ATOM     42  H14 MOL d          45.392  17.992   5.592  0.00  0.00     0.084 H 
ENDBRANCH  29  32
ENDBRANCH  27  29
ENDBRANCH   3  27
TORSDOF 8
ENDMDL
MODEL 5
REMARK VINA RESULT:      -3.8      4.933      8.491
REMARK  8 active torsions:
REMARK  status: ('A' for Active; 'I' for Inactive)
REMARK    1  A    between atoms: C2_2  and  C6_6 
REMARK    2  A    between atoms: C3_3  and  O20_16 
REMARK    3  A    between atoms: C5_5  and  C9_9 
REMARK    4  A    between atoms: C11_11  and  N29_21 
REMARK    5  A    between atoms: O20_16  and  C21_17 
REMARK    6  A    between atoms: C21_17  and  C22_18 
REMARK    7  A    between atoms: N29_21  and  C30_22 
REMARK    8  A    between atoms: C30_22  and  C31_23 
ROOT
ATOM      1  C9  MOL d          47.369  10.819   1.049  0.00  0.00    -0.015 A 
ATOM      2  C10 MOL d          46.301  11.650   1.530  0.00  0.00    -0.046 A 
ATOM      3  C11 MOL d          45.929  12.829   0.820  0.00  0.00     0.029 A 
ATOM      4  C12 MOL d          46.630  13.192  -0.392  0.00  0.00    -0.058 A 
ATOM      5  C13 MOL d          47.696  12.367  -0.883  0.00  0.00    -0.080 A 
ATOM      6  C14 MOL d          48.058  11.187  -0.155  0.00  0.00    -0.072 A 
ATOM      7  H1  MOL d          45.774  11.379   2.438  0.00  0.00     0.088 H 
ATOM      8  H2  MOL d          46.348  14.089  -0.931  0.00  0.00     0.086 H 
ATOM      9  H3  MOL d          48.222  12.633  -1.792  0.00  0.00     0.083 H 
ATOM     10  H4  MOL d          48.865  10.563  -0.519  0.00  0.00     0.084 H 
ENDROOT
BRANCH   1  11
ATOM     11  C5  MOL d          47.782   9.579   1.781  0.00  0.00     0.036 A 
ATOM     12  S1  MOL d          47.277   9.293   3.363  0.00  0.00    -0.078 SA
ATOM     13  C2  MOL d          48.075   7.793   3.537  0.00  0.00     0.117 A 
ATOM     14  C3  MOL d          48.761   7.480   2.334  0.00  0.00     0.112 A 
ATOM     15  C4  MOL d          48.591   8.496   1.354  0.00  0.00     0.064 A 
ATOM     16 BR19 MOL d          49.389   8.369  -0.360  0.00  0.00    -0.047 Br
BRANCH  13  17
ATOM     17  C6  MOL d          47.984   7.067   4.745  0.00  0.00     0.219 C 
ATOM     18  O7  MOL d          48.911   6.355   5.128  0.00  0.00    -0.643 OA
ATOM     19  O8  MOL d          46.942   7.177   5.399  0.00  0.00    -0.643 OA
ENDBRANCH  13  17
BRANCH  14  20
ATOM     20  O20 MOL d          49.543   6.303   2.065  0.00  0.00    -0.338 OA
BRANCH  20  21
ATOM     21  C21 MOL d          50.957   6.516   1.994  0.00  0.00     0.106 C 
ATOM     22  H5  MOL d          51.180   7.231   1.187  0.00  0.00     0.091 H 
ATOM     23  H6  MOL d          51.460   5.560   1.786  0.00  0.00     0.091 H 
BRANCH  21  24
ATOM     24  C22 MOL d          51.463   7.077   3.322  0.00  0.00     0.198 C 
ATOM     25  O25 MOL d          51.660   8.301   3.428  0.00  0.00    -0.646 OA
ATOM     26  O26 MOL d          51.660   6.290   4.252  0.00  0.00    -0.646 OA
ENDBRANCH  21  24
ENDBRANCH  20  21
ENDBRANCH  14  20
ENDBRANCH   1  11
BRANCH   3  27
ATOM     27  N29 MOL d          44.894  13.580   1.348  0.00  0.00    -0.386 N 
ATOM     28  H7  MOL d          44.116  13.823   0.717  0.00  0.00     0.160 HD
BRANCH  27  29
ATOM     29  C30 MOL d          44.814  14.060   2.737  0.00  0.00     0.016 C 
ATOM     30  H8  MOL d          44.964  13.204   3.412  0.00  0.00     0.071 H 
ATOM     31  H9  MOL d          43.814  14.487   2.903  0.00  0.00     0.071 H 
BRANCH  29  32
ATOM     32  C31 MOL d          45.848  15.117   3.066  0.00  0.00    -0.041 A 
ATOM     33  C34 MOL d          47.055  14.741   3.756  0.00  0.00    -0.075 A 
ATOM     34  C35 MOL d          48.038  15.733   4.065  0.00  0.00    -0.082 A 
ATOM     35  H10 MOL d          47.218  13.708   4.040  0.00  0.00     0.084 H 
ATOM     36  C36 MOL d          47.798  17.094   3.677  0.00  0.00    -0.083 A 
ATOM     37  H11 MOL d          48.950  15.462   4.584  0.00  0.00     0.083 H 
ATOM     38  C37 MOL d          46.593  17.477   2.987  0.00  0.00    -0.082 A 
ATOM     39  H12 MOL d          48.539  17.851   3.908  0.00  0.00     0.083 H 
ATOM     40  C38 MOL d          45.609  16.478   2.678  0.00  0.00    -0.075 A 
ATOM     41  H13 MOL d          46.429  18.511   2.703  0.00  0.00     0.083 H 
ATOM     42  H14 MOL d          44.697  16.748   2.159  0.00  0.00     0.084 H 
ENDBRANCH  29  32
ENDBRANCH  27  29
ENDBRANCH   3  27
TORSDOF 8
ENDMDL
