MODEL 1
REMARK VINA RESULT:      -8.8      0.000      0.000
REMARK  11 active torsions:
REMARK  status: ('A' for Active; 'I' for Inactive)
REMARK    1  A    between atoms: C20_3  and  C36_4 
REMARK    2  A    between atoms: C16_8  and  C35_9 
REMARK    3  A    between atoms: C5_13  and  O36_14 
REMARK    4  A    between atoms: C8_19  and  C25_20 
REMARK    5  A    between atoms: C10_22  and  O26_23 
REMARK    6  A    between atoms: O26_23  and  C27_24 
REMARK    7  A    between atoms: C11_25  and  O28_26 
REMARK    8  A    between atoms: C12_27  and  C29_28 
REMARK    9  A    between atoms: C14_30  and  C30_31 
REMARK   10  A    between atoms: C15_32  and  O31_33 
REMARK   11  A    between atoms: O31_33  and  C32_34 
REMARK       I    between atoms: C32_34  and  N34_36 
ROOT
ATOM      1  O37 BC6 d          41.344  -5.560  41.921  0.00  0.00    -0.268 OA
ATOM      2  C21 BC6 d          41.291  -5.995  40.774  0.00  0.00     0.251 C 
ATOM      3  C20 BC6 d          41.774  -7.354  40.581  0.00  0.00     0.002 C 
ATOM      4  C19 BC6 d          40.931  -8.290  40.047  0.00  0.00    -0.092 C 
ATOM      5  C18 BC6 d          41.218  -9.733  39.782  0.00  0.00    -0.049 C 
ATOM      6  C17 BC6 d          40.390 -10.129  38.556  0.00  0.00    -0.057 C 
ATOM      7  C16 BC6 d          38.907 -10.367  38.830  0.00  0.00    -0.028 C 
ATOM      8  N22 BC6 d          40.814  -5.205  39.800  0.00  0.00    -0.323 N 
ATOM      9  C3  BC6 d          40.961  -5.399  38.448  0.00  0.00     0.038 A 
ATOM     10  C4  BC6 d          39.879  -5.116  37.631  0.00  0.00    -0.025 A 
ATOM     11  C5  BC6 d          39.955  -5.285  36.247  0.00  0.00     0.068 A 
ATOM     12  C6  BC6 d          41.125  -5.751  35.651  0.00  0.00    -0.045 A 
ATOM     13  C1  BC6 d          42.229  -6.055  36.475  0.00  0.00    -0.053 A 
ATOM     14  C2  BC6 d          42.141  -5.854  37.858  0.00  0.00    -0.051 A 
ATOM     15  C7  BC6 d          43.523  -6.604  35.910  0.00  0.00    -0.038 C 
ATOM     16  C8  BC6 d          43.516  -8.145  35.751  0.00  0.00    -0.051 C 
ATOM     17  C9  BC6 d          42.376  -8.618  34.803  0.00  0.00    -0.035 C 
ATOM     18  C10 BC6 d          42.214 -10.123  34.621  0.00  0.00     0.063 C 
ATOM     19  C11 BC6 d          41.123 -10.474  33.609  0.00  0.00     0.067 C 
ATOM     20  C12 BC6 d          39.759  -9.914  34.027  0.00  0.00    -0.014 C 
ATOM     21  C13 BC6 d          39.282 -10.537  35.334  0.00  0.00    -0.092 C 
ATOM     22  C14 BC6 d          38.579  -9.936  36.338  0.00  0.00    -0.058 C 
ATOM     23  C15 BC6 d          38.190 -10.793  37.523  0.00  0.00     0.074 C 
ATOM     24  H4  BC6 d          39.933  -7.943  39.782  0.00  0.00     0.077 H 
ATOM     25  H5  BC6 d          40.926 -10.343  40.650  0.00  0.00     0.038 H 
ATOM     26  H6  BC6 d          42.289  -9.876  39.578  0.00  0.00     0.038 H 
ATOM     27  H7  BC6 d          40.813 -11.056  38.143  0.00  0.00     0.034 H 
ATOM     28  H8  BC6 d          40.475  -9.324  37.812  0.00  0.00     0.034 H 
ATOM     29  H9  BC6 d          38.470  -9.417  39.171  0.00  0.00     0.043 H 
ATOM     30  H13 BC6 d          40.301  -4.395  40.087  0.00  0.00     0.169 HD
ATOM     31  H14 BC6 d          38.957  -4.757  38.074  0.00  0.00     0.091 H 
ATOM     32  H16 BC6 d          41.185  -5.879  34.576  0.00  0.00     0.088 H 
ATOM     33  H17 BC6 d          43.005  -6.055  38.481  0.00  0.00     0.087 H 
ATOM     34  H18 BC6 d          44.345  -6.327  36.587  0.00  0.00     0.040 H 
ATOM     35  H19 BC6 d          43.693  -6.152  34.922  0.00  0.00     0.040 H 
ATOM     36  H20 BC6 d          44.464  -8.411  35.263  0.00  0.00     0.040 H 
ATOM     37  H24 BC6 d          42.565  -8.181  33.811  0.00  0.00     0.037 H 
ATOM     38  H25 BC6 d          41.428  -8.227  35.201  0.00  0.00     0.037 H 
ATOM     39  H26 BC6 d          41.946 -10.561  35.595  0.00  0.00     0.087 H 
ATOM     40  H30 BC6 d          41.042 -11.567  33.515  0.00  0.00     0.087 H 
ATOM     41  H32 BC6 d          39.805  -8.818  34.111  0.00  0.00     0.049 H 
ATOM     42  H36 BC6 d          39.531 -11.587  35.485  0.00  0.00     0.078 H 
ATOM     43  H40 BC6 d          38.412 -11.847  37.303  0.00  0.00     0.092 H 
ENDROOT
BRANCH  23  44
ATOM     44  O31 BC6 d          36.801 -10.605  37.749  0.00  0.00    -0.294 OA
BRANCH  44  45
ATOM     45  C32 BC6 d          35.898 -11.135  36.767  0.00  0.00     0.358 C 
ATOM     46  O33 BC6 d          36.046 -12.289  36.399  0.00  0.00    -0.239 OA
ATOM     47  N34 BC6 d          34.969 -10.281  36.365  0.00  0.00    -0.346 N 
ATOM     48  H41 BC6 d          34.295 -10.561  35.682  0.00  0.00     0.161 HD
ATOM     49  H42 BC6 d          34.943  -9.356  36.744  0.00  0.00     0.161 HD
ENDBRANCH  44  45
ENDBRANCH  23  44
BRANCH   7  50
ATOM     50  C35 BC6 d          38.679 -11.414  39.933  0.00  0.00    -0.070 C 
ATOM     51  H10 BC6 d          37.822 -12.049  39.664  0.00  0.00     0.028 H 
ATOM     52  H11 BC6 d          38.473 -10.905  40.885  0.00  0.00     0.028 H 
ATOM     53  H12 BC6 d          39.579 -12.038  40.038  0.00  0.00     0.028 H 
ENDBRANCH   7  50
BRANCH  22  54
ATOM     54  C30 BC6 d          38.140  -8.495  36.300  0.00  0.00    -0.052 C 
ATOM     55  H37 BC6 d          38.993  -7.844  36.544  0.00  0.00     0.033 H 
ATOM     56  H38 BC6 d          37.336  -8.337  37.035  0.00  0.00     0.033 H 
ATOM     57  H39 BC6 d          37.769  -8.251  35.293  0.00  0.00     0.033 H 
ENDBRANCH  22  54
BRANCH  20  58
ATOM     58  C29 BC6 d          38.743 -10.353  32.977  0.00  0.00    -0.067 C 
ATOM     59  H33 BC6 d          38.147  -9.485  32.659  0.00  0.00     0.028 H 
ATOM     60  H34 BC6 d          38.078 -11.117  33.407  0.00  0.00     0.028 H 
ATOM     61  H35 BC6 d          39.271 -10.774  32.109  0.00  0.00     0.028 H 
ENDBRANCH  20  58
BRANCH  19  62
ATOM     62  O28 BC6 d          41.549  -9.904  32.351  0.00  0.00    -0.392 OA
ATOM     63  H31 BC6 d          41.693  -8.971  32.461  0.00  0.00     0.210 HD
ENDBRANCH  19  62
BRANCH   3  64
ATOM     64  C36 BC6 d          43.161  -7.660  41.062  0.00  0.00    -0.046 C 
ATOM     65  H1  BC6 d          43.378  -7.065  41.961  0.00  0.00     0.033 H 
ATOM     66  H2  BC6 d          43.886  -7.410  40.273  0.00  0.00     0.033 H 
ATOM     67  H3  BC6 d          43.237  -8.731  41.303  0.00  0.00     0.033 H 
ENDBRANCH   3  64
BRANCH  18  68
ATOM     68  O26 BC6 d          43.450 -10.712  34.163  0.00  0.00    -0.388 OA
BRANCH  68  69
ATOM     69  C27 BC6 d          43.595 -12.077  34.487  0.00  0.00     0.005 C 
ATOM     70  H27 BC6 d          44.605 -12.254  34.883  0.00  0.00     0.066 H 
ATOM     71  H28 BC6 d          43.443 -12.686  33.584  0.00  0.00     0.066 H 
ATOM     72  H29 BC6 d          42.849 -12.356  35.246  0.00  0.00     0.066 H 
ENDBRANCH  68  69
ENDBRANCH  18  68
BRANCH  16  73
ATOM     73  C25 BC6 d          43.489  -8.903  37.090  0.00  0.00    -0.073 C 
ATOM     74  H21 BC6 d          42.466  -9.252  37.294  0.00  0.00     0.028 H 
ATOM     75  H22 BC6 d          43.816  -8.232  37.898  0.00  0.00     0.028 H 
ATOM     76  H23 BC6 d          44.167  -9.768  37.036  0.00  0.00     0.028 H 
ENDBRANCH  16  73
BRANCH  11  77
ATOM     77  O36 BC6 d          38.831  -5.032  35.512  0.00  0.00    -0.361 OA
ATOM     78  H15 BC6 d          39.074  -4.873  34.607  0.00  0.00     0.217 HD
ENDBRANCH  11  77
TORSDOF 11
ENDMDL
