MODEL 1
REMARK VINA RESULT:      -7.3      0.000      0.000
REMARK  9 active torsions:
REMARK  status: ('A' for Active; 'I' for Inactive)
REMARK       I    between atoms: N7_8  and  C9_9 
REMARK    1  A    between atoms: C9_9  and  C11_11 
REMARK    2  A    between atoms: C12_12  and  N19_20 
REMARK    3  A    between atoms: C13_13  and  O17_18 
REMARK    4  A    between atoms: O17_18  and  C18_19 
REMARK       I    between atoms: N19_20  and  C20_21 
REMARK    5  A    between atoms: C20_21  and  C22_23 
REMARK    6  A    between atoms: C25_26  and  C28_29 
REMARK    7  A    between atoms: C28_29  and  N29_30 
REMARK    8  A    between atoms: N29_30  and  C31_31 
REMARK    9  A    between atoms: N29_30  and  C32_32 
ROOT
ATOM      1  C11 XLD d           7.491   7.489  22.376  0.00  0.00     0.063 A 
ATOM      2  C12 XLD d           6.301   7.506  23.215  0.00  0.00     0.084 A 
ATOM      3  C13 XLD d           6.268   8.334  24.379  0.00  0.00     0.097 A 
ATOM      4  C14 XLD d           7.401   9.128  24.706  0.00  0.00    -0.028 A 
ATOM      5  C15 XLD d           8.554   9.099  23.890  0.00  0.00     0.037 A 
ATOM      6 CL2  XLD d           9.914  10.026  24.253  0.00  0.00    -0.084 Cl
ATOM      7  C16 XLD d           8.583   8.299  22.753  0.00  0.00    -0.044 A 
ATOM      8  H5  XLD d           7.379   9.759  25.587  0.00  0.00     0.090 H 
ATOM      9  H6  XLD d           9.474   8.298  22.136  0.00  0.00     0.087 H 
ENDROOT
BRANCH   2  10
ATOM     10  N19 XLD d           5.231   6.709  22.883  0.00  0.00    -0.319 N 
ATOM     11  C20 XLD d           4.210   7.019  22.030  0.00  0.00     0.264 C 
ATOM     12  O21 XLD d           4.229   8.160  21.493  0.00  0.00    -0.267 OA
ATOM     13  H10 XLD d           5.197   5.807  23.313  0.00  0.00     0.169 HD
BRANCH  11  14
ATOM     14  C22 XLD d           3.090   6.158  21.767  0.00  0.00     0.095 A 
ATOM     15  S23 XLD d           1.684   6.269  22.799  0.00  0.00    -0.094 SA
ATOM     16  C24 XLD d           0.931   5.008  21.914  0.00  0.00    -0.035 A 
ATOM     17  C25 XLD d           1.674   4.490  20.863  0.00  0.00    -0.011 A 
ATOM     18  H11 XLD d          -0.063   4.639  22.160  0.00  0.00     0.096 H 
ATOM     19  C26 XLD d           2.915   5.159  20.769  0.00  0.00     0.065 A 
ATOM     20 CL3  XLD d           4.049   4.738  19.567  0.00  0.00    -0.082 Cl
BRANCH  17  21
ATOM     21  C28 XLD d           1.241   3.382  19.954  0.00  0.00     0.024 C 
ATOM     22  H12 XLD d           1.804   3.515  19.018  0.00  0.00     0.071 H 
ATOM     23  H13 XLD d           0.170   3.543  19.763  0.00  0.00     0.071 H 
BRANCH  21  24
ATOM     24  N29 XLD d           1.386   1.925  20.330  0.00  0.00    -0.346 N 
BRANCH  24  25
ATOM     25  C31 XLD d           1.477   0.930  19.225  0.00  0.00    -0.015 C 
ATOM     26  H14 XLD d           0.587   1.012  18.584  0.00  0.00     0.056 H 
ATOM     27  H15 XLD d           1.532  -0.084  19.649  0.00  0.00     0.056 H 
ATOM     28  H16 XLD d           2.379   1.127  18.627  0.00  0.00     0.056 H 
ENDBRANCH  24  25
BRANCH  24  29
ATOM     29  C32 XLD d           2.326   1.710  21.369  0.00  0.00     0.239 A 
ATOM     30  N33 XLD d           3.655   1.559  21.162  0.00  0.00    -0.249 NA
ATOM     31  C34 XLD d           4.352   1.379  22.379  0.00  0.00     0.039 A 
ATOM     32  C35 XLD d           3.235   1.432  23.447  0.00  0.00     0.046 A 
ATOM     33  H17 XLD d           5.083   2.185  22.536  0.00  0.00     0.070 H 
ATOM     34  H18 XLD d           4.867   0.407  22.397  0.00  0.00     0.070 H 
ATOM     35  O36 XLD d           2.043   1.639  22.687  0.00  0.00    -0.319 OA
ATOM     36  H19 XLD d           3.401   2.263  24.148  0.00  0.00     0.077 H 
ATOM     37  H20 XLD d           3.183   0.486  24.006  0.00  0.00     0.077 H 
ENDBRANCH  24  29
ENDBRANCH  21  24
ENDBRANCH  17  21
ENDBRANCH  11  14
ENDBRANCH   2  10
BRANCH   1  38
ATOM     38  C9  XLD d           7.653   6.699  21.178  0.00  0.00     0.259 C 
ATOM     39  N7  XLD d           7.587   5.328  21.265  0.00  0.00    -0.307 N 
ATOM     40  C1  XLD d           7.751   4.401  20.275  0.00  0.00     0.130 A 
ATOM     41  H4  XLD d           7.394   4.960  22.174  0.00  0.00     0.170 HD
ATOM     42  N2  XLD d           8.525   4.648  19.170  0.00  0.00    -0.242 NA
ATOM     43  C6  XLD d           7.143   3.128  20.411  0.00  0.00    -0.037 A 
ATOM     44  C3  XLD d           8.716   3.763  18.189  0.00  0.00     0.025 A 
ATOM     45  C4  XLD d           8.111   2.484  18.252  0.00  0.00     0.051 A 
ATOM     46  H1  XLD d           9.337   4.025  17.340  0.00  0.00     0.117 H 
ATOM     47 CL1  XLD d           8.253   1.350  16.911  0.00  0.00    -0.083 Cl
ATOM     48  C5  XLD d           7.328   2.171  19.395  0.00  0.00    -0.057 A 
ATOM     49  H2  XLD d           6.871   1.192  19.487  0.00  0.00     0.086 H 
ATOM     50  H3  XLD d           6.544   2.895  21.284  0.00  0.00     0.089 H 
ATOM     51  O10 XLD d           7.879   7.267  20.075  0.00  0.00    -0.267 OA
ENDBRANCH   1  38
BRANCH   3  52
ATOM     52  O17 XLD d           5.139   8.333  25.143  0.00  0.00    -0.354 OA
BRANCH  52  53
ATOM     53  C18 XLD d           4.020   9.214  25.108  0.00  0.00     0.010 C 
ATOM     54  H7  XLD d           3.248   8.799  24.444  0.00  0.00     0.066 H 
ATOM     55  H8  XLD d           4.339  10.197  24.732  0.00  0.00     0.066 H 
ATOM     56  H9  XLD d           3.609   9.324  26.122  0.00  0.00     0.066 H 
ENDBRANCH  52  53
ENDBRANCH   3  52
TORSDOF 9
ENDMDL
MODEL 2
REMARK VINA RESULT:      -7.1      3.814      7.503
REMARK  9 active torsions:
REMARK  status: ('A' for Active; 'I' for Inactive)
REMARK       I    between atoms: N7_8  and  C9_9 
REMARK    1  A    between atoms: C9_9  and  C11_11 
REMARK    2  A    between atoms: C12_12  and  N19_20 
REMARK    3  A    between atoms: C13_13  and  O17_18 
REMARK    4  A    between atoms: O17_18  and  C18_19 
REMARK       I    between atoms: N19_20  and  C20_21 
REMARK    5  A    between atoms: C20_21  and  C22_23 
REMARK    6  A    between atoms: C25_26  and  C28_29 
REMARK    7  A    between atoms: C28_29  and  N29_30 
REMARK    8  A    between atoms: N29_30  and  C31_31 
REMARK    9  A    between atoms: N29_30  and  C32_32 
ROOT
ATOM      1  C11 XLD d           4.349   5.251  18.339  0.00  0.00     0.063 A 
ATOM      2  C12 XLD d           4.070   6.615  18.765  0.00  0.00     0.084 A 
ATOM      3  C13 XLD d           2.823   7.222  18.423  0.00  0.00     0.097 A 
ATOM      4  C14 XLD d           1.871   6.488  17.664  0.00  0.00    -0.028 A 
ATOM      5  C15 XLD d           2.154   5.167  17.248  0.00  0.00     0.037 A 
ATOM      6 CL2  XLD d           1.048   4.271  16.345  0.00  0.00    -0.084 Cl
ATOM      7  C16 XLD d           3.364   4.574  17.589  0.00  0.00    -0.044 A 
ATOM      8  H5  XLD d           0.923   6.944  17.403  0.00  0.00     0.090 H 
ATOM      9  H6  XLD d           3.558   3.557  17.268  0.00  0.00     0.087 H 
ENDROOT
BRANCH   2  10
ATOM     10  N19 XLD d           5.021   7.306  19.478  0.00  0.00    -0.319 N 
ATOM     11  C20 XLD d           6.075   8.014  18.971  0.00  0.00     0.264 C 
ATOM     12  O21 XLD d           6.213   8.030  17.718  0.00  0.00    -0.267 OA
ATOM     13  H10 XLD d           4.931   7.289  20.474  0.00  0.00     0.169 HD
BRANCH  11  14
ATOM     14  C22 XLD d           7.066   8.671  19.778  0.00  0.00     0.095 A 
ATOM     15  S23 XLD d           7.602  10.269  19.315  0.00  0.00    -0.094 SA
ATOM     16  C24 XLD d           8.693  10.289  20.636  0.00  0.00    -0.035 A 
ATOM     17  C25 XLD d           8.688   9.154  21.433  0.00  0.00    -0.011 A 
ATOM     18  H11 XLD d           9.346  11.137  20.837  0.00  0.00     0.096 H 
ATOM     19  C26 XLD d           7.742   8.223  20.946  0.00  0.00     0.065 A 
ATOM     20 CL3  XLD d           7.509   6.723  21.724  0.00  0.00    -0.082 Cl
BRANCH  17  21
ATOM     21  C28 XLD d           9.554   8.929  22.634  0.00  0.00     0.024 C 
ATOM     22  H12 XLD d          10.461   9.532  22.475  0.00  0.00     0.071 H 
ATOM     23  H13 XLD d           9.818   7.861  22.625  0.00  0.00     0.071 H 
BRANCH  21  24
ATOM     24  N29 XLD d           9.085   9.235  24.037  0.00  0.00    -0.346 N 
BRANCH  24  25
ATOM     25  C31 XLD d           7.628   9.111  24.325  0.00  0.00    -0.015 C 
ATOM     26  H14 XLD d           7.309   8.072  24.154  0.00  0.00     0.056 H 
ATOM     27  H15 XLD d           7.065   9.782  23.660  0.00  0.00     0.056 H 
ATOM     28  H16 XLD d           7.436   9.386  25.372  0.00  0.00     0.056 H 
ENDBRANCH  24  25
BRANCH  24  29
ATOM     29  C32 XLD d           9.913   8.666  25.037  0.00  0.00     0.239 A 
ATOM     30  N33 XLD d           9.498   7.717  25.908  0.00  0.00    -0.249 NA
ATOM     31  C34 XLD d          10.539   7.322  26.779  0.00  0.00     0.039 A 
ATOM     32  C35 XLD d          11.736   8.192  26.331  0.00  0.00     0.046 A 
ATOM     33  H17 XLD d          10.765   6.252  26.660  0.00  0.00     0.070 H 
ATOM     34  H18 XLD d          10.275   7.527  27.827  0.00  0.00     0.070 H 
ATOM     35  O36 XLD d          11.210   8.970  25.254  0.00  0.00    -0.319 OA
ATOM     36  H19 XLD d          12.571   7.563  25.988  0.00  0.00     0.077 H 
ATOM     37  H20 XLD d          12.078   8.839  27.151  0.00  0.00     0.077 H 
ENDBRANCH  24  29
ENDBRANCH  21  24
ENDBRANCH  17  21
ENDBRANCH  11  14
ENDBRANCH   2  10
BRANCH   1  38
ATOM     38  C9  XLD d           5.566   4.525  18.618  0.00  0.00     0.259 C 
ATOM     39  N7  XLD d           6.147   3.782  17.617  0.00  0.00    -0.307 N 
ATOM     40  C1  XLD d           7.264   2.997  17.676  0.00  0.00     0.130 A 
ATOM     41  H4  XLD d           5.692   3.821  16.728  0.00  0.00     0.170 HD
ATOM     42  N2  XLD d           7.671   2.400  18.841  0.00  0.00    -0.242 NA
ATOM     43  C6  XLD d           8.000   2.751  16.490  0.00  0.00    -0.037 A 
ATOM     44  C3  XLD d           8.750   1.619  18.933  0.00  0.00     0.025 A 
ATOM     45  C4  XLD d           9.544   1.359  17.789  0.00  0.00     0.051 A 
ATOM     46  H1  XLD d           9.019   1.181  19.888  0.00  0.00     0.117 H 
ATOM     47 CL1  XLD d          11.036   0.431  17.919  0.00  0.00    -0.083 Cl
ATOM     48  C5  XLD d           9.140   1.929  16.553  0.00  0.00    -0.057 A 
ATOM     49  H2  XLD d           9.712   1.729  15.653  0.00  0.00     0.086 H 
ATOM     50  H3  XLD d           7.689   3.190  15.549  0.00  0.00     0.089 H 
ATOM     51  O10 XLD d           6.066   4.556  19.775  0.00  0.00    -0.267 OA
ENDBRANCH   1  38
BRANCH   3  52
ATOM     52  O17 XLD d           2.588   8.499  18.840  0.00  0.00    -0.354 OA
BRANCH  52  53
ATOM     53  C18 XLD d           2.724   9.724  18.126  0.00  0.00     0.010 C 
ATOM     54  H7  XLD d           1.839  10.353  18.305  0.00  0.00     0.066 H 
ATOM     55  H8  XLD d           2.814   9.514  17.051  0.00  0.00     0.066 H 
ATOM     56  H9  XLD d           3.624  10.252  18.474  0.00  0.00     0.066 H 
ENDBRANCH  52  53
ENDBRANCH   3  52
TORSDOF 9
ENDMDL
MODEL 3
REMARK VINA RESULT:      -6.7      3.314      7.415
REMARK  9 active torsions:
REMARK  status: ('A' for Active; 'I' for Inactive)
REMARK       I    between atoms: N7_8  and  C9_9 
REMARK    1  A    between atoms: C9_9  and  C11_11 
REMARK    2  A    between atoms: C12_12  and  N19_20 
REMARK    3  A    between atoms: C13_13  and  O17_18 
REMARK    4  A    between atoms: O17_18  and  C18_19 
REMARK       I    between atoms: N19_20  and  C20_21 
REMARK    5  A    between atoms: C20_21  and  C22_23 
REMARK    6  A    between atoms: C25_26  and  C28_29 
REMARK    7  A    between atoms: C28_29  and  N29_30 
REMARK    8  A    between atoms: N29_30  and  C31_31 
REMARK    9  A    between atoms: N29_30  and  C32_32 
ROOT
ATOM      1  C11 XLD d           3.924   5.767  19.524  0.00  0.00     0.063 A 
ATOM      2  C12 XLD d           3.549   6.832  20.443  0.00  0.00     0.084 A 
ATOM      3  C13 XLD d           2.366   7.594  20.197  0.00  0.00     0.097 A 
ATOM      4  C14 XLD d           1.573   7.306  19.053  0.00  0.00    -0.028 A 
ATOM      5  C15 XLD d           1.950   6.276  18.162  0.00  0.00     0.037 A 
ATOM      6 CL2  XLD d           1.033   5.912  16.795  0.00  0.00    -0.084 Cl
ATOM      7  C16 XLD d           3.097   5.529  18.407  0.00  0.00    -0.044 A 
ATOM      8  H5  XLD d           0.674   7.881  18.863  0.00  0.00     0.090 H 
ATOM      9  H6  XLD d           3.363   4.737  17.717  0.00  0.00     0.087 H 
ENDROOT
BRANCH   2  10
ATOM     10  N19 XLD d           4.349   7.100  21.528  0.00  0.00    -0.319 N 
ATOM     11  C20 XLD d           5.442   7.920  21.560  0.00  0.00     0.264 C 
ATOM     12  O21 XLD d           5.773   8.487  20.483  0.00  0.00    -0.267 OA
ATOM     13  H10 XLD d           4.106   6.645  22.385  0.00  0.00     0.169 HD
BRANCH  11  14
ATOM     14  C22 XLD d           6.269   8.115  22.719  0.00  0.00     0.095 A 
ATOM     15  S23 XLD d           5.502   8.294  24.279  0.00  0.00    -0.094 SA
ATOM     16  C24 XLD d           7.037   8.506  25.013  0.00  0.00    -0.035 A 
ATOM     17  C25 XLD d           8.123   8.448  24.152  0.00  0.00    -0.011 A 
ATOM     18  H11 XLD d           7.152   8.674  26.082  0.00  0.00     0.096 H 
ATOM     19  C26 XLD d           7.684   8.212  22.830  0.00  0.00     0.065 A 
ATOM     20 CL3  XLD d           8.799   8.092  21.544  0.00  0.00    -0.082 Cl
BRANCH  17  21
ATOM     21  C28 XLD d           9.558   8.614  24.549  0.00  0.00     0.024 C 
ATOM     22  H12 XLD d           9.844   9.633  24.246  0.00  0.00     0.071 H 
ATOM     23  H13 XLD d          10.126   7.883  23.956  0.00  0.00     0.071 H 
BRANCH  21  24
ATOM     24  N29 XLD d          10.025   8.452  25.977  0.00  0.00    -0.346 N 
BRANCH  24  25
ATOM     25  C31 XLD d           9.196   7.615  26.888  0.00  0.00    -0.015 C 
ATOM     26  H14 XLD d           9.472   7.826  27.931  0.00  0.00     0.056 H 
ATOM     27  H15 XLD d           9.372   6.551  26.669  0.00  0.00     0.056 H 
ATOM     28  H16 XLD d           8.132   7.850  26.735  0.00  0.00     0.056 H 
ENDBRANCH  24  25
BRANCH  24  29
ATOM     29  C32 XLD d          11.416   8.201  26.081  0.00  0.00     0.239 A 
ATOM     30  N33 XLD d          12.019   7.757  27.209  0.00  0.00    -0.249 NA
ATOM     31  C34 XLD d          13.408   7.577  27.018  0.00  0.00     0.039 A 
ATOM     32  C35 XLD d          13.628   7.992  25.545  0.00  0.00     0.046 A 
ATOM     33  H17 XLD d          13.693   6.526  27.177  0.00  0.00     0.070 H 
ATOM     34  H18 XLD d          13.985   8.221  27.698  0.00  0.00     0.070 H 
ATOM     35  O36 XLD d          12.322   8.353  25.091  0.00  0.00    -0.319 OA
ATOM     36  H19 XLD d          14.028   7.153  24.957  0.00  0.00     0.077 H 
ATOM     37  H20 XLD d          14.316   8.847  25.478  0.00  0.00     0.077 H 
ENDBRANCH  24  29
ENDBRANCH  21  24
ENDBRANCH  17  21
ENDBRANCH  11  14
ENDBRANCH   2  10
BRANCH   1  38
ATOM     38  C9  XLD d           5.092   4.926  19.658  0.00  0.00     0.259 C 
ATOM     39  N7  XLD d           5.704   4.443  18.525  0.00  0.00    -0.307 N 
ATOM     40  C1  XLD d           6.781   3.610  18.426  0.00  0.00     0.130 A 
ATOM     41  H4  XLD d           5.306   4.742  17.657  0.00  0.00     0.170 HD
ATOM     42  N2  XLD d           7.091   2.704  19.408  0.00  0.00    -0.242 NA
ATOM     43  C6  XLD d           7.579   3.647  17.256  0.00  0.00    -0.037 A 
ATOM     44  C3  XLD d           8.129   1.867  19.340  0.00  0.00     0.025 A 
ATOM     45  C4  XLD d           8.982   1.876  18.209  0.00  0.00     0.051 A 
ATOM     46  H1  XLD d           8.320   1.178  20.155  0.00  0.00     0.117 H 
ATOM     47 CL1  XLD d          10.424   0.866  18.159  0.00  0.00    -0.083 Cl
ATOM     48  C5  XLD d           8.680   2.775  17.152  0.00  0.00    -0.057 A 
ATOM     49  H2  XLD d           9.298   2.789  16.261  0.00  0.00     0.086 H 
ATOM     50  H3  XLD d           7.346   4.336  16.452  0.00  0.00     0.089 H 
ATOM     51  O10 XLD d           5.520   4.621  20.804  0.00  0.00    -0.267 OA
ENDBRANCH   1  38
BRANCH   3  52
ATOM     52  O17 XLD d           2.036   8.581  21.077  0.00  0.00    -0.354 OA
BRANCH  52  53
ATOM     53  C18 XLD d           0.988   8.625  22.040  0.00  0.00     0.010 C 
ATOM     54  H7  XLD d           0.189   9.292  21.683  0.00  0.00     0.066 H 
ATOM     55  H8  XLD d           1.382   9.003  22.994  0.00  0.00     0.066 H 
ATOM     56  H9  XLD d           0.582   7.613  22.186  0.00  0.00     0.066 H 
ENDBRANCH  52  53
ENDBRANCH   3  52
TORSDOF 9
ENDMDL
MODEL 4
REMARK VINA RESULT:      -5.9      3.768      7.054
REMARK  9 active torsions:
REMARK  status: ('A' for Active; 'I' for Inactive)
REMARK       I    between atoms: N7_8  and  C9_9 
REMARK    1  A    between atoms: C9_9  and  C11_11 
REMARK    2  A    between atoms: C12_12  and  N19_20 
REMARK    3  A    between atoms: C13_13  and  O17_18 
REMARK    4  A    between atoms: O17_18  and  C18_19 
REMARK       I    between atoms: N19_20  and  C20_21 
REMARK    5  A    between atoms: C20_21  and  C22_23 
REMARK    6  A    between atoms: C25_26  and  C28_29 
REMARK    7  A    between atoms: C28_29  and  N29_30 
REMARK    8  A    between atoms: N29_30  and  C31_31 
REMARK    9  A    between atoms: N29_30  and  C32_32 
ROOT
ATOM      1  C11 XLD d           4.745   7.811  17.868  0.00  0.00     0.063 A 
ATOM      2  C12 XLD d           4.136   8.647  18.893  0.00  0.00     0.084 A 
ATOM      3  C13 XLD d           2.967   9.408  18.583  0.00  0.00     0.097 A 
ATOM      4  C14 XLD d           2.417   9.345  17.273  0.00  0.00    -0.028 A 
ATOM      5  C15 XLD d           3.020   8.537  16.282  0.00  0.00     0.037 A 
ATOM      6 CL2  XLD d           2.394   8.443  14.721  0.00  0.00    -0.084 Cl
ATOM      7  C16 XLD d           4.152   7.790  16.588  0.00  0.00    -0.044 A 
ATOM      8  H5  XLD d           1.530   9.919  17.034  0.00  0.00     0.090 H 
ATOM      9  H6  XLD d           4.594   7.170  15.816  0.00  0.00     0.087 H 
ENDROOT
BRANCH   2  10
ATOM     10  N19 XLD d           4.705   8.704  20.142  0.00  0.00    -0.319 N 
ATOM     11  C20 XLD d           4.386   7.935  21.227  0.00  0.00     0.264 C 
ATOM     12  O21 XLD d           3.461   7.089  21.086  0.00  0.00    -0.267 OA
ATOM     13  H10 XLD d           5.431   9.380  20.272  0.00  0.00     0.169 HD
BRANCH  11  14
ATOM     14  C22 XLD d           4.987   8.083  22.523  0.00  0.00     0.095 A 
ATOM     15  S23 XLD d           4.022   8.734  23.827  0.00  0.00    -0.094 SA
ATOM     16  C24 XLD d           5.369   8.625  24.882  0.00  0.00    -0.035 A 
ATOM     17  C25 XLD d           6.530   8.117  24.319  0.00  0.00    -0.011 A 
ATOM     18  H11 XLD d           5.317   8.934  25.925  0.00  0.00     0.096 H 
ATOM     19  C26 XLD d           6.309   7.793  22.961  0.00  0.00     0.065 A 
ATOM     20 CL3  XLD d           7.560   7.144  22.000  0.00  0.00    -0.082 Cl
BRANCH  17  21
ATOM     21  C28 XLD d           7.836   7.935  25.029  0.00  0.00     0.024 C 
ATOM     22  H12 XLD d           7.993   6.849  25.108  0.00  0.00     0.071 H 
ATOM     23  H13 XLD d           7.699   8.359  26.034  0.00  0.00     0.071 H 
BRANCH  21  24
ATOM     24  N29 XLD d           9.130   8.511  24.501  0.00  0.00    -0.346 N 
BRANCH  24  25
ATOM     25  C31 XLD d           9.095   9.885  23.928  0.00  0.00    -0.015 C 
ATOM     26  H14 XLD d          10.013  10.422  24.208  0.00  0.00     0.056 H 
ATOM     27  H15 XLD d           8.219  10.424  24.320  0.00  0.00     0.056 H 
ATOM     28  H16 XLD d           9.026   9.824  22.831  0.00  0.00     0.056 H 
ENDBRANCH  24  25
BRANCH  24  29
ATOM     29  C32 XLD d          10.232   8.280  25.361  0.00  0.00     0.239 A 
ATOM     30  N33 XLD d          10.130   7.687  26.573  0.00  0.00    -0.249 NA
ATOM     31  C34 XLD d          11.391   7.570  27.202  0.00  0.00     0.039 A 
ATOM     32  C35 XLD d          12.364   8.206  26.182  0.00  0.00     0.046 A 
ATOM     33  H17 XLD d          11.645   6.515  27.381  0.00  0.00     0.070 H 
ATOM     34  H18 XLD d          11.408   8.119  28.155  0.00  0.00     0.070 H 
ATOM     35  O36 XLD d          11.518   8.599  25.100  0.00  0.00    -0.319 OA
ATOM     36  H19 XLD d          13.114   7.474  25.846  0.00  0.00     0.077 H 
ATOM     37  H20 XLD d          12.873   9.079  26.618  0.00  0.00     0.077 H 
ENDBRANCH  24  29
ENDBRANCH  21  24
ENDBRANCH  17  21
ENDBRANCH  11  14
ENDBRANCH   2  10
BRANCH   1  38
ATOM     38  C9  XLD d           5.923   6.996  18.051  0.00  0.00     0.259 C 
ATOM     39  N7  XLD d           5.921   5.700  17.592  0.00  0.00    -0.307 N 
ATOM     40  C1  XLD d           6.902   4.756  17.694  0.00  0.00     0.130 A 
ATOM     41  H4  XLD d           5.089   5.410  17.119  0.00  0.00     0.170 HD
ATOM     42  N2  XLD d           7.814   4.765  18.719  0.00  0.00    -0.242 NA
ATOM     43  C6  XLD d           6.956   3.707  16.744  0.00  0.00    -0.037 A 
ATOM     44  C3  XLD d           8.779   3.853  18.858  0.00  0.00     0.025 A 
ATOM     45  C4  XLD d           8.903   2.796  17.923  0.00  0.00     0.051 A 
ATOM     46  H1  XLD d           9.470   3.922  19.690  0.00  0.00     0.117 H 
ATOM     47 CL1  XLD d          10.243   1.657  18.022  0.00  0.00    -0.083 Cl
ATOM     48  C5  XLD d           7.959   2.727  16.864  0.00  0.00    -0.057 A 
ATOM     49  H2  XLD d           8.012   1.916  16.146  0.00  0.00     0.086 H 
ATOM     50  H3  XLD d           6.235   3.659  15.936  0.00  0.00     0.089 H 
ATOM     51  O10 XLD d           6.928   7.468  18.650  0.00  0.00    -0.267 OA
ENDBRANCH   1  38
BRANCH   3  52
ATOM     52  O17 XLD d           2.416  10.178  19.564  0.00  0.00    -0.354 OA
BRANCH  52  53
ATOM     53  C18 XLD d           1.067  10.604  19.731  0.00  0.00     0.010 C 
ATOM     54  H7  XLD d           1.000  11.687  19.549  0.00  0.00     0.066 H 
ATOM     55  H8  XLD d           0.737  10.382  20.756  0.00  0.00     0.066 H 
ATOM     56  H9  XLD d           0.423  10.072  19.015  0.00  0.00     0.066 H 
ENDBRANCH  52  53
ENDBRANCH   3  52
TORSDOF 9
ENDMDL
MODEL 5
REMARK VINA RESULT:      -5.9      4.317      8.881
REMARK  9 active torsions:
REMARK  status: ('A' for Active; 'I' for Inactive)
REMARK       I    between atoms: N7_8  and  C9_9 
REMARK    1  A    between atoms: C9_9  and  C11_11 
REMARK    2  A    between atoms: C12_12  and  N19_20 
REMARK    3  A    between atoms: C13_13  and  O17_18 
REMARK    4  A    between atoms: O17_18  and  C18_19 
REMARK       I    between atoms: N19_20  and  C20_21 
REMARK    5  A    between atoms: C20_21  and  C22_23 
REMARK    6  A    between atoms: C25_26  and  C28_29 
REMARK    7  A    between atoms: C28_29  and  N29_30 
REMARK    8  A    between atoms: N29_30  and  C31_31 
REMARK    9  A    between atoms: N29_30  and  C32_32 
ROOT
ATOM      1  C11 XLD d           3.438   6.752  17.883  0.00  0.00     0.063 A 
ATOM      2  C12 XLD d           4.572   7.455  17.303  0.00  0.00     0.084 A 
ATOM      3  C13 XLD d           4.794   7.397  15.893  0.00  0.00     0.097 A 
ATOM      4  C14 XLD d           3.907   6.646  15.074  0.00  0.00    -0.028 A 
ATOM      5  C15 XLD d           2.813   5.960  15.648  0.00  0.00     0.037 A 
ATOM      6 CL2  XLD d           1.745   5.059  14.706  0.00  0.00    -0.084 Cl
ATOM      7  C16 XLD d           2.592   6.025  17.019  0.00  0.00    -0.044 A 
ATOM      8  H5  XLD d           4.071   6.600  14.004  0.00  0.00     0.090 H 
ATOM      9  H6  XLD d           1.742   5.498  17.438  0.00  0.00     0.087 H 
ENDROOT
BRANCH   2  10
ATOM     10  N19 XLD d           5.424   8.154  18.125  0.00  0.00    -0.319 N 
ATOM     11  C20 XLD d           6.550   7.677  18.737  0.00  0.00     0.264 C 
ATOM     12  O21 XLD d           6.841   6.464  18.551  0.00  0.00    -0.267 OA
ATOM     13  H10 XLD d           5.197   9.113  18.292  0.00  0.00     0.169 HD
BRANCH  11  14
ATOM     14  C22 XLD d           7.370   8.449  19.629  0.00  0.00     0.095 A 
ATOM     15  S23 XLD d           7.733  10.107  19.214  0.00  0.00    -0.094 SA
ATOM     16  C24 XLD d           8.689  10.255  20.630  0.00  0.00    -0.035 A 
ATOM     17  C25 XLD d           8.759   9.120  21.424  0.00  0.00    -0.011 A 
ATOM     18  H11 XLD d           9.206  11.178  20.888  0.00  0.00     0.096 H 
ATOM     19  C26 XLD d           7.990   8.080  20.855  0.00  0.00     0.065 A 
ATOM     20 CL3  XLD d           7.885   6.554  21.610  0.00  0.00    -0.082 Cl
BRANCH  17  21
ATOM     21  C28 XLD d           9.535   8.997  22.699  0.00  0.00     0.024 C 
ATOM     22  H12 XLD d          10.354   9.730  22.632  0.00  0.00     0.071 H 
ATOM     23  H13 XLD d           9.954   7.980  22.705  0.00  0.00     0.071 H 
BRANCH  21  24
ATOM     24  N29 XLD d           8.899   9.198  24.055  0.00  0.00    -0.346 N 
BRANCH  24  25
ATOM     25  C31 XLD d           7.432   8.970  24.174  0.00  0.00    -0.015 C 
ATOM     26  H14 XLD d           6.960   9.852  24.631  0.00  0.00     0.056 H 
ATOM     27  H15 XLD d           7.248   8.086  24.803  0.00  0.00     0.056 H 
ATOM     28  H16 XLD d           7.004   8.802  23.174  0.00  0.00     0.056 H 
ENDBRANCH  24  25
BRANCH  24  29
ATOM     29  C32 XLD d           9.652   8.628  25.112  0.00  0.00     0.239 A 
ATOM     30  N33 XLD d          10.855   9.097  25.518  0.00  0.00    -0.249 NA
ATOM     31  C34 XLD d          11.364   8.347  26.603  0.00  0.00     0.039 A 
ATOM     32  C35 XLD d          10.276   7.277  26.846  0.00  0.00     0.046 A 
ATOM     33  H17 XLD d          11.497   8.982  27.491  0.00  0.00     0.070 H 
ATOM     34  H18 XLD d          12.325   7.879  26.340  0.00  0.00     0.070 H 
ATOM     35  O36 XLD d           9.283   7.567  25.861  0.00  0.00    -0.319 OA
ATOM     36  H19 XLD d           9.858   7.366  27.860  0.00  0.00     0.077 H 
ATOM     37  H20 XLD d          10.683   6.265  26.706  0.00  0.00     0.077 H 
ENDBRANCH  24  29
ENDBRANCH  21  24
ENDBRANCH  17  21
ENDBRANCH  11  14
ENDBRANCH   2  10
BRANCH   1  38
ATOM     38  C9  XLD d           3.103   6.730  19.289  0.00  0.00     0.259 C 
ATOM     39  N7  XLD d           2.586   7.863  19.873  0.00  0.00    -0.307 N 
ATOM     40  C1  XLD d           2.242   8.069  21.179  0.00  0.00     0.130 A 
ATOM     41  H4  XLD d           2.443   8.639  19.260  0.00  0.00     0.170 HD
ATOM     42  N2  XLD d           2.845   7.386  22.204  0.00  0.00    -0.242 NA
ATOM     43  C6  XLD d           1.268   9.049  21.491  0.00  0.00    -0.037 A 
ATOM     44  C3  XLD d           2.543   7.569  23.492  0.00  0.00     0.025 A 
ATOM     45  C4  XLD d           1.556   8.514  23.867  0.00  0.00     0.051 A 
ATOM     46  H1  XLD d           3.055   6.992  24.253  0.00  0.00     0.117 H 
ATOM     47 CL1  XLD d           1.060   8.680  25.549  0.00  0.00    -0.083 Cl
ATOM     48  C5  XLD d           0.930   9.269  22.840  0.00  0.00    -0.057 A 
ATOM     49  H2  XLD d           0.188  10.018  23.096  0.00  0.00     0.086 H 
ATOM     50  H3  XLD d           0.791   9.622  20.705  0.00  0.00     0.089 H 
ATOM     51  O10 XLD d           3.311   5.689  19.969  0.00  0.00    -0.267 OA
ENDBRANCH   1  38
BRANCH   3  52
ATOM     52  O17 XLD d           5.862   8.070  15.377  0.00  0.00    -0.354 OA
BRANCH  52  53
ATOM     53  C18 XLD d           5.891   9.135  14.432  0.00  0.00     0.010 C 
ATOM     54  H7  XLD d           6.753   9.787  14.641  0.00  0.00     0.066 H 
ATOM     55  H8  XLD d           4.962   9.719  14.510  0.00  0.00     0.066 H 
ATOM     56  H9  XLD d           5.982   8.723  13.417  0.00  0.00     0.066 H 
ENDBRANCH  52  53
ENDBRANCH   3  52
TORSDOF 9
ENDMDL
MODEL 6
REMARK VINA RESULT:      -5.8      3.342      5.011
REMARK  9 active torsions:
REMARK  status: ('A' for Active; 'I' for Inactive)
REMARK       I    between atoms: N7_8  and  C9_9 
REMARK    1  A    between atoms: C9_9  and  C11_11 
REMARK    2  A    between atoms: C12_12  and  N19_20 
REMARK    3  A    between atoms: C13_13  and  O17_18 
REMARK    4  A    between atoms: O17_18  and  C18_19 
REMARK       I    between atoms: N19_20  and  C20_21 
REMARK    5  A    between atoms: C20_21  and  C22_23 
REMARK    6  A    between atoms: C25_26  and  C28_29 
REMARK    7  A    between atoms: C28_29  and  N29_30 
REMARK    8  A    between atoms: N29_30  and  C31_31 
REMARK    9  A    between atoms: N29_30  and  C32_32 
ROOT
ATOM      1  C11 XLD d           6.887   7.373  21.737  0.00  0.00     0.063 A 
ATOM      2  C12 XLD d           7.143   7.847  20.384  0.00  0.00     0.084 A 
ATOM      3  C13 XLD d           8.153   8.832  20.159  0.00  0.00     0.097 A 
ATOM      4  C14 XLD d           8.892   9.342  21.261  0.00  0.00    -0.028 A 
ATOM      5  C15 XLD d           8.631   8.883  22.571  0.00  0.00     0.037 A 
ATOM      6 CL2  XLD d           9.487   9.470  23.899  0.00  0.00    -0.084 Cl
ATOM      7  C16 XLD d           7.654   7.917  22.789  0.00  0.00    -0.044 A 
ATOM      8  H5  XLD d           9.660  10.088  21.094  0.00  0.00     0.090 H 
ATOM      9  H6  XLD d           7.475   7.572  23.800  0.00  0.00     0.087 H 
ENDROOT
BRANCH   2  10
ATOM     10  N19 XLD d           6.395   7.350  19.343  0.00  0.00    -0.319 N 
ATOM     11  C20 XLD d           6.638   6.211  18.628  0.00  0.00     0.264 C 
ATOM     12  O21 XLD d           7.663   5.542  18.932  0.00  0.00    -0.267 OA
ATOM     13  H10 XLD d           5.587   7.878  19.082  0.00  0.00     0.169 HD
BRANCH  11  14
ATOM     14  C22 XLD d           5.843   5.776  17.513  0.00  0.00     0.095 A 
ATOM     15  S23 XLD d           4.407   6.681  17.099  0.00  0.00    -0.094 SA
ATOM     16  C24 XLD d           4.073   5.578  15.830  0.00  0.00    -0.035 A 
ATOM     17  C25 XLD d           4.987   4.546  15.680  0.00  0.00    -0.011 A 
ATOM     18  H11 XLD d           3.202   5.681  15.185  0.00  0.00     0.096 H 
ATOM     19  C26 XLD d           6.015   4.663  16.643  0.00  0.00     0.065 A 
ATOM     20 CL3  XLD d           7.290   3.531  16.706  0.00  0.00    -0.082 Cl
BRANCH  17  21
ATOM     21  C28 XLD d           4.909   3.455  14.656  0.00  0.00     0.024 C 
ATOM     22  H12 XLD d           5.916   3.370  14.222  0.00  0.00     0.071 H 
ATOM     23  H13 XLD d           4.207   3.808  13.887  0.00  0.00     0.071 H 
BRANCH  21  24
ATOM     24  N29 XLD d           4.480   2.049  15.005  0.00  0.00    -0.346 N 
BRANCH  24  25
ATOM     25  C31 XLD d           5.501   0.969  14.911  0.00  0.00    -0.015 C 
ATOM     26  H14 XLD d           5.730   0.772  13.853  0.00  0.00     0.056 H 
ATOM     27  H15 XLD d           5.110   0.053  15.379  0.00  0.00     0.056 H 
ATOM     28  H16 XLD d           6.418   1.284  15.432  0.00  0.00     0.056 H 
ENDBRANCH  24  25
BRANCH  24  29
ATOM     29  C32 XLD d           3.689   1.984  16.180  0.00  0.00     0.239 A 
ATOM     30  N33 XLD d           4.169   1.616  17.391  0.00  0.00    -0.249 NA
ATOM     31  C34 XLD d           3.162   1.661  18.383  0.00  0.00     0.039 A 
ATOM     32  C35 XLD d           1.909   2.124  17.606  0.00  0.00     0.046 A 
ATOM     33  H17 XLD d           3.422   2.380  19.174  0.00  0.00     0.070 H 
ATOM     34  H18 XLD d           3.004   0.667  18.828  0.00  0.00     0.070 H 
ATOM     35  O36 XLD d           2.376   2.285  16.265  0.00  0.00    -0.319 OA
ATOM     36  H19 XLD d           1.530   3.077  18.004  0.00  0.00     0.077 H 
ATOM     37  H20 XLD d           1.115   1.365  17.655  0.00  0.00     0.077 H 
ENDBRANCH  24  29
ENDBRANCH  21  24
ENDBRANCH  17  21
ENDBRANCH  11  14
ENDBRANCH   2  10
BRANCH   1  38
ATOM     38  C9  XLD d           5.897   6.385  22.099  0.00  0.00     0.259 C 
ATOM     39  N7  XLD d           6.068   5.083  21.689  0.00  0.00    -0.307 N 
ATOM     40  C1  XLD d           5.244   4.012  21.885  0.00  0.00     0.130 A 
ATOM     41  H4  XLD d           6.907   4.897  21.179  0.00  0.00     0.170 HD
ATOM     42  N2  XLD d           3.890   4.158  22.045  0.00  0.00    -0.242 NA
ATOM     43  C6  XLD d           5.794   2.706  21.878  0.00  0.00    -0.037 A 
ATOM     44  C3  XLD d           3.053   3.133  22.227  0.00  0.00     0.025 A 
ATOM     45  C4  XLD d           3.545   1.805  22.260  0.00  0.00     0.051 A 
ATOM     46  H1  XLD d           1.992   3.319  22.351  0.00  0.00     0.117 H 
ATOM     47 CL1  XLD d           2.474   0.454  22.621  0.00  0.00    -0.083 Cl
ATOM     48  C5  XLD d           4.937   1.604  22.065  0.00  0.00    -0.057 A 
ATOM     49  H2  XLD d           5.342   0.598  22.059  0.00  0.00     0.086 H 
ATOM     50  H3  XLD d           6.857   2.557  21.731  0.00  0.00     0.089 H 
ATOM     51  O10 XLD d           4.879   6.728  22.760  0.00  0.00    -0.267 OA
ENDBRANCH   1  38
BRANCH   3  52
ATOM     52  O17 XLD d           8.374   9.253  18.881  0.00  0.00    -0.354 OA
BRANCH  52  53
ATOM     53  C18 XLD d           7.680  10.235  18.118  0.00  0.00     0.010 C 
ATOM     54  H7  XLD d           6.679   9.860  17.861  0.00  0.00     0.066 H 
ATOM     55  H8  XLD d           8.241  10.446  17.196  0.00  0.00     0.066 H 
ATOM     56  H9  XLD d           7.585  11.158  18.709  0.00  0.00     0.066 H 
ENDBRANCH  52  53
ENDBRANCH   3  52
TORSDOF 9
ENDMDL
MODEL 7
REMARK VINA RESULT:      -5.8      3.045      7.148
REMARK  9 active torsions:
REMARK  status: ('A' for Active; 'I' for Inactive)
REMARK       I    between atoms: N7_8  and  C9_9 
REMARK    1  A    between atoms: C9_9  and  C11_11 
REMARK    2  A    between atoms: C12_12  and  N19_20 
REMARK    3  A    between atoms: C13_13  and  O17_18 
REMARK    4  A    between atoms: O17_18  and  C18_19 
REMARK       I    between atoms: N19_20  and  C20_21 
REMARK    5  A    between atoms: C20_21  and  C22_23 
REMARK    6  A    between atoms: C25_26  and  C28_29 
REMARK    7  A    between atoms: C28_29  and  N29_30 
REMARK    8  A    between atoms: N29_30  and  C31_31 
REMARK    9  A    between atoms: N29_30  and  C32_32 
ROOT
ATOM      1  C11 XLD d           4.441   3.726  22.535  0.00  0.00     0.063 A 
ATOM      2  C12 XLD d           4.371   5.126  22.926  0.00  0.00     0.084 A 
ATOM      3  C13 XLD d           3.203   5.618  23.586  0.00  0.00     0.097 A 
ATOM      4  C14 XLD d           2.121   4.734  23.847  0.00  0.00    -0.028 A 
ATOM      5  C15 XLD d           2.195   3.378  23.457  0.00  0.00     0.037 A 
ATOM      6 CL2  XLD d           0.929   2.305  23.749  0.00  0.00    -0.084 Cl
ATOM      7  C16 XLD d           3.336   2.898  22.822  0.00  0.00    -0.044 A 
ATOM      8  H5  XLD d           1.234   5.102  24.349  0.00  0.00     0.090 H 
ATOM      9  H6  XLD d           3.377   1.852  22.538  0.00  0.00     0.087 H 
ENDROOT
BRANCH   2  10
ATOM     10  N19 XLD d           5.425   5.960  22.638  0.00  0.00    -0.319 N 
ATOM     11  C20 XLD d           5.596   6.708  21.507  0.00  0.00     0.264 C 
ATOM     12  O21 XLD d           4.708   6.622  20.615  0.00  0.00    -0.267 OA
ATOM     13  H10 XLD d           6.143   6.027  23.331  0.00  0.00     0.169 HD
BRANCH  11  14
ATOM     14  C22 XLD d           6.751   7.521  21.246  0.00  0.00     0.095 A 
ATOM     15  S23 XLD d           7.019   8.106  19.621  0.00  0.00    -0.094 SA
ATOM     16  C24 XLD d           8.470   8.864  20.129  0.00  0.00    -0.035 A 
ATOM     17  C25 XLD d           8.784   8.714  21.472  0.00  0.00    -0.011 A 
ATOM     18  H11 XLD d           9.103   9.426  19.444  0.00  0.00     0.096 H 
ATOM     19  C26 XLD d           7.789   7.949  22.121  0.00  0.00     0.065 A 
ATOM     20 CL3  XLD d           7.902   7.595  23.786  0.00  0.00    -0.082 Cl
BRANCH  17  21
ATOM     21  C28 XLD d           9.998   9.270  22.150  0.00  0.00     0.024 C 
ATOM     22  H12 XLD d          10.460   9.964  21.431  0.00  0.00     0.071 H 
ATOM     23  H13 XLD d          10.671   8.418  22.321  0.00  0.00     0.071 H 
BRANCH  21  24
ATOM     24  N29 XLD d           9.920  10.015  23.462  0.00  0.00    -0.346 N 
BRANCH  24  25
ATOM     25  C31 XLD d           8.596  10.560  23.873  0.00  0.00    -0.015 C 
ATOM     26  H14 XLD d           7.797   9.901  23.502  0.00  0.00     0.056 H 
ATOM     27  H15 XLD d           8.467  11.568  23.450  0.00  0.00     0.056 H 
ATOM     28  H16 XLD d           8.546  10.614  24.971  0.00  0.00     0.056 H 
ENDBRANCH  24  25
BRANCH  24  29
ATOM     29  C32 XLD d          10.620   9.367  24.511  0.00  0.00     0.239 A 
ATOM     30  N33 XLD d          10.168   9.295  25.785  0.00  0.00    -0.249 NA
ATOM     31  C34 XLD d          11.061   8.574  26.611  0.00  0.00     0.039 A 
ATOM     32  C35 XLD d          12.206   8.180  25.650  0.00  0.00     0.046 A 
ATOM     33  H17 XLD d          10.574   7.681  27.030  0.00  0.00     0.070 H 
ATOM     34  H18 XLD d          11.435   9.206  27.431  0.00  0.00     0.070 H 
ATOM     35  O36 XLD d          11.805   8.732  24.395  0.00  0.00    -0.319 OA
ATOM     36  H19 XLD d          12.302   7.086  25.584  0.00  0.00     0.077 H 
ATOM     37  H20 XLD d          13.161   8.613  25.981  0.00  0.00     0.077 H 
ENDBRANCH  24  29
ENDBRANCH  21  24
ENDBRANCH  17  21
ENDBRANCH  11  14
ENDBRANCH   2  10
BRANCH   1  38
ATOM     38  C9  XLD d           5.560   3.105  21.863  0.00  0.00     0.259 C 
ATOM     39  N7  XLD d           6.156   3.758  20.810  0.00  0.00    -0.307 N 
ATOM     40  C1  XLD d           7.188   3.338  20.019  0.00  0.00     0.130 A 
ATOM     41  H4  XLD d           5.785   4.660  20.593  0.00  0.00     0.170 HD
ATOM     42  N2  XLD d           7.438   2.008  19.797  0.00  0.00    -0.242 NA
ATOM     43  C6  XLD d           7.999   4.302  19.370  0.00  0.00    -0.037 A 
ATOM     44  C3  XLD d           8.429   1.562  19.023  0.00  0.00     0.025 A 
ATOM     45  C4  XLD d           9.293   2.475  18.370  0.00  0.00     0.051 A 
ATOM     46  H1  XLD d           8.574   0.495  18.893  0.00  0.00     0.117 H 
ATOM     47 CL1  XLD d          10.679   1.903  17.445  0.00  0.00    -0.083 Cl
ATOM     48  C5  XLD d           9.051   3.864  18.544  0.00  0.00    -0.057 A 
ATOM     49  H2  XLD d           9.679   4.589  18.039  0.00  0.00     0.086 H 
ATOM     50  H3  XLD d           7.812   5.361  19.508  0.00  0.00     0.089 H 
ATOM     51  O10 XLD d           5.958   1.965  22.227  0.00  0.00    -0.267 OA
ENDBRANCH   1  38
BRANCH   3  52
ATOM     52  O17 XLD d           3.167   6.933  23.945  0.00  0.00    -0.354 OA
BRANCH  52  53
ATOM     53  C18 XLD d           2.442   7.566  24.995  0.00  0.00     0.010 C 
ATOM     54  H7  XLD d           3.128   8.181  25.596  0.00  0.00     0.066 H 
ATOM     55  H8  XLD d           1.979   6.800  25.634  0.00  0.00     0.066 H 
ATOM     56  H9  XLD d           1.659   8.207  24.564  0.00  0.00     0.066 H 
ENDBRANCH  52  53
ENDBRANCH   3  52
TORSDOF 9
ENDMDL
MODEL 8
REMARK VINA RESULT:      -5.7      1.804      2.732
REMARK  9 active torsions:
REMARK  status: ('A' for Active; 'I' for Inactive)
REMARK       I    between atoms: N7_8  and  C9_9 
REMARK    1  A    between atoms: C9_9  and  C11_11 
REMARK    2  A    between atoms: C12_12  and  N19_20 
REMARK    3  A    between atoms: C13_13  and  O17_18 
REMARK    4  A    between atoms: O17_18  and  C18_19 
REMARK       I    between atoms: N19_20  and  C20_21 
REMARK    5  A    between atoms: C20_21  and  C22_23 
REMARK    6  A    between atoms: C25_26  and  C28_29 
REMARK    7  A    between atoms: C28_29  and  N29_30 
REMARK    8  A    between atoms: N29_30  and  C31_31 
REMARK    9  A    between atoms: N29_30  and  C32_32 
ROOT
ATOM      1  C11 XLD d           7.669   7.573  22.460  0.00  0.00     0.063 A 
ATOM      2  C12 XLD d           6.447   7.682  23.243  0.00  0.00     0.084 A 
ATOM      3  C13 XLD d           6.431   8.490  24.421  0.00  0.00     0.097 A 
ATOM      4  C14 XLD d           7.612   9.173  24.818  0.00  0.00    -0.028 A 
ATOM      5  C15 XLD d           8.797   9.055  24.056  0.00  0.00     0.037 A 
ATOM      6 CL2  XLD d          10.215   9.850  24.501  0.00  0.00    -0.084 Cl
ATOM      7  C16 XLD d           8.809   8.275  22.904  0.00  0.00    -0.044 A 
ATOM      8  H5  XLD d           7.605   9.788  25.710  0.00  0.00     0.090 H 
ATOM      9  H6  XLD d           9.725   8.205  22.329  0.00  0.00     0.087 H 
ENDROOT
BRANCH   2  10
ATOM     10  N19 XLD d           5.327   6.990  22.845  0.00  0.00    -0.319 N 
ATOM     11  C20 XLD d           4.466   7.329  21.840  0.00  0.00     0.264 C 
ATOM     12  O21 XLD d           4.701   8.397  21.211  0.00  0.00    -0.267 OA
ATOM     13  H10 XLD d           5.122   6.149  23.345  0.00  0.00     0.169 HD
BRANCH  11  14
ATOM     14  C22 XLD d           3.281   6.587  21.509  0.00  0.00     0.095 A 
ATOM     15  S23 XLD d           1.772   7.027  22.274  0.00  0.00    -0.094 SA
ATOM     16  C24 XLD d           0.977   5.754  21.446  0.00  0.00    -0.035 A 
ATOM     17  C25 XLD d           1.779   4.996  20.606  0.00  0.00    -0.011 A 
ATOM     18  H11 XLD d          -0.086   5.554  21.571  0.00  0.00     0.096 H 
ATOM     19  C26 XLD d           3.106   5.481  20.632  0.00  0.00     0.065 A 
ATOM     20 CL3  XLD d           4.327   4.746  19.695  0.00  0.00    -0.082 Cl
BRANCH  17  21
ATOM     21  C28 XLD d           1.323   3.828  19.786  0.00  0.00     0.024 C 
ATOM     22  H12 XLD d           0.267   4.019  19.542  0.00  0.00     0.071 H 
ATOM     23  H13 XLD d           1.394   2.948  20.442  0.00  0.00     0.071 H 
BRANCH  21  24
ATOM     24  N29 XLD d           1.992   3.442  18.488  0.00  0.00    -0.346 N 
BRANCH  24  25
ATOM     25  C31 XLD d           2.044   1.995  18.138  0.00  0.00    -0.015 C 
ATOM     26  H14 XLD d           1.020   1.608  18.026  0.00  0.00     0.056 H 
ATOM     27  H15 XLD d           2.560   1.442  18.937  0.00  0.00     0.056 H 
ATOM     28  H16 XLD d           2.589   1.865  17.191  0.00  0.00     0.056 H 
ENDBRANCH  24  25
BRANCH  24  29
ATOM     29  C32 XLD d           1.625   4.277  17.403  0.00  0.00     0.239 A 
ATOM     30  N33 XLD d           1.260   3.813  16.185  0.00  0.00    -0.249 NA
ATOM     31  C34 XLD d           0.929   4.869  15.306  0.00  0.00     0.039 A 
ATOM     32  C35 XLD d           1.147   6.137  16.163  0.00  0.00     0.046 A 
ATOM     33  H17 XLD d          -0.118   4.792  14.977  0.00  0.00     0.070 H 
ATOM     34  H18 XLD d           1.591   4.871  14.426  0.00  0.00     0.070 H 
ATOM     35  O36 XLD d           1.574   5.626  17.428  0.00  0.00    -0.319 OA
ATOM     36  H19 XLD d           0.211   6.705  16.267  0.00  0.00     0.077 H 
ATOM     37  H20 XLD d           1.920   6.781  15.721  0.00  0.00     0.077 H 
ENDBRANCH  24  29
ENDBRANCH  21  24
ENDBRANCH  17  21
ENDBRANCH  11  14
ENDBRANCH   2  10
BRANCH   1  38
ATOM     38  C9  XLD d           7.818   6.792  21.254  0.00  0.00     0.259 C 
ATOM     39  N7  XLD d           7.685   5.424  21.320  0.00  0.00    -0.307 N 
ATOM     40  C1  XLD d           7.825   4.504  20.320  0.00  0.00     0.130 A 
ATOM     41  H4  XLD d           7.456   5.054  22.220  0.00  0.00     0.170 HD
ATOM     42  N2  XLD d           8.632   4.729  19.235  0.00  0.00    -0.242 NA
ATOM     43  C6  XLD d           7.154   3.260  20.426  0.00  0.00    -0.037 A 
ATOM     44  C3  XLD d           8.801   3.849  18.245  0.00  0.00     0.025 A 
ATOM     45  C4  XLD d           8.134   2.599  18.278  0.00  0.00     0.051 A 
ATOM     46  H1  XLD d           9.451   4.092  17.412  0.00  0.00     0.117 H 
ATOM     47 CL1  XLD d           8.250   1.479  16.923  0.00  0.00    -0.083 Cl
ATOM     48  C5  XLD d           7.314   2.309  19.401  0.00  0.00    -0.057 A 
ATOM     49  H2  XLD d           6.810   1.352  19.469  0.00  0.00     0.086 H 
ATOM     50  H3  XLD d           6.528   3.044  21.284  0.00  0.00     0.089 H 
ATOM     51  O10 XLD d           8.094   7.363  20.164  0.00  0.00    -0.267 OA
ENDBRANCH   1  38
BRANCH   3  52
ATOM     52  O17 XLD d           5.271   8.577  25.132  0.00  0.00    -0.354 OA
BRANCH  52  53
ATOM     53  C18 XLD d           4.139   9.416  24.922  0.00  0.00     0.010 C 
ATOM     54  H7  XLD d           4.018   9.604  23.845  0.00  0.00     0.066 H 
ATOM     55  H8  XLD d           4.289  10.371  25.447  0.00  0.00     0.066 H 
ATOM     56  H9  XLD d           3.238   8.920  25.310  0.00  0.00     0.066 H 
ENDBRANCH  52  53
ENDBRANCH   3  52
TORSDOF 9
ENDMDL
MODEL 9
REMARK VINA RESULT:      -5.7      3.874      6.559
REMARK  9 active torsions:
REMARK  status: ('A' for Active; 'I' for Inactive)
REMARK       I    between atoms: N7_8  and  C9_9 
REMARK    1  A    between atoms: C9_9  and  C11_11 
REMARK    2  A    between atoms: C12_12  and  N19_20 
REMARK    3  A    between atoms: C13_13  and  O17_18 
REMARK    4  A    between atoms: O17_18  and  C18_19 
REMARK       I    between atoms: N19_20  and  C20_21 
REMARK    5  A    between atoms: C20_21  and  C22_23 
REMARK    6  A    between atoms: C25_26  and  C28_29 
REMARK    7  A    between atoms: C28_29  and  N29_30 
REMARK    8  A    between atoms: N29_30  and  C31_31 
REMARK    9  A    between atoms: N29_30  and  C32_32 
ROOT
ATOM      1  C11 XLD d           3.419   3.780  21.373  0.00  0.00     0.063 A 
ATOM      2  C12 XLD d           3.334   5.180  21.762  0.00  0.00     0.084 A 
ATOM      3  C13 XLD d           2.579   5.549  22.917  0.00  0.00     0.097 A 
ATOM      4  C14 XLD d           1.912   4.543  23.668  0.00  0.00    -0.028 A 
ATOM      5  C15 XLD d           1.993   3.187  23.278  0.00  0.00     0.037 A 
ATOM      6 CL2  XLD d           1.212   1.972  24.146  0.00  0.00    -0.084 Cl
ATOM      7  C16 XLD d           2.736   2.828  22.159  0.00  0.00    -0.044 A 
ATOM      8  H5  XLD d           1.339   4.818  24.546  0.00  0.00     0.090 H 
ATOM      9  H6  XLD d           2.793   1.781  21.882  0.00  0.00     0.087 H 
ENDROOT
BRANCH   2  10
ATOM     10  N19 XLD d           3.971   6.130  21.000  0.00  0.00    -0.319 N 
ATOM     11  C20 XLD d           5.261   6.562  21.135  0.00  0.00     0.264 C 
ATOM     12  O21 XLD d           5.948   6.055  22.063  0.00  0.00    -0.267 OA
ATOM     13  H10 XLD d           3.433   6.551  20.270  0.00  0.00     0.169 HD
BRANCH  11  14
ATOM     14  C22 XLD d           5.851   7.601  20.337  0.00  0.00     0.095 A 
ATOM     15  S23 XLD d           7.582   7.831  20.401  0.00  0.00    -0.094 SA
ATOM     16  C24 XLD d           7.450   9.149  19.313  0.00  0.00    -0.035 A 
ATOM     17  C25 XLD d           6.165   9.443  18.883  0.00  0.00    -0.011 A 
ATOM     18  H11 XLD d           8.318   9.717  18.981  0.00  0.00     0.096 H 
ATOM     19  C26 XLD d           5.241   8.545  19.464  0.00  0.00     0.065 A 
ATOM     20 CL3  XLD d           3.574   8.658  19.122  0.00  0.00    -0.082 Cl
BRANCH  17  21
ATOM     21  C28 XLD d           5.791  10.549  17.945  0.00  0.00     0.024 C 
ATOM     22  H12 XLD d           6.446  11.397  18.195  0.00  0.00     0.071 H 
ATOM     23  H13 XLD d           4.749  10.809  18.177  0.00  0.00     0.071 H 
BRANCH  21  24
ATOM     24  N29 XLD d           5.861  10.392  16.443  0.00  0.00    -0.346 N 
BRANCH  24  25
ATOM     25  C31 XLD d           7.180  10.602  15.784  0.00  0.00    -0.015 C 
ATOM     26  H14 XLD d           7.277   9.914  14.931  0.00  0.00     0.056 H 
ATOM     27  H15 XLD d           7.986  10.407  16.507  0.00  0.00     0.056 H 
ATOM     28  H16 XLD d           7.251  11.640  15.427  0.00  0.00     0.056 H 
ENDBRANCH  24  25
BRANCH  24  29
ATOM     29  C32 XLD d           5.163   9.253  15.970  0.00  0.00     0.239 A 
ATOM     30  N33 XLD d           3.842   9.247  15.677  0.00  0.00    -0.249 NA
ATOM     31  C34 XLD d           3.420   7.982  15.209  0.00  0.00     0.039 A 
ATOM     32  C35 XLD d           4.710   7.131  15.250  0.00  0.00     0.046 A 
ATOM     33  H17 XLD d           3.028   8.053  14.183  0.00  0.00     0.070 H 
ATOM     34  H18 XLD d           2.648   7.556  15.868  0.00  0.00     0.070 H 
ATOM     35  O36 XLD d           5.702   8.037  15.737  0.00  0.00    -0.319 OA
ATOM     36  H19 XLD d           4.972   6.768  14.245  0.00  0.00     0.077 H 
ATOM     37  H20 XLD d           4.594   6.276  15.930  0.00  0.00     0.077 H 
ENDBRANCH  24  29
ENDBRANCH  21  24
ENDBRANCH  17  21
ENDBRANCH  11  14
ENDBRANCH   2  10
BRANCH   1  38
ATOM     38  C9  XLD d           4.146   3.276  20.231  0.00  0.00     0.259 C 
ATOM     39  N7  XLD d           5.521   3.242  20.273  0.00  0.00    -0.307 N 
ATOM     40  C1  XLD d           6.395   2.846  19.301  0.00  0.00     0.130 A 
ATOM     41  H4  XLD d           5.935   3.549  21.129  0.00  0.00     0.170 HD
ATOM     42  N2  XLD d           6.084   2.930  17.968  0.00  0.00    -0.242 NA
ATOM     43  C6  XLD d           7.679   2.379  19.674  0.00  0.00    -0.037 A 
ATOM     44  C3  XLD d           6.917   2.563  16.991  0.00  0.00     0.025 A 
ATOM     45  C4  XLD d           8.205   2.060  17.301  0.00  0.00     0.051 A 
ATOM     46  H1  XLD d           6.606   2.650  15.956  0.00  0.00     0.117 H 
ATOM     47 CL1  XLD d           9.268   1.458  16.031  0.00  0.00    -0.083 Cl
ATOM     48  C5  XLD d           8.583   1.988  18.668  0.00  0.00    -0.057 A 
ATOM     49  H2  XLD d           9.570   1.631  18.938  0.00  0.00     0.086 H 
ATOM     50  H3  XLD d           7.963   2.324  20.719  0.00  0.00     0.089 H 
ATOM     51  O10 XLD d           3.521   2.899  19.202  0.00  0.00    -0.267 OA
ENDBRANCH   1  38
BRANCH   3  52
ATOM     52  O17 XLD d           2.521   6.867  23.260  0.00  0.00    -0.354 OA
BRANCH  52  53
ATOM     53  C18 XLD d           3.228   7.571  24.276  0.00  0.00     0.010 C 
ATOM     54  H7  XLD d           3.182   7.001  25.217  0.00  0.00     0.066 H 
ATOM     55  H8  XLD d           2.771   8.560  24.423  0.00  0.00     0.066 H 
ATOM     56  H9  XLD d           4.279   7.693  23.974  0.00  0.00     0.066 H 
ENDBRANCH  52  53
ENDBRANCH   3  52
TORSDOF 9
ENDMDL
MODEL 10
REMARK VINA RESULT:      -5.2      3.791      8.331
REMARK  9 active torsions:
REMARK  status: ('A' for Active; 'I' for Inactive)
REMARK       I    between atoms: N7_8  and  C9_9 
REMARK    1  A    between atoms: C9_9  and  C11_11 
REMARK    2  A    between atoms: C12_12  and  N19_20 
REMARK    3  A    between atoms: C13_13  and  O17_18 
REMARK    4  A    between atoms: O17_18  and  C18_19 
REMARK       I    between atoms: N19_20  and  C20_21 
REMARK    5  A    between atoms: C20_21  and  C22_23 
REMARK    6  A    between atoms: C25_26  and  C28_29 
REMARK    7  A    between atoms: C28_29  and  N29_30 
REMARK    8  A    between atoms: N29_30  and  C31_31 
REMARK    9  A    between atoms: N29_30  and  C32_32 
ROOT
ATOM      1  C11 XLD d           3.069   4.600  17.635  0.00  0.00     0.063 A 
ATOM      2  C12 XLD d           3.711   5.802  17.126  0.00  0.00     0.084 A 
ATOM      3  C13 XLD d           3.591   6.136  15.742  0.00  0.00     0.097 A 
ATOM      4  C14 XLD d           2.851   5.284  14.877  0.00  0.00    -0.028 A 
ATOM      5  C15 XLD d           2.238   4.113  15.379  0.00  0.00     0.037 A 
ATOM      6 CL2  XLD d           1.356   3.081  14.381  0.00  0.00    -0.084 Cl
ATOM      7  C16 XLD d           2.348   3.795  16.729  0.00  0.00    -0.044 A 
ATOM      8  H5  XLD d           2.756   5.533  13.827  0.00  0.00     0.090 H 
ATOM      9  H6  XLD d           1.862   2.898  17.096  0.00  0.00     0.087 H 
ENDROOT
BRANCH   2  10
ATOM     10  N19 XLD d           4.438   6.593  17.983  0.00  0.00    -0.319 N 
ATOM     11  C20 XLD d           5.789   6.553  18.191  0.00  0.00     0.264 C 
ATOM     12  O21 XLD d           6.449   5.693  17.547  0.00  0.00    -0.267 OA
ATOM     13  H10 XLD d           3.925   7.270  18.511  0.00  0.00     0.169 HD
BRANCH  11  14
ATOM     14  C22 XLD d           6.481   7.375  19.144  0.00  0.00     0.095 A 
ATOM     15  S23 XLD d           6.488   9.107  18.914  0.00  0.00    -0.094 SA
ATOM     16  C24 XLD d           7.463   9.293  20.311  0.00  0.00    -0.035 A 
ATOM     17  C25 XLD d           7.796   8.118  20.968  0.00  0.00    -0.011 A 
ATOM     18  H11 XLD d           7.798  10.268  20.661  0.00  0.00     0.096 H 
ATOM     19  C26 XLD d           7.222   7.010  20.303  0.00  0.00     0.065 A 
ATOM     20 CL3  XLD d           7.458   5.423  20.881  0.00  0.00    -0.082 Cl
BRANCH  17  21
ATOM     21  C28 XLD d           8.641   8.018  22.200  0.00  0.00     0.024 C 
ATOM     22  H12 XLD d           9.569   8.568  21.980  0.00  0.00     0.071 H 
ATOM     23  H13 XLD d           8.871   6.950  22.328  0.00  0.00     0.071 H 
BRANCH  21  24
ATOM     24  N29 XLD d           8.168   8.512  23.548  0.00  0.00    -0.346 N 
BRANCH  24  25
ATOM     25  C31 XLD d           6.820   8.079  24.011  0.00  0.00    -0.015 C 
ATOM     26  H14 XLD d           6.115   8.113  23.167  0.00  0.00     0.056 H 
ATOM     27  H15 XLD d           6.472   8.753  24.808  0.00  0.00     0.056 H 
ATOM     28  H16 XLD d           6.878   7.051  24.398  0.00  0.00     0.056 H 
ENDBRANCH  24  25
BRANCH  24  29
ATOM     29  C32 XLD d           9.167   8.434  24.550  0.00  0.00     0.239 A 
ATOM     30  N33 XLD d          10.266   9.223  24.580  0.00  0.00    -0.249 NA
ATOM     31  C34 XLD d          11.078   8.938  25.703  0.00  0.00     0.039 A 
ATOM     32  C35 XLD d          10.317   7.800  26.420  0.00  0.00     0.046 A 
ATOM     33  H17 XLD d          11.171   9.820  26.353  0.00  0.00     0.070 H 
ATOM     34  H18 XLD d          12.079   8.606  25.390  0.00  0.00     0.070 H 
ATOM     35  O36 XLD d           9.163   7.590  25.604  0.00  0.00    -0.319 OA
ATOM     36  H19 XLD d          10.027   8.102  27.437  0.00  0.00     0.077 H 
ATOM     37  H20 XLD d          10.932   6.889  26.470  0.00  0.00     0.077 H 
ENDBRANCH  24  29
ENDBRANCH  21  24
ENDBRANCH  17  21
ENDBRANCH  11  14
ENDBRANCH   2  10
BRANCH   1  38
ATOM     38  C9  XLD d           3.113   4.151  19.008  0.00  0.00     0.259 C 
ATOM     39  N7  XLD d           2.878   2.825  19.288  0.00  0.00    -0.307 N 
ATOM     40  C1  XLD d           2.833   2.204  20.503  0.00  0.00     0.130 A 
ATOM     41  H4  XLD d           2.719   2.236  18.495  0.00  0.00     0.170 HD
ATOM     42  N2  XLD d           2.483   2.874  21.648  0.00  0.00    -0.242 NA
ATOM     43  C6  XLD d           3.110   0.817  20.583  0.00  0.00    -0.037 A 
ATOM     44  C3  XLD d           2.417   2.298  22.851  0.00  0.00     0.025 A 
ATOM     45  C4  XLD d           2.712   0.920  23.000  0.00  0.00     0.051 A 
ATOM     46  H1  XLD d           2.137   2.887  23.716  0.00  0.00     0.117 H 
ATOM     47 CL1  XLD d           2.749   0.174  24.595  0.00  0.00    -0.083 Cl
ATOM     48  C5  XLD d           3.047   0.178  21.836  0.00  0.00    -0.057 A 
ATOM     49  H2  XLD d           3.253  -0.883  21.913  0.00  0.00     0.086 H 
ATOM     50  H3  XLD d           3.367   0.255  19.693  0.00  0.00     0.089 H 
ATOM     51  O10 XLD d           3.337   4.977  19.933  0.00  0.00    -0.267 OA
ENDBRANCH   1  38
BRANCH   3  52
ATOM     52  O17 XLD d           4.199   7.271  15.293  0.00  0.00    -0.354 OA
BRANCH  52  53
ATOM     53  C18 XLD d           5.410   7.421  14.559  0.00  0.00     0.010 C 
ATOM     54  H7  XLD d           5.213   7.989  13.638  0.00  0.00     0.066 H 
ATOM     55  H8  XLD d           5.807   6.428  14.300  0.00  0.00     0.066 H 
ATOM     56  H9  XLD d           6.146   7.961  15.172  0.00  0.00     0.066 H 
ENDBRANCH  52  53
ENDBRANCH   3  52
TORSDOF 9
ENDMDL
