REMARK  10 active torsions:
REMARK  status: ('A' for Active; 'I' for Inactive)
REMARK    1  A    between atoms: C3_3  and  O3_4 
REMARK    2  A    between atoms: O3_4  and  C1X_29 
REMARK    3  A    between atoms: C10_11  and  C19_22 
REMARK    4  A    between atoms: C12_13  and  O12_14 
REMARK    5  A    between atoms: C13_15  and  C18_21 
REMARK    6  A    between atoms: C14_16  and  O14_17 
REMARK    7  A    between atoms: C17_20  and  C20_23 
REMARK    8  A    between atoms: C3X_31  and  O3X_32 
REMARK    9  A    between atoms: C4X_33  and  O4X_34 
REMARK   10  A    between atoms: C5X_35  and  C6X_37 
ROOT
ATOM      1  C1  DGX d         -12.860  30.553  29.603  0.00  0.00    -0.055 C 
ATOM      2  C2  DGX d         -14.237  30.828  29.005  0.00  0.00    -0.040 C 
ATOM      3  C3  DGX d         -15.345  30.519  30.003  0.00  0.00     0.042 C 
ATOM      4  C4  DGX d         -15.296  29.044  30.367  0.00  0.00    -0.037 C 
ATOM      5  C5  DGX d         -13.959  28.720  31.024  0.00  0.00    -0.044 C 
ATOM      6  C6  DGX d         -13.913  27.294  31.556  0.00  0.00    -0.060 C 
ATOM      7  C7  DGX d         -13.820  26.281  30.426  0.00  0.00    -0.058 C 
ATOM      8  C8  DGX d         -12.619  26.595  29.533  0.00  0.00    -0.019 C 
ATOM      9  C9  DGX d         -12.613  28.040  29.022  0.00  0.00    -0.038 C 
ATOM     10  C10 DGX d         -12.732  29.117  30.140  0.00  0.00    -0.036 C 
ATOM     11  C11 DGX d         -11.379  28.269  28.166  0.00  0.00    -0.036 C 
ATOM     12  C12 DGX d         -11.390  27.304  26.999  0.00  0.00     0.046 C 
ATOM     13  C13 DGX d         -11.270  25.824  27.461  0.00  0.00     0.021 C 
ATOM     14  C14 DGX d         -12.462  25.510  28.431  0.00  0.00     0.072 C 
ATOM     15  C15 DGX d         -13.657  25.301  27.480  0.00  0.00    -0.035 C 
ATOM     16  C16 DGX d         -13.099  24.823  26.140  0.00  0.00    -0.054 C 
ATOM     17  C17 DGX d         -11.576  25.001  26.170  0.00  0.00    -0.018 C 
ATOM     18  H1  DGX d         -12.099  30.709  28.824  0.00  0.00     0.034 H 
ATOM     19  H2  DGX d         -12.687  31.257  30.430  0.00  0.00     0.034 H 
ATOM     20  H3  DGX d         -14.373  30.199  28.113  0.00  0.00     0.036 H 
ATOM     21  H4  DGX d         -14.298  31.888  28.719  0.00  0.00     0.036 H 
ATOM     22  H5  DGX d         -16.319  30.761  29.554  0.00  0.00     0.083 H 
ATOM     23  H6  DGX d         -15.412  28.439  29.456  0.00  0.00     0.037 H 
ATOM     24  H7  DGX d         -16.113  28.813  31.067  0.00  0.00     0.037 H 
ATOM     25  H8  DGX d         -13.899  29.366  31.912  0.00  0.00     0.041 H 
ATOM     26  H9  DGX d         -14.827  27.099  32.136  0.00  0.00     0.033 H 
ATOM     27  H10 DGX d         -13.034  27.184  32.208  0.00  0.00     0.033 H 
ATOM     28  H11 DGX d         -14.740  26.322  29.825  0.00  0.00     0.033 H 
ATOM     29  H12 DGX d         -13.704  25.273  30.850  0.00  0.00     0.033 H 
ATOM     30  H13 DGX d         -11.728  26.507  30.172  0.00  0.00     0.045 H 
ATOM     31  H14 DGX d         -13.495  28.157  28.375  0.00  0.00     0.042 H 
ATOM     32  H15 DGX d         -10.476  28.102  28.772  0.00  0.00     0.037 H 
ATOM     33  H16 DGX d         -11.381  29.302  27.788  0.00  0.00     0.037 H 
ATOM     34  H17 DGX d         -12.365  27.409  26.501  0.00  0.00     0.084 H 
ATOM     35  H20 DGX d         -14.200  26.248  27.345  0.00  0.00     0.037 H 
ATOM     36  H21 DGX d         -14.339  24.544  27.894  0.00  0.00     0.037 H 
ATOM     37  H22 DGX d         -13.528  25.420  25.322  0.00  0.00     0.034 H 
ATOM     38  H23 DGX d         -13.348  23.762  25.989  0.00  0.00     0.034 H 
ATOM     39  H24 DGX d         -11.325  25.654  25.321  0.00  0.00     0.048 H 
ENDROOT
BRANCH   3  40
ATOM     40  O3  DGX d         -15.166  31.282  31.208  0.00  0.00    -0.356 OA
BRANCH  40  41
ATOM     41  C1X DGX d         -16.271  32.060  31.678  0.00  0.00     0.134 C 
ATOM     42  O5X DGX d         -17.428  31.240  31.613  0.00  0.00    -0.354 OA
ATOM     43  C5X DGX d         -18.640  31.837  32.027  0.00  0.00     0.065 C 
ATOM     44  C4X DGX d         -18.904  33.142  31.257  0.00  0.00     0.085 C 
ATOM     45  H41 DGX d         -18.631  32.044  33.107  0.00  0.00     0.086 H 
ATOM     46  C3X DGX d         -17.685  34.070  31.207  0.00  0.00     0.067 C 
ATOM     47  H39 DGX d         -19.188  32.885  30.226  0.00  0.00     0.090 H 
ATOM     48  C2X DGX d         -16.478  33.260  30.752  0.00  0.00     0.007 C 
ATOM     49  H37 DGX d         -17.875  34.860  30.466  0.00  0.00     0.087 H 
ATOM     50  H35 DGX d         -16.646  32.903  29.725  0.00  0.00     0.044 H 
ATOM     51  H36 DGX d         -15.582  33.897  30.777  0.00  0.00     0.044 H 
ATOM     52  H34 DGX d         -16.092  32.400  32.709  0.00  0.00     0.129 H 
BRANCH  43  53
ATOM     53  C6X DGX d         -19.671  30.779  31.682  0.00  0.00    -0.050 C 
ATOM     54  H42 DGX d         -19.456  29.860  32.247  0.00  0.00     0.031 H 
ATOM     55  H43 DGX d         -19.630  30.565  30.604  0.00  0.00     0.031 H 
ATOM     56  H44 DGX d         -20.674  31.145  31.945  0.00  0.00     0.031 H 
ENDBRANCH  43  53
BRANCH  44  57
ATOM     57  O4X DGX d         -19.987  33.844  31.887  0.00  0.00    -0.390 OA
ATOM     58  H40 DGX d         -19.753  34.043  32.786  0.00  0.00     0.210 HD
ENDBRANCH  44  57
BRANCH  46  59
ATOM     59  O3X DGX d         -17.459  34.703  32.486  0.00  0.00    -0.393 OA
ATOM     60  H38 DGX d         -18.222  35.216  32.723  0.00  0.00     0.210 HD
ENDBRANCH  46  59
ENDBRANCH  40  41
ENDBRANCH   3  40
BRANCH  10  61
ATOM     61  C19 DGX d         -11.434  29.217  30.961  0.00  0.00    -0.068 C 
ATOM     62  H28 DGX d         -11.551  29.985  31.740  0.00  0.00     0.028 H 
ATOM     63  H29 DGX d         -10.601  29.492  30.298  0.00  0.00     0.028 H 
ATOM     64  H30 DGX d         -11.222  28.246  31.432  0.00  0.00     0.028 H 
ENDBRANCH  10  61
BRANCH  14  65
ATOM     65  O14 DGX d         -12.283  24.232  29.097  0.00  0.00    -0.389 OA
ATOM     66  H19 DGX d         -13.019  24.072  29.675  0.00  0.00     0.210 HD
ENDBRANCH  14  65
BRANCH  12  67
ATOM     67  O12 DGX d         -10.385  27.641  26.038  0.00  0.00    -0.395 OA
ATOM     68  H18 DGX d         -10.488  28.549  25.779  0.00  0.00     0.210 HD
ENDBRANCH  12  67
BRANCH  13  69
ATOM     69  C18 DGX d          -9.890  25.586  28.116  0.00  0.00    -0.063 C 
ATOM     70  H25 DGX d          -9.095  25.821  27.393  0.00  0.00     0.028 H 
ATOM     71  H26 DGX d          -9.806  24.533  28.423  0.00  0.00     0.028 H 
ATOM     72  H27 DGX d          -9.786  26.234  28.998  0.00  0.00     0.028 H 
ENDBRANCH  13  69
BRANCH  17  73
ATOM     73  C20 DGX d         -10.752  23.771  25.944  0.00  0.00    -0.045 A 
ATOM     74  C22 DGX d          -9.505  23.688  25.460  0.00  0.00    -0.006 A 
ATOM     75  C23 DGX d          -9.066  22.307  25.521  0.00  0.00     0.283 A 
ATOM     76  H33 DGX d          -8.916  24.523  25.082  0.00  0.00     0.093 H 
ATOM     77  O21 DGX d         -10.026  21.567  26.076  0.00  0.00    -0.314 OA
ATOM     78  O23 DGX d          -7.994  21.800  25.215  0.00  0.00    -0.260 OA
ATOM     79  C21 DGX d         -11.179  22.405  26.318  0.00  0.00     0.050 A 
ATOM     80  H31 DGX d         -12.027  22.082  25.697  0.00  0.00     0.082 H 
ATOM     81  H32 DGX d         -11.467  22.368  27.379  0.00  0.00     0.082 H 
ENDBRANCH  17  73
TORSDOF 10
