MODEL 1
REMARK VINA RESULT:      -8.2      0.000      0.000
REMARK  10 active torsions:
REMARK  status: ('A' for Active; 'I' for Inactive)
REMARK    1  A    between atoms: C3_3  and  O3_4 
REMARK    2  A    between atoms: O3_4  and  C1X_29 
REMARK    3  A    between atoms: C10_11  and  C19_22 
REMARK    4  A    between atoms: C12_13  and  O12_14 
REMARK    5  A    between atoms: C13_15  and  C18_21 
REMARK    6  A    between atoms: C14_16  and  O14_17 
REMARK    7  A    between atoms: C17_20  and  C20_23 
REMARK    8  A    between atoms: C3X_31  and  O3X_32 
REMARK    9  A    between atoms: C4X_33  and  O4X_34 
REMARK   10  A    between atoms: C5X_35  and  C6X_37 
ROOT
ATOM      1  C1  DGX d         -12.566  30.832  29.517  0.00  0.00    -0.055 C 
ATOM      2  C2  DGX d         -13.918  31.177  28.900  0.00  0.00    -0.040 C 
ATOM      3  C3  DGX d         -15.049  30.980  29.900  0.00  0.00     0.042 C 
ATOM      4  C4  DGX d         -15.101  29.519  30.317  0.00  0.00    -0.037 C 
ATOM      5  C5  DGX d         -13.792  29.129  30.994  0.00  0.00    -0.044 C 
ATOM      6  C6  DGX d         -13.845  27.724  31.577  0.00  0.00    -0.060 C 
ATOM      7  C7  DGX d         -13.815  26.667  30.485  0.00  0.00    -0.058 C 
ATOM      8  C8  DGX d         -12.592  26.867  29.589  0.00  0.00    -0.019 C 
ATOM      9  C9  DGX d         -12.486  28.289  29.027  0.00  0.00    -0.038 C 
ATOM     10  C10 DGX d         -12.537  29.411  30.105  0.00  0.00    -0.036 C 
ATOM     11  C11 DGX d         -11.236  28.404  28.172  0.00  0.00    -0.036 C 
ATOM     12  C12 DGX d         -11.306  27.400  27.040  0.00  0.00     0.046 C 
ATOM     13  C13 DGX d         -11.288  25.933  27.555  0.00  0.00     0.021 C 
ATOM     14  C14 DGX d         -12.503  25.735  28.528  0.00  0.00     0.072 C 
ATOM     15  C15 DGX d         -13.705  25.573  27.576  0.00  0.00    -0.035 C 
ATOM     16  C16 DGX d         -13.175  25.010  26.258  0.00  0.00    -0.054 C 
ATOM     17  C17 DGX d         -11.643  25.086  26.292  0.00  0.00    -0.018 C 
ATOM     18  H1  DGX d         -11.792  30.909  28.738  0.00  0.00     0.034 H 
ATOM     19  H2  DGX d         -12.349  31.552  30.319  0.00  0.00     0.034 H 
ATOM     20  H3  DGX d         -14.092  30.527  28.030  0.00  0.00     0.036 H 
ATOM     21  H4  DGX d         -13.906  32.228  28.576  0.00  0.00     0.036 H 
ATOM     22  H5  DGX d         -16.003  31.270  29.436  0.00  0.00     0.083 H 
ATOM     23  H6  DGX d         -15.254  28.890  29.427  0.00  0.00     0.037 H 
ATOM     24  H7  DGX d         -15.935  29.368  31.019  0.00  0.00     0.037 H 
ATOM     25  H8  DGX d         -13.693  29.802  31.859  0.00  0.00     0.041 H 
ATOM     26  H9  DGX d         -14.772  27.612  32.157  0.00  0.00     0.033 H 
ATOM     27  H10 DGX d         -12.978  27.578  32.239  0.00  0.00     0.033 H 
ATOM     28  H11 DGX d         -14.728  26.748  29.876  0.00  0.00     0.033 H 
ATOM     29  H12 DGX d         -13.769  25.669  30.945  0.00  0.00     0.033 H 
ATOM     30  H13 DGX d         -11.712  26.742  30.237  0.00  0.00     0.045 H 
ATOM     31  H14 DGX d         -13.355  28.442  28.370  0.00  0.00     0.042 H 
ATOM     32  H15 DGX d         -10.349  28.198  28.790  0.00  0.00     0.037 H 
ATOM     33  H16 DGX d         -11.166  29.420  27.758  0.00  0.00     0.037 H 
ATOM     34  H17 DGX d         -12.270  27.552  26.532  0.00  0.00     0.084 H 
ATOM     35  H20 DGX d         -14.183  26.548  27.404  0.00  0.00     0.037 H 
ATOM     36  H21 DGX d         -14.439  24.878  28.012  0.00  0.00     0.037 H 
ATOM     37  H22 DGX d         -13.559  25.605  25.417  0.00  0.00     0.034 H 
ATOM     38  H23 DGX d         -13.494  23.964  26.143  0.00  0.00     0.034 H 
ATOM     39  H24 DGX d         -11.345  25.690  25.423  0.00  0.00     0.048 H 
ENDROOT
BRANCH   3  40
ATOM     40  O3  DGX d         -14.825  31.772  31.078  0.00  0.00    -0.356 OA
BRANCH  40  41
ATOM     41  C1X DGX d         -15.856  32.676  31.484  0.00  0.00     0.134 C 
ATOM     42  O5X DGX d         -17.074  32.214  30.920  0.00  0.00    -0.354 OA
ATOM     43  C5X DGX d         -18.224  32.988  31.196  0.00  0.00     0.065 C 
ATOM     44  C4X DGX d         -18.009  34.457  30.795  0.00  0.00     0.085 C 
ATOM     45  H41 DGX d         -18.491  32.934  32.261  0.00  0.00     0.086 H 
ATOM     46  C3X DGX d         -16.680  35.032  31.297  0.00  0.00     0.067 C 
ATOM     47  H39 DGX d         -18.024  34.523  29.697  0.00  0.00     0.090 H 
ATOM     48  C2X DGX d         -15.562  34.068  30.920  0.00  0.00     0.007 C 
ATOM     49  H37 DGX d         -16.498  35.992  30.792  0.00  0.00     0.087 H 
ATOM     50  H35 DGX d         -15.487  34.009  29.824  0.00  0.00     0.044 H 
ATOM     51  H36 DGX d         -14.611  34.434  31.334  0.00  0.00     0.044 H 
ATOM     52  H34 DGX d         -15.926  32.716  32.581  0.00  0.00     0.129 H 
BRANCH  43  53
ATOM     53  C6X DGX d         -19.286  32.334  30.332  0.00  0.00    -0.050 C 
ATOM     54  H42 DGX d         -20.218  32.914  30.396  0.00  0.00     0.031 H 
ATOM     55  H43 DGX d         -19.466  31.309  30.687  0.00  0.00     0.031 H 
ATOM     56  H44 DGX d         -18.942  32.305  29.288  0.00  0.00     0.031 H 
ENDBRANCH  43  53
BRANCH  44  57
ATOM     57  O4X DGX d         -19.081  35.249  31.332  0.00  0.00    -0.390 OA
ATOM     58  H40 DGX d         -19.912  34.888  31.046  0.00  0.00     0.210 HD
ENDBRANCH  44  57
BRANCH  46  59
ATOM     59  O3X DGX d         -16.723  35.278  32.720  0.00  0.00    -0.393 OA
ATOM     60  H38 DGX d         -17.415  35.899  32.912  0.00  0.00     0.210 HD
ENDBRANCH  46  59
ENDBRANCH  40  41
ENDBRANCH   3  40
BRANCH  10  61
ATOM     61  C19 DGX d         -11.239  29.453  30.931  0.00  0.00    -0.068 C 
ATOM     62  H28 DGX d         -10.437  29.909  30.331  0.00  0.00     0.028 H 
ATOM     63  H29 DGX d         -10.950  28.430  31.212  0.00  0.00     0.028 H 
ATOM     64  H30 DGX d         -11.402  30.050  31.840  0.00  0.00     0.028 H 
ENDBRANCH  10  61
BRANCH  14  65
ATOM     65  O14 DGX d         -12.414  24.473  29.240  0.00  0.00    -0.389 OA
ATOM     66  H19 DGX d         -12.729  24.589  30.128  0.00  0.00     0.210 HD
ENDBRANCH  14  65
BRANCH  12  67
ATOM     67  O12 DGX d         -10.276  27.634  26.075  0.00  0.00    -0.395 OA
ATOM     68  H18 DGX d          -9.705  28.326  26.385  0.00  0.00     0.210 HD
ENDBRANCH  12  67
BRANCH  13  69
ATOM     69  C18 DGX d          -9.930  25.627  28.228  0.00  0.00    -0.063 C 
ATOM     70  H25 DGX d          -9.561  24.650  27.882  0.00  0.00     0.028 H 
ATOM     71  H26 DGX d         -10.059  25.603  29.320  0.00  0.00     0.028 H 
ATOM     72  H27 DGX d          -9.204  26.408  27.961  0.00  0.00     0.028 H 
ENDBRANCH  13  69
BRANCH  17  73
ATOM     73  C20 DGX d         -10.903  23.796  26.116  0.00  0.00    -0.045 A 
ATOM     74  C22 DGX d          -9.771  23.579  25.433  0.00  0.00    -0.006 A 
ATOM     75  C23 DGX d          -9.358  22.203  25.629  0.00  0.00     0.283 A 
ATOM     76  H33 DGX d          -9.245  24.317  24.828  0.00  0.00     0.093 H 
ATOM     77  O21 DGX d         -10.213  21.604  26.458  0.00  0.00    -0.314 OA
ATOM     78  O23 DGX d          -8.374  21.602  25.216  0.00  0.00    -0.260 OA
ATOM     79  C21 DGX d         -11.282  22.525  26.771  0.00  0.00     0.050 A 
ATOM     80  H31 DGX d         -12.238  22.156  26.373  0.00  0.00     0.082 H 
ATOM     81  H32 DGX d         -11.367  22.663  27.859  0.00  0.00     0.082 H 
ENDBRANCH  17  73
TORSDOF 10
ENDMDL
MODEL 2
REMARK VINA RESULT:      -6.3      1.958     10.485
REMARK  10 active torsions:
REMARK  status: ('A' for Active; 'I' for Inactive)
REMARK    1  A    between atoms: C3_3  and  O3_4 
REMARK    2  A    between atoms: O3_4  and  C1X_29 
REMARK    3  A    between atoms: C10_11  and  C19_22 
REMARK    4  A    between atoms: C12_13  and  O12_14 
REMARK    5  A    between atoms: C13_15  and  C18_21 
REMARK    6  A    between atoms: C14_16  and  O14_17 
REMARK    7  A    between atoms: C17_20  and  C20_23 
REMARK    8  A    between atoms: C3X_31  and  O3X_32 
REMARK    9  A    between atoms: C4X_33  and  O4X_34 
REMARK   10  A    between atoms: C5X_35  and  C6X_37 
ROOT
ATOM      1  C1  DGX d         -15.288  25.089  30.540  0.00  0.00    -0.055 C 
ATOM      2  C2  DGX d         -15.231  25.045  29.015  0.00  0.00    -0.040 C 
ATOM      3  C3  DGX d         -13.817  25.296  28.508  0.00  0.00     0.042 C 
ATOM      4  C4  DGX d         -13.367  26.682  28.938  0.00  0.00    -0.037 C 
ATOM      5  C5  DGX d         -13.349  26.769  30.460  0.00  0.00    -0.044 C 
ATOM      6  C6  DGX d         -12.753  28.081  30.952  0.00  0.00    -0.060 C 
ATOM      7  C7  DGX d         -13.697  29.247  30.707  0.00  0.00    -0.058 C 
ATOM      8  C8  DGX d         -15.060  28.967  31.342  0.00  0.00    -0.019 C 
ATOM      9  C9  DGX d         -15.662  27.628  30.902  0.00  0.00    -0.038 C 
ATOM     10  C10 DGX d         -14.724  26.402  31.109  0.00  0.00    -0.036 C 
ATOM     11  C11 DGX d         -16.998  27.421  31.595  0.00  0.00    -0.036 C 
ATOM     12  C12 DGX d         -17.933  28.557  31.234  0.00  0.00     0.046 C 
ATOM     13  C13 DGX d         -17.427  29.926  31.770  0.00  0.00     0.021 C 
ATOM     14  C14 DGX d         -16.000  30.193  31.176  0.00  0.00     0.072 C 
ATOM     15  C15 DGX d         -16.289  30.664  29.737  0.00  0.00    -0.035 C 
ATOM     16  C16 DGX d         -17.681  31.294  29.732  0.00  0.00    -0.054 C 
ATOM     17  C17 DGX d         -18.354  30.969  31.071  0.00  0.00    -0.018 C 
ATOM     18  H1  DGX d         -16.337  24.988  30.857  0.00  0.00     0.034 H 
ATOM     19  H2  DGX d         -14.702  24.249  30.940  0.00  0.00     0.034 H 
ATOM     20  H3  DGX d         -15.899  25.819  28.609  0.00  0.00     0.036 H 
ATOM     21  H4  DGX d         -15.565  24.055  28.673  0.00  0.00     0.036 H 
ATOM     22  H5  DGX d         -13.805  25.222  27.411  0.00  0.00     0.083 H 
ATOM     23  H6  DGX d         -14.064  27.433  28.537  0.00  0.00     0.037 H 
ATOM     24  H7  DGX d         -12.356  26.876  28.549  0.00  0.00     0.037 H 
ATOM     25  H8  DGX d         -12.652  25.987  30.795  0.00  0.00     0.041 H 
ATOM     26  H9  DGX d         -11.809  28.267  30.420  0.00  0.00     0.033 H 
ATOM     27  H10 DGX d         -12.556  28.001  32.032  0.00  0.00     0.033 H 
ATOM     28  H11 DGX d         -13.823  29.390  29.624  0.00  0.00     0.033 H 
ATOM     29  H12 DGX d         -13.271  30.159  31.150  0.00  0.00     0.033 H 
ATOM     30  H13 DGX d         -14.882  28.866  32.422  0.00  0.00     0.045 H 
ATOM     31  H14 DGX d         -15.854  27.700  29.821  0.00  0.00     0.042 H 
ATOM     32  H15 DGX d         -16.847  27.403  32.685  0.00  0.00     0.037 H 
ATOM     33  H16 DGX d         -17.437  26.467  31.269  0.00  0.00     0.037 H 
ATOM     34  H17 DGX d         -17.950  28.626  30.136  0.00  0.00     0.084 H 
ATOM     35  H20 DGX d         -16.261  29.807  29.049  0.00  0.00     0.037 H 
ATOM     36  H21 DGX d         -15.540  31.407  29.427  0.00  0.00     0.037 H 
ATOM     37  H22 DGX d         -18.276  30.879  28.905  0.00  0.00     0.034 H 
ATOM     38  H23 DGX d         -17.597  32.385  29.611  0.00  0.00     0.034 H 
ATOM     39  H24 DGX d         -19.287  30.439  30.827  0.00  0.00     0.048 H 
ENDROOT
BRANCH   3  40
ATOM     40  O3  DGX d         -12.903  24.337  29.066  0.00  0.00    -0.356 OA
BRANCH  40  41
ATOM     41  C1X DGX d         -11.833  23.872  28.239  0.00  0.00     0.134 C 
ATOM     42  O5X DGX d         -10.836  24.882  28.224  0.00  0.00    -0.354 OA
ATOM     43  C5X DGX d          -9.689  24.616  27.443  0.00  0.00     0.065 C 
ATOM     44  C4X DGX d         -10.076  24.269  25.995  0.00  0.00     0.085 C 
ATOM     45  H41 DGX d          -9.099  23.793  27.872  0.00  0.00     0.086 H 
ATOM     46  C3X DGX d         -11.202  23.233  25.903  0.00  0.00     0.067 C 
ATOM     47  H39 DGX d         -10.408  25.190  25.495  0.00  0.00     0.090 H 
ATOM     48  C2X DGX d         -12.343  23.676  26.810  0.00  0.00     0.007 C 
ATOM     49  H37 DGX d         -11.570  23.205  24.867  0.00  0.00     0.087 H 
ATOM     50  H35 DGX d         -12.755  24.626  26.437  0.00  0.00     0.044 H 
ATOM     51  H36 DGX d         -13.130  22.908  26.807  0.00  0.00     0.044 H 
ATOM     52  H34 DGX d         -11.425  22.928  28.631  0.00  0.00     0.129 H 
BRANCH  43  53
ATOM     53  C6X DGX d          -8.926  25.926  27.507  0.00  0.00    -0.050 C 
ATOM     54  H42 DGX d          -8.743  26.191  28.559  0.00  0.00     0.031 H 
ATOM     55  H43 DGX d          -9.518  26.718  27.027  0.00  0.00     0.031 H 
ATOM     56  H44 DGX d          -7.966  25.817  26.983  0.00  0.00     0.031 H 
ENDBRANCH  43  53
BRANCH  44  57
ATOM     57  O4X DGX d          -8.921  23.750  25.316  0.00  0.00    -0.390 OA
ATOM     58  H40 DGX d          -8.165  23.810  25.888  0.00  0.00     0.210 HD
ENDBRANCH  44  57
BRANCH  46  59
ATOM     59  O3X DGX d         -10.725  21.912  26.244  0.00  0.00    -0.393 OA
ATOM     60  H38 DGX d          -9.988  21.690  25.687  0.00  0.00     0.210 HD
ENDBRANCH  46  59
ENDBRANCH  40  41
ENDBRANCH   3  40
BRANCH  10  61
ATOM     61  C19 DGX d         -14.585  26.050  32.601  0.00  0.00    -0.068 C 
ATOM     62  H28 DGX d         -14.051  25.094  32.703  0.00  0.00     0.028 H 
ATOM     63  H29 DGX d         -15.585  25.960  33.050  0.00  0.00     0.028 H 
ATOM     64  H30 DGX d         -14.022  26.842  33.114  0.00  0.00     0.028 H 
ENDBRANCH  10  61
BRANCH  14  65
ATOM     65  O14 DGX d         -15.360  31.326  31.821  0.00  0.00    -0.389 OA
ATOM     66  H19 DGX d         -14.418  31.208  31.803  0.00  0.00     0.210 HD
ENDBRANCH  14  65
BRANCH  12  67
ATOM     67  O12 DGX d         -19.271  28.283  31.661  0.00  0.00    -0.395 OA
ATOM     68  H18 DGX d         -19.851  28.961  31.336  0.00  0.00     0.210 HD
ENDBRANCH  12  67
BRANCH  13  69
ATOM     69  C18 DGX d         -17.439  29.924  33.316  0.00  0.00    -0.063 C 
ATOM     70  H25 DGX d         -16.405  29.913  33.691  0.00  0.00     0.028 H 
ATOM     71  H26 DGX d         -17.968  29.030  33.678  0.00  0.00     0.028 H 
ATOM     72  H27 DGX d         -17.951  30.826  33.680  0.00  0.00     0.028 H 
ENDBRANCH  13  69
BRANCH  17  73
ATOM     73  C20 DGX d         -18.800  32.136  31.898  0.00  0.00    -0.045 A 
ATOM     74  C22 DGX d         -18.099  33.228  32.234  0.00  0.00    -0.006 A 
ATOM     75  C23 DGX d         -18.967  34.144  32.948  0.00  0.00     0.283 A 
ATOM     76  H33 DGX d         -17.048  33.400  32.007  0.00  0.00     0.093 H 
ATOM     77  O21 DGX d         -20.195  33.627  33.008  0.00  0.00    -0.314 OA
ATOM     78  O23 DGX d         -18.744  35.260  33.401  0.00  0.00    -0.260 OA
ATOM     79  C21 DGX d         -20.173  32.305  32.423  0.00  0.00     0.050 A 
ATOM     80  H31 DGX d         -20.392  31.543  33.185  0.00  0.00     0.082 H 
ATOM     81  H32 DGX d         -20.909  32.231  31.609  0.00  0.00     0.082 H 
ENDBRANCH  17  73
TORSDOF 10
ENDMDL
MODEL 3
REMARK VINA RESULT:      -6.3      1.666      3.291
REMARK  10 active torsions:
REMARK  status: ('A' for Active; 'I' for Inactive)
REMARK    1  A    between atoms: C3_3  and  O3_4 
REMARK    2  A    between atoms: O3_4  and  C1X_29 
REMARK    3  A    between atoms: C10_11  and  C19_22 
REMARK    4  A    between atoms: C12_13  and  O12_14 
REMARK    5  A    between atoms: C13_15  and  C18_21 
REMARK    6  A    between atoms: C14_16  and  O14_17 
REMARK    7  A    between atoms: C17_20  and  C20_23 
REMARK    8  A    between atoms: C3X_31  and  O3X_32 
REMARK    9  A    between atoms: C4X_33  and  O4X_34 
REMARK   10  A    between atoms: C5X_35  and  C6X_37 
ROOT
ATOM      1  C1  DGX d         -13.434  30.952  30.765  0.00  0.00    -0.055 C 
ATOM      2  C2  DGX d         -12.329  31.382  31.726  0.00  0.00    -0.040 C 
ATOM      3  C3  DGX d         -11.609  32.625  31.219  0.00  0.00     0.042 C 
ATOM      4  C4  DGX d         -10.952  32.315  29.884  0.00  0.00    -0.037 C 
ATOM      5  C5  DGX d         -12.017  31.933  28.863  0.00  0.00    -0.044 C 
ATOM      6  C6  DGX d         -11.437  31.767  27.464  0.00  0.00    -0.060 C 
ATOM      7  C7  DGX d         -10.604  30.501  27.354  0.00  0.00    -0.058 C 
ATOM      8  C8  DGX d         -11.432  29.286  27.774  0.00  0.00    -0.019 C 
ATOM      9  C9  DGX d         -12.069  29.444  29.159  0.00  0.00    -0.038 C 
ATOM     10  C10 DGX d         -12.913  30.741  29.332  0.00  0.00    -0.036 C 
ATOM     11  C11 DGX d         -12.887  28.206  29.484  0.00  0.00    -0.036 C 
ATOM     12  C12 DGX d         -11.988  26.988  29.462  0.00  0.00     0.046 C 
ATOM     13  C13 DGX d         -11.414  26.710  28.043  0.00  0.00     0.021 C 
ATOM     14  C14 DGX d         -10.617  27.977  27.574  0.00  0.00     0.072 C 
ATOM     15  C15 DGX d          -9.279  27.863  28.331  0.00  0.00    -0.035 C 
ATOM     16  C16 DGX d          -9.035  26.381  28.611  0.00  0.00    -0.054 C 
ATOM     17  C17 DGX d         -10.325  25.618  28.286  0.00  0.00    -0.018 C 
ATOM     18  H1  DGX d         -13.869  30.008  31.126  0.00  0.00     0.034 H 
ATOM     19  H2  DGX d         -14.211  31.730  30.748  0.00  0.00     0.034 H 
ATOM     20  H3  DGX d         -11.602  30.563  31.826  0.00  0.00     0.036 H 
ATOM     21  H4  DGX d         -12.773  31.601  32.707  0.00  0.00     0.036 H 
ATOM     22  H5  DGX d         -10.845  32.928  31.950  0.00  0.00     0.083 H 
ATOM     23  H6  DGX d         -10.248  31.480  30.008  0.00  0.00     0.037 H 
ATOM     24  H7  DGX d         -10.408  33.204  29.529  0.00  0.00     0.037 H 
ATOM     25  H8  DGX d         -12.693  32.798  28.799  0.00  0.00     0.041 H 
ATOM     26  H9  DGX d         -10.800  32.635  27.237  0.00  0.00     0.033 H 
ATOM     27  H10 DGX d         -12.262  31.717  26.739  0.00  0.00     0.033 H 
ATOM     28  H11 DGX d          -9.725  30.586  28.009  0.00  0.00     0.033 H 
ATOM     29  H12 DGX d         -10.274  30.373  26.312  0.00  0.00     0.033 H 
ATOM     30  H13 DGX d         -12.274  29.227  27.069  0.00  0.00     0.045 H 
ATOM     31  H14 DGX d         -11.247  29.503  29.888  0.00  0.00     0.042 H 
ATOM     32  H15 DGX d         -13.686  28.087  28.737  0.00  0.00     0.037 H 
ATOM     33  H16 DGX d         -13.334  28.314  30.484  0.00  0.00     0.037 H 
ATOM     34  H17 DGX d         -11.133  27.204  30.119  0.00  0.00     0.084 H 
ATOM     35  H20 DGX d          -9.334  28.421  29.277  0.00  0.00     0.037 H 
ATOM     36  H21 DGX d          -8.463  28.268  27.714  0.00  0.00     0.037 H 
ATOM     37  H22 DGX d          -8.774  26.239  29.670  0.00  0.00     0.034 H 
ATOM     38  H23 DGX d          -8.213  26.012  27.979  0.00  0.00     0.034 H 
ATOM     39  H24 DGX d         -10.614  25.094  29.209  0.00  0.00     0.048 H 
ENDROOT
BRANCH   3  40
ATOM     40  O3  DGX d         -12.540  33.701  31.020  0.00  0.00    -0.356 OA
BRANCH  40  41
ATOM     41  C1X DGX d         -13.909  33.476  31.369  0.00  0.00     0.134 C 
ATOM     42  O5X DGX d         -14.704  33.901  30.272  0.00  0.00    -0.354 OA
ATOM     43  C5X DGX d         -16.102  33.771  30.428  0.00  0.00     0.065 C 
ATOM     44  C4X DGX d         -16.584  34.481  31.704  0.00  0.00     0.085 C 
ATOM     45  H41 DGX d         -16.400  32.713  30.462  0.00  0.00     0.086 H 
ATOM     46  C3X DGX d         -15.740  34.142  32.938  0.00  0.00     0.067 C 
ATOM     47  H39 DGX d         -16.535  35.566  31.537  0.00  0.00     0.090 H 
ATOM     48  C2X DGX d         -14.270  34.329  32.586  0.00  0.00     0.007 C 
ATOM     49  H37 DGX d         -15.999  34.844  33.744  0.00  0.00     0.087 H 
ATOM     50  H35 DGX d         -14.084  35.389  32.356  0.00  0.00     0.044 H 
ATOM     51  H36 DGX d         -13.650  34.024  33.441  0.00  0.00     0.044 H 
ATOM     52  H34 DGX d         -14.081  32.411  31.585  0.00  0.00     0.129 H 
BRANCH  43  53
ATOM     53  C6X DGX d         -16.644  34.451  29.185  0.00  0.00    -0.050 C 
ATOM     54  H42 DGX d         -17.240  33.732  28.603  0.00  0.00     0.031 H 
ATOM     55  H43 DGX d         -15.806  34.814  28.571  0.00  0.00     0.031 H 
ATOM     56  H44 DGX d         -17.278  35.300  29.478  0.00  0.00     0.031 H 
ENDBRANCH  43  53
BRANCH  44  57
ATOM     57  O4X DGX d         -17.945  34.101  31.963  0.00  0.00    -0.390 OA
ATOM     58  H40 DGX d         -18.512  34.853  31.836  0.00  0.00     0.210 HD
ENDBRANCH  44  57
BRANCH  46  59
ATOM     59  O3X DGX d         -16.017  32.803  33.407  0.00  0.00    -0.393 OA
ATOM     60  H38 DGX d         -16.921  32.583  33.218  0.00  0.00     0.210 HD
ENDBRANCH  46  59
ENDBRANCH  40  41
ENDBRANCH   3  40
BRANCH  10  61
ATOM     61  C19 DGX d         -14.232  30.660  28.542  0.00  0.00    -0.068 C 
ATOM     62  H28 DGX d         -14.584  31.676  28.312  0.00  0.00     0.028 H 
ATOM     63  H29 DGX d         -14.989  30.137  29.145  0.00  0.00     0.028 H 
ATOM     64  H30 DGX d         -14.065  30.108  27.605  0.00  0.00     0.028 H 
ENDBRANCH  10  61
BRANCH  14  65
ATOM     65  O14 DGX d         -10.263  27.892  26.168  0.00  0.00    -0.389 OA
ATOM     66  H19 DGX d         -10.440  27.015  25.851  0.00  0.00     0.210 HD
ENDBRANCH  14  65
BRANCH  12  67
ATOM     67  O12 DGX d         -12.655  25.841  29.997  0.00  0.00    -0.395 OA
ATOM     68  H18 DGX d         -12.545  25.107  29.404  0.00  0.00     0.210 HD
ENDBRANCH  12  67
BRANCH  13  69
ATOM     69  C18 DGX d         -12.559  26.334  27.075  0.00  0.00    -0.063 C 
ATOM     70  H25 DGX d         -13.504  26.763  27.440  0.00  0.00     0.028 H 
ATOM     71  H26 DGX d         -12.651  25.239  27.023  0.00  0.00     0.028 H 
ATOM     72  H27 DGX d         -12.339  26.731  26.074  0.00  0.00     0.028 H 
ENDBRANCH  13  69
BRANCH  17  73
ATOM     73  C20 DGX d         -10.221  24.530  27.262  0.00  0.00    -0.045 A 
ATOM     74  C22 DGX d         -10.675  23.272  27.343  0.00  0.00    -0.006 A 
ATOM     75  C23 DGX d         -10.451  22.607  26.073  0.00  0.00     0.283 A 
ATOM     76  H33 DGX d         -11.138  22.821  28.220  0.00  0.00     0.093 H 
ATOM     77  O21 DGX d          -9.903  23.470  25.218  0.00  0.00    -0.314 OA
ATOM     78  O23 DGX d         -10.741  21.475  25.708  0.00  0.00    -0.260 OA
ATOM     79  C21 DGX d          -9.650  24.714  25.910  0.00  0.00     0.050 A 
ATOM     80  H31 DGX d          -8.569  24.908  25.970  0.00  0.00     0.082 H 
ATOM     81  H32 DGX d         -10.144  25.550  25.393  0.00  0.00     0.082 H 
ENDBRANCH  17  73
TORSDOF 10
ENDMDL
MODEL 4
REMARK VINA RESULT:      -6.2      1.534      3.021
REMARK  10 active torsions:
REMARK  status: ('A' for Active; 'I' for Inactive)
REMARK    1  A    between atoms: C3_3  and  O3_4 
REMARK    2  A    between atoms: O3_4  and  C1X_29 
REMARK    3  A    between atoms: C10_11  and  C19_22 
REMARK    4  A    between atoms: C12_13  and  O12_14 
REMARK    5  A    between atoms: C13_15  and  C18_21 
REMARK    6  A    between atoms: C14_16  and  O14_17 
REMARK    7  A    between atoms: C17_20  and  C20_23 
REMARK    8  A    between atoms: C3X_31  and  O3X_32 
REMARK    9  A    between atoms: C4X_33  and  O4X_34 
REMARK   10  A    between atoms: C5X_35  and  C6X_37 
ROOT
ATOM      1  C1  DGX d         -15.597  30.408  30.851  0.00  0.00    -0.055 C 
ATOM      2  C2  DGX d         -14.825  30.586  32.155  0.00  0.00    -0.040 C 
ATOM      3  C3  DGX d         -13.948  31.830  32.113  0.00  0.00     0.042 C 
ATOM      4  C4  DGX d         -12.925  31.686  30.997  0.00  0.00    -0.037 C 
ATOM      5  C5  DGX d         -13.640  31.562  29.656  0.00  0.00    -0.044 C 
ATOM      6  C6  DGX d         -12.667  31.576  28.485  0.00  0.00    -0.060 C 
ATOM      7  C7  DGX d         -11.878  30.279  28.401  0.00  0.00    -0.058 C 
ATOM      8  C8  DGX d         -12.831  29.084  28.336  0.00  0.00    -0.019 C 
ATOM      9  C9  DGX d         -13.854  29.071  29.477  0.00  0.00    -0.038 C 
ATOM     10  C10 DGX d         -14.672  30.388  29.622  0.00  0.00    -0.036 C 
ATOM     11  C11 DGX d         -14.770  27.868  29.321  0.00  0.00    -0.036 C 
ATOM     12  C12 DGX d         -13.943  26.600  29.348  0.00  0.00     0.046 C 
ATOM     13  C13 DGX d         -12.974  26.506  28.136  0.00  0.00     0.021 C 
ATOM     14  C14 DGX d         -12.034  27.762  28.155  0.00  0.00     0.072 C 
ATOM     15  C15 DGX d         -10.994  27.419  29.240  0.00  0.00    -0.035 C 
ATOM     16  C16 DGX d         -10.891  25.896  29.311  0.00  0.00    -0.054 C 
ATOM     17  C17 DGX d         -12.043  25.304  28.490  0.00  0.00    -0.018 C 
ATOM     18  H1  DGX d         -16.150  29.458  30.894  0.00  0.00     0.034 H 
ATOM     19  H2  DGX d         -16.308  31.240  30.745  0.00  0.00     0.034 H 
ATOM     20  H3  DGX d         -14.188  29.704  32.318  0.00  0.00     0.036 H 
ATOM     21  H4  DGX d         -15.540  30.680  32.985  0.00  0.00     0.036 H 
ATOM     22  H5  DGX d         -13.434  31.948  33.078  0.00  0.00     0.083 H 
ATOM     23  H6  DGX d         -12.317  30.786  31.173  0.00  0.00     0.037 H 
ATOM     24  H7  DGX d         -12.273  32.572  30.983  0.00  0.00     0.037 H 
ATOM     25  H8  DGX d         -14.238  32.478  29.551  0.00  0.00     0.041 H 
ATOM     26  H9  DGX d         -11.965  32.413  28.613  0.00  0.00     0.033 H 
ATOM     27  H10 DGX d         -13.233  31.711  27.552  0.00  0.00     0.033 H 
ATOM     28  H11 DGX d         -11.238  30.185  29.291  0.00  0.00     0.033 H 
ATOM     29  H12 DGX d         -11.251  30.293  27.498  0.00  0.00     0.033 H 
ATOM     30  H13 DGX d         -13.420  29.210  27.416  0.00  0.00     0.045 H 
ATOM     31  H14 DGX d         -13.292  28.943  30.413  0.00  0.00     0.042 H 
ATOM     32  H15 DGX d         -15.306  27.937  28.363  0.00  0.00     0.037 H 
ATOM     33  H16 DGX d         -15.496  27.851  30.147  0.00  0.00     0.037 H 
ATOM     34  H17 DGX d         -13.323  26.636  30.255  0.00  0.00     0.084 H 
ATOM     35  H20 DGX d         -11.317  27.820  30.211  0.00  0.00     0.037 H 
ATOM     36  H21 DGX d         -10.017  27.848  28.973  0.00  0.00     0.037 H 
ATOM     37  H22 DGX d         -10.970  25.564  30.357  0.00  0.00     0.034 H 
ATOM     38  H23 DGX d          -9.928  25.566  28.894  0.00  0.00     0.034 H 
ATOM     39  H24 DGX d         -12.615  24.663  29.178  0.00  0.00     0.048 H 
ENDROOT
BRANCH   3  40
ATOM     40  O3  DGX d         -14.741  32.998  31.843  0.00  0.00    -0.356 OA
BRANCH  40  41
ATOM     41  C1X DGX d         -16.164  32.853  31.833  0.00  0.00     0.134 C 
ATOM     42  O5X DGX d         -16.643  33.426  30.626  0.00  0.00    -0.354 OA
ATOM     43  C5X DGX d         -18.043  33.394  30.432  0.00  0.00     0.065 C 
ATOM     44  C4X DGX d         -18.780  34.034  31.621  0.00  0.00     0.085 C 
ATOM     45  H41 DGX d         -18.399  32.363  30.292  0.00  0.00     0.086 H 
ATOM     46  C3X DGX d         -18.282  33.532  32.981  0.00  0.00     0.067 C 
ATOM     47  H39 DGX d         -18.630  35.123  31.576  0.00  0.00     0.090 H 
ATOM     48  C2X DGX d         -16.762  33.631  33.007  0.00  0.00     0.007 C 
ATOM     49  H37 DGX d         -18.688  34.185  33.767  0.00  0.00     0.087 H 
ATOM     50  H35 DGX d         -16.465  34.688  32.932  0.00  0.00     0.044 H 
ATOM     51  H36 DGX d         -16.386  33.210  33.951  0.00  0.00     0.044 H 
ATOM     52  H34 DGX d         -16.444  31.791  31.898  0.00  0.00     0.129 H 
BRANCH  43  53
ATOM     53  C6X DGX d         -18.226  34.213  29.168  0.00  0.00    -0.050 C 
ATOM     54  H42 DGX d         -18.897  35.059  29.375  0.00  0.00     0.031 H 
ATOM     55  H43 DGX d         -18.664  33.580  28.382  0.00  0.00     0.031 H 
ATOM     56  H44 DGX d         -17.250  34.592  28.832  0.00  0.00     0.031 H 
ENDBRANCH  43  53
BRANCH  44  57
ATOM     57  O4X DGX d         -20.182  33.743  31.512  0.00  0.00    -0.390 OA
ATOM     58  H40 DGX d         -20.597  34.395  30.961  0.00  0.00     0.210 HD
ENDBRANCH  44  57
BRANCH  46  59
ATOM     59  O3X DGX d         -18.739  32.186  33.239  0.00  0.00    -0.393 OA
ATOM     60  H38 DGX d         -19.176  31.848  32.466  0.00  0.00     0.210 HD
ENDBRANCH  46  59
ENDBRANCH  40  41
ENDBRANCH   3  40
BRANCH  10  61
ATOM     61  C19 DGX d         -15.689  30.544  28.477  0.00  0.00    -0.068 C 
ATOM     62  H28 DGX d         -15.167  30.476  27.511  0.00  0.00     0.028 H 
ATOM     63  H29 DGX d         -16.185  31.522  28.557  0.00  0.00     0.028 H 
ATOM     64  H30 DGX d         -16.442  29.745  28.544  0.00  0.00     0.028 H 
ENDBRANCH  10  61
BRANCH  14  65
ATOM     65  O14 DGX d         -11.272  27.875  26.924  0.00  0.00    -0.389 OA
ATOM     66  H19 DGX d         -11.867  27.986  26.194  0.00  0.00     0.210 HD
ENDBRANCH  14  65
BRANCH  12  67
ATOM     67  O12 DGX d         -14.776  25.441  29.449  0.00  0.00    -0.395 OA
ATOM     68  H18 DGX d         -14.238  24.660  29.388  0.00  0.00     0.210 HD
ENDBRANCH  12  67
BRANCH  13  69
ATOM     69  C18 DGX d         -13.781  26.386  26.822  0.00  0.00    -0.063 C 
ATOM     70  H25 DGX d         -14.236  25.387  26.761  0.00  0.00     0.028 H 
ATOM     71  H26 DGX d         -13.109  26.536  25.964  0.00  0.00     0.028 H 
ATOM     72  H27 DGX d         -14.571  27.150  26.807  0.00  0.00     0.028 H 
ENDBRANCH  13  69
BRANCH  17  73
ATOM     73  C20 DGX d         -11.666  24.390  27.365  0.00  0.00    -0.045 A 
ATOM     74  C22 DGX d         -10.450  24.179  26.843  0.00  0.00    -0.006 A 
ATOM     75  C23 DGX d         -10.539  23.128  25.848  0.00  0.00     0.283 A 
ATOM     76  H33 DGX d          -9.540  24.711  27.122  0.00  0.00     0.093 H 
ATOM     77  O21 DGX d         -11.793  22.678  25.798  0.00  0.00    -0.314 OA
ATOM     78  O23 DGX d          -9.668  22.608  25.162  0.00  0.00    -0.260 OA
ATOM     79  C21 DGX d         -12.609  23.475  26.686  0.00  0.00     0.050 A 
ATOM     80  H31 DGX d         -13.356  24.045  26.115  0.00  0.00     0.082 H 
ATOM     81  H32 DGX d         -13.120  22.834  27.419  0.00  0.00     0.082 H 
ENDBRANCH  17  73
TORSDOF 10
ENDMDL
MODEL 5
REMARK VINA RESULT:      -6.0      1.455      2.285
REMARK  10 active torsions:
REMARK  status: ('A' for Active; 'I' for Inactive)
REMARK    1  A    between atoms: C3_3  and  O3_4 
REMARK    2  A    between atoms: O3_4  and  C1X_29 
REMARK    3  A    between atoms: C10_11  and  C19_22 
REMARK    4  A    between atoms: C12_13  and  O12_14 
REMARK    5  A    between atoms: C13_15  and  C18_21 
REMARK    6  A    between atoms: C14_16  and  O14_17 
REMARK    7  A    between atoms: C17_20  and  C20_23 
REMARK    8  A    between atoms: C3X_31  and  O3X_32 
REMARK    9  A    between atoms: C4X_33  and  O4X_34 
REMARK   10  A    between atoms: C5X_35  and  C6X_37 
ROOT
ATOM      1  C1  DGX d         -13.297  30.155  29.855  0.00  0.00    -0.055 C 
ATOM      2  C2  DGX d         -14.318  30.731  28.878  0.00  0.00    -0.040 C 
ATOM      3  C3  DGX d         -15.743  30.478  29.354  0.00  0.00     0.042 C 
ATOM      4  C4  DGX d         -15.987  28.980  29.434  0.00  0.00    -0.037 C 
ATOM      5  C5  DGX d         -15.030  28.355  30.442  0.00  0.00    -0.044 C 
ATOM      6  C6  DGX d         -15.334  26.883  30.685  0.00  0.00    -0.060 C 
ATOM      7  C7  DGX d         -14.937  26.029  29.491  0.00  0.00    -0.058 C 
ATOM      8  C8  DGX d         -13.465  26.257  29.145  0.00  0.00    -0.019 C 
ATOM      9  C9  DGX d         -13.119  27.736  28.944  0.00  0.00    -0.038 C 
ATOM     10  C10 DGX d         -13.528  28.659  30.129  0.00  0.00    -0.036 C 
ATOM     11  C11 DGX d         -11.639  27.871  28.627  0.00  0.00    -0.036 C 
ATOM     12  C12 DGX d         -11.319  27.086  27.372  0.00  0.00     0.046 C 
ATOM     13  C13 DGX d         -11.535  25.558  27.566  0.00  0.00     0.021 C 
ATOM     14  C14 DGX d         -13.027  25.318  27.986  0.00  0.00     0.072 C 
ATOM     15  C15 DGX d         -13.800  25.438  26.658  0.00  0.00    -0.035 C 
ATOM     16  C16 DGX d         -12.840  25.058  25.532  0.00  0.00    -0.054 C 
ATOM     17  C17 DGX d         -11.426  24.977  26.121  0.00  0.00    -0.018 C 
ATOM     18  H1  DGX d         -12.290  30.286  29.432  0.00  0.00     0.034 H 
ATOM     19  H2  DGX d         -13.369  30.704  30.806  0.00  0.00     0.034 H 
ATOM     20  H3  DGX d         -14.180  30.258  27.895  0.00  0.00     0.036 H 
ATOM     21  H4  DGX d         -14.157  31.815  28.789  0.00  0.00     0.036 H 
ATOM     22  H5  DGX d         -16.450  30.935  28.647  0.00  0.00     0.083 H 
ATOM     23  H6  DGX d         -15.821  28.530  28.444  0.00  0.00     0.037 H 
ATOM     24  H7  DGX d         -17.024  28.795  29.751  0.00  0.00     0.037 H 
ATOM     25  H8  DGX d         -15.235  28.858  31.399  0.00  0.00     0.041 H 
ATOM     26  H9  DGX d         -16.413  26.766  30.865  0.00  0.00     0.033 H 
ATOM     27  H10 DGX d         -14.775  26.543  31.569  0.00  0.00     0.033 H 
ATOM     28  H11 DGX d         -15.560  26.301  28.627  0.00  0.00     0.033 H 
ATOM     29  H12 DGX d         -15.093  24.968  29.735  0.00  0.00     0.033 H 
ATOM     30  H13 DGX d         -12.888  25.939  30.026  0.00  0.00     0.045 H 
ATOM     31  H14 DGX d         -13.681  28.082  28.064  0.00  0.00     0.042 H 
ATOM     32  H15 DGX d         -11.047  27.478  29.467  0.00  0.00     0.037 H 
ATOM     33  H16 DGX d         -11.392  28.931  28.469  0.00  0.00     0.037 H 
ATOM     34  H17 DGX d         -12.024  27.416  26.595  0.00  0.00     0.084 H 
ATOM     35  H20 DGX d         -14.152  26.471  26.520  0.00  0.00     0.037 H 
ATOM     36  H21 DGX d         -14.663  24.755  26.663  0.00  0.00     0.037 H 
ATOM     37  H22 DGX d         -12.871  25.821  24.741  0.00  0.00     0.034 H 
ATOM     38  H23 DGX d         -13.126  24.082  25.111  0.00  0.00     0.034 H 
ATOM     39  H24 DGX d         -10.812  25.687  25.548  0.00  0.00     0.048 H 
ENDROOT
BRANCH   3  40
ATOM     40  O3  DGX d         -15.943  31.033  30.665  0.00  0.00    -0.356 OA
BRANCH  40  41
ATOM     41  C1X DGX d         -15.227  32.225  31.003  0.00  0.00     0.134 C 
ATOM     42  O5X DGX d         -14.062  31.835  31.715  0.00  0.00    -0.354 OA
ATOM     43  C5X DGX d         -13.219  32.881  32.153  0.00  0.00     0.065 C 
ATOM     44  C4X DGX d         -14.002  33.906  32.992  0.00  0.00     0.085 C 
ATOM     45  H41 DGX d         -12.744  33.390  31.302  0.00  0.00     0.086 H 
ATOM     46  C3X DGX d         -15.320  34.339  32.339  0.00  0.00     0.067 C 
ATOM     47  H39 DGX d         -14.229  33.454  33.968  0.00  0.00     0.090 H 
ATOM     48  C2X DGX d         -16.088  33.090  31.925  0.00  0.00     0.007 C 
ATOM     49  H37 DGX d         -15.917  34.886  33.083  0.00  0.00     0.087 H 
ATOM     50  H35 DGX d         -16.354  32.513  32.823  0.00  0.00     0.044 H 
ATOM     51  H36 DGX d         -17.004  33.386  31.394  0.00  0.00     0.044 H 
ATOM     52  H34 DGX d         -14.959  32.785  30.095  0.00  0.00     0.129 H 
BRANCH  43  53
ATOM     53  C6X DGX d         -12.191  32.153  32.998  0.00  0.00    -0.050 C 
ATOM     54  H42 DGX d         -12.668  31.785  33.919  0.00  0.00     0.031 H 
ATOM     55  H43 DGX d         -11.375  32.843  33.258  0.00  0.00     0.031 H 
ATOM     56  H44 DGX d         -11.786  31.303  32.430  0.00  0.00     0.031 H 
ENDBRANCH  43  53
BRANCH  44  57
ATOM     57  O4X DGX d         -13.185  35.071  33.186  0.00  0.00    -0.390 OA
ATOM     58  H40 DGX d         -12.528  35.113  32.501  0.00  0.00     0.210 HD
ENDBRANCH  44  57
BRANCH  46  59
ATOM     59  O3X DGX d         -15.082  35.222  31.221  0.00  0.00    -0.393 OA
ATOM     60  H38 DGX d         -15.431  34.829  30.430  0.00  0.00     0.210 HD
ENDBRANCH  46  59
ENDBRANCH  40  41
ENDBRANCH   3  40
BRANCH  10  61
ATOM     61  C19 DGX d         -12.623  28.433  31.353  0.00  0.00    -0.068 C 
ATOM     62  H28 DGX d         -11.748  29.097  31.289  0.00  0.00     0.028 H 
ATOM     63  H29 DGX d         -12.288  27.386  31.372  0.00  0.00     0.028 H 
ATOM     64  H30 DGX d         -13.186  28.654  32.271  0.00  0.00     0.028 H 
ENDBRANCH  10  61
BRANCH  14  65
ATOM     65  O14 DGX d         -13.242  23.951  28.425  0.00  0.00    -0.389 OA
ATOM     66  H19 DGX d         -12.446  23.618  28.822  0.00  0.00     0.210 HD
ENDBRANCH  14  65
BRANCH  12  67
ATOM     67  O12 DGX d         -10.000  27.378  26.900  0.00  0.00    -0.395 OA
ATOM     68  H18 DGX d         -10.043  27.643  25.989  0.00  0.00     0.210 HD
ENDBRANCH  12  67
BRANCH  13  69
ATOM     69  C18 DGX d         -10.528  25.010  28.604  0.00  0.00    -0.063 C 
ATOM     70  H25 DGX d         -11.005  24.975  29.594  0.00  0.00     0.028 H 
ATOM     71  H26 DGX d          -9.648  25.669  28.644  0.00  0.00     0.028 H 
ATOM     72  H27 DGX d         -10.215  23.998  28.312  0.00  0.00     0.028 H 
ENDBRANCH  13  69
BRANCH  17  73
ATOM     73  C20 DGX d         -10.712  23.669  25.973  0.00  0.00    -0.045 A 
ATOM     74  C22 DGX d          -9.507  23.441  25.431  0.00  0.00    -0.006 A 
ATOM     75  C23 DGX d          -9.169  22.042  25.604  0.00  0.00     0.283 A 
ATOM     76  H33 DGX d          -8.883  24.187  24.940  0.00  0.00     0.093 H 
ATOM     77  O21 DGX d         -10.144  21.436  26.282  0.00  0.00    -0.314 OA
ATOM     78  O23 DGX d          -8.158  21.424  25.291  0.00  0.00    -0.260 OA
ATOM     79  C21 DGX d         -11.214  22.383  26.503  0.00  0.00     0.050 A 
ATOM     80  H31 DGX d         -12.121  22.071  25.965  0.00  0.00     0.082 H 
ATOM     81  H32 DGX d         -11.437  22.469  27.577  0.00  0.00     0.082 H 
ENDBRANCH  17  73
TORSDOF 10
ENDMDL
MODEL 6
REMARK VINA RESULT:      -5.9      1.467     10.313
REMARK  10 active torsions:
REMARK  status: ('A' for Active; 'I' for Inactive)
REMARK    1  A    between atoms: C3_3  and  O3_4 
REMARK    2  A    between atoms: O3_4  and  C1X_29 
REMARK    3  A    between atoms: C10_11  and  C19_22 
REMARK    4  A    between atoms: C12_13  and  O12_14 
REMARK    5  A    between atoms: C13_15  and  C18_21 
REMARK    6  A    between atoms: C14_16  and  O14_17 
REMARK    7  A    between atoms: C17_20  and  C20_23 
REMARK    8  A    between atoms: C3X_31  and  O3X_32 
REMARK    9  A    between atoms: C4X_33  and  O4X_34 
REMARK   10  A    between atoms: C5X_35  and  C6X_37 
ROOT
ATOM      1  C1  DGX d         -13.487  27.399  28.761  0.00  0.00    -0.055 C 
ATOM      2  C2  DGX d         -12.833  27.909  27.480  0.00  0.00    -0.040 C 
ATOM      3  C3  DGX d         -11.332  28.093  27.661  0.00  0.00     0.042 C 
ATOM      4  C4  DGX d         -11.080  29.131  28.742  0.00  0.00    -0.037 C 
ATOM      5  C5  DGX d         -11.664  28.648  30.065  0.00  0.00    -0.044 C 
ATOM      6  C6  DGX d         -11.303  29.571  31.221  0.00  0.00    -0.060 C 
ATOM      7  C7  DGX d         -12.066  30.884  31.145  0.00  0.00    -0.058 C 
ATOM      8  C8  DGX d         -13.570  30.617  31.077  0.00  0.00    -0.019 C 
ATOM      9  C9  DGX d         -13.958  29.651  29.952  0.00  0.00    -0.038 C 
ATOM     10  C10 DGX d         -13.185  28.300  29.971  0.00  0.00    -0.036 C 
ATOM     11  C11 DGX d         -15.460  29.427  29.973  0.00  0.00    -0.036 C 
ATOM     12  C12 DGX d         -16.169  30.753  29.789  0.00  0.00     0.046 C 
ATOM     13  C13 DGX d         -15.908  31.726  30.973  0.00  0.00     0.021 C 
ATOM     14  C14 DGX d         -14.361  31.955  31.093  0.00  0.00     0.072 C 
ATOM     15  C15 DGX d         -14.056  32.962  29.966  0.00  0.00    -0.035 C 
ATOM     16  C16 DGX d         -15.328  33.769  29.715  0.00  0.00    -0.054 C 
ATOM     17  C17 DGX d         -16.478  33.091  30.470  0.00  0.00    -0.018 C 
ATOM     18  H1  DGX d         -14.577  27.361  28.610  0.00  0.00     0.034 H 
ATOM     19  H2  DGX d         -13.112  26.387  28.970  0.00  0.00     0.034 H 
ATOM     20  H3  DGX d         -13.282  28.876  27.208  0.00  0.00     0.036 H 
ATOM     21  H4  DGX d         -13.010  27.183  26.673  0.00  0.00     0.036 H 
ATOM     22  H5  DGX d         -10.888  28.426  26.712  0.00  0.00     0.083 H 
ATOM     23  H6  DGX d         -11.557  30.079  28.456  0.00  0.00     0.037 H 
ATOM     24  H7  DGX d          -9.996  29.285  28.855  0.00  0.00     0.037 H 
ATOM     25  H8  DGX d         -11.160  27.695  30.283  0.00  0.00     0.041 H 
ATOM     26  H9  DGX d         -10.224  29.782  31.187  0.00  0.00     0.033 H 
ATOM     27  H10 DGX d         -11.548  29.070  32.169  0.00  0.00     0.033 H 
ATOM     28  H11 DGX d         -11.753  31.433  30.245  0.00  0.00     0.033 H 
ATOM     29  H12 DGX d         -11.843  31.486  32.037  0.00  0.00     0.033 H 
ATOM     30  H13 DGX d         -13.834  30.099  32.011  0.00  0.00     0.045 H 
ATOM     31  H14 DGX d         -13.707  30.146  29.001  0.00  0.00     0.042 H 
ATOM     32  H15 DGX d         -15.752  28.985  30.937  0.00  0.00     0.037 H 
ATOM     33  H16 DGX d         -15.741  28.745  29.157  0.00  0.00     0.037 H 
ATOM     34  H17 DGX d         -15.751  31.221  28.886  0.00  0.00     0.084 H 
ATOM     35  H20 DGX d         -13.763  32.425  29.052  0.00  0.00     0.037 H 
ATOM     36  H21 DGX d         -13.240  33.633  30.273  0.00  0.00     0.037 H 
ATOM     37  H22 DGX d         -15.551  33.790  28.638  0.00  0.00     0.034 H 
ATOM     38  H23 DGX d         -15.197  34.798  30.082  0.00  0.00     0.034 H 
ATOM     39  H24 DGX d         -17.241  32.847  29.717  0.00  0.00     0.048 H 
ENDROOT
BRANCH   3  40
ATOM     40  O3  DGX d         -10.719  26.860  28.074  0.00  0.00    -0.356 OA
BRANCH  40  41
ATOM     41  C1X DGX d         -10.698  25.777  27.139  0.00  0.00     0.134 C 
ATOM     42  O5X DGX d         -12.013  25.248  27.070  0.00  0.00    -0.354 OA
ATOM     43  C5X DGX d         -12.199  24.150  26.200  0.00  0.00     0.065 C 
ATOM     44  C4X DGX d         -11.216  23.013  26.529  0.00  0.00     0.085 C 
ATOM     45  H41 DGX d         -12.074  24.450  25.150  0.00  0.00     0.086 H 
ATOM     46  C3X DGX d          -9.771  23.495  26.697  0.00  0.00     0.067 C 
ATOM     47  H39 DGX d         -11.536  22.539  27.468  0.00  0.00     0.090 H 
ATOM     48  C2X DGX d          -9.764  24.680  27.654  0.00  0.00     0.007 C 
ATOM     49  H37 DGX d          -9.179  22.682  27.142  0.00  0.00     0.087 H 
ATOM     50  H35 DGX d         -10.104  24.348  28.646  0.00  0.00     0.044 H 
ATOM     51  H36 DGX d          -8.742  25.079  27.731  0.00  0.00     0.044 H 
ATOM     52  H34 DGX d         -10.366  26.128  26.151  0.00  0.00     0.129 H 
BRANCH  43  53
ATOM     53  C6X DGX d         -13.631  23.735  26.483  0.00  0.00    -0.050 C 
ATOM     54  H42 DGX d         -14.229  24.626  26.726  0.00  0.00     0.031 H 
ATOM     55  H43 DGX d         -13.649  23.038  27.334  0.00  0.00     0.031 H 
ATOM     56  H44 DGX d         -14.052  23.241  25.596  0.00  0.00     0.031 H 
ENDBRANCH  43  53
BRANCH  44  57
ATOM     57  O4X DGX d         -11.254  22.043  25.470  0.00  0.00    -0.390 OA
ATOM     58  H40 DGX d         -10.528  22.196  24.877  0.00  0.00     0.210 HD
ENDBRANCH  44  57
BRANCH  46  59
ATOM     59  O3X DGX d          -9.181  23.829  25.421  0.00  0.00    -0.393 OA
ATOM     60  H38 DGX d          -8.245  23.945  25.527  0.00  0.00     0.210 HD
ENDBRANCH  46  59
ENDBRANCH  40  41
ENDBRANCH   3  40
BRANCH  10  61
ATOM     61  C19 DGX d         -13.649  27.407  31.135  0.00  0.00    -0.068 C 
ATOM     62  H28 DGX d         -13.506  27.940  32.086  0.00  0.00     0.028 H 
ATOM     63  H29 DGX d         -13.059  26.479  31.143  0.00  0.00     0.028 H 
ATOM     64  H30 DGX d         -14.714  27.162  31.008  0.00  0.00     0.028 H 
ENDBRANCH  10  61
BRANCH  14  65
ATOM     65  O14 DGX d         -14.020  32.651  32.322  0.00  0.00    -0.389 OA
ATOM     66  H19 DGX d         -13.929  33.579  32.144  0.00  0.00     0.210 HD
ENDBRANCH  14  65
BRANCH  12  67
ATOM     67  O12 DGX d         -17.569  30.564  29.558  0.00  0.00    -0.395 OA
ATOM     68  H18 DGX d         -18.049  31.303  29.912  0.00  0.00     0.210 HD
ENDBRANCH  12  67
BRANCH  13  69
ATOM     69  C18 DGX d         -16.529  31.159  32.270  0.00  0.00    -0.063 C 
ATOM     70  H25 DGX d         -15.729  30.918  32.985  0.00  0.00     0.028 H 
ATOM     71  H26 DGX d         -17.098  30.247  32.036  0.00  0.00     0.028 H 
ATOM     72  H27 DGX d         -17.202  31.907  32.712  0.00  0.00     0.028 H 
ENDBRANCH  13  69
BRANCH  17  73
ATOM     73  C20 DGX d         -17.207  33.928  31.476  0.00  0.00    -0.045 A 
ATOM     74  C22 DGX d         -18.526  33.984  31.705  0.00  0.00    -0.006 A 
ATOM     75  C23 DGX d         -18.771  34.845  32.846  0.00  0.00     0.283 A 
ATOM     76  H33 DGX d         -19.291  33.466  31.127  0.00  0.00     0.093 H 
ATOM     77  O21 DGX d         -17.604  35.274  33.328  0.00  0.00    -0.314 OA
ATOM     78  O23 DGX d         -19.818  35.143  33.406  0.00  0.00    -0.260 OA
ATOM     79  C21 DGX d         -16.542  34.796  32.472  0.00  0.00     0.050 A 
ATOM     80  H31 DGX d         -16.039  35.638  31.975  0.00  0.00     0.082 H 
ATOM     81  H32 DGX d         -15.806  34.221  33.054  0.00  0.00     0.082 H 
ENDBRANCH  17  73
TORSDOF 10
ENDMDL
MODEL 7
REMARK VINA RESULT:      -5.6      1.603      2.097
REMARK  10 active torsions:
REMARK  status: ('A' for Active; 'I' for Inactive)
REMARK    1  A    between atoms: C3_3  and  O3_4 
REMARK    2  A    between atoms: O3_4  and  C1X_29 
REMARK    3  A    between atoms: C10_11  and  C19_22 
REMARK    4  A    between atoms: C12_13  and  O12_14 
REMARK    5  A    between atoms: C13_15  and  C18_21 
REMARK    6  A    between atoms: C14_16  and  O14_17 
REMARK    7  A    between atoms: C17_20  and  C20_23 
REMARK    8  A    between atoms: C3X_31  and  O3X_32 
REMARK    9  A    between atoms: C4X_33  and  O4X_34 
REMARK   10  A    between atoms: C5X_35  and  C6X_37 
ROOT
ATOM      1  C1  DGX d         -13.061  32.655  28.759  0.00  0.00    -0.055 C 
ATOM      2  C2  DGX d         -14.209  32.938  27.793  0.00  0.00    -0.040 C 
ATOM      3  C3  DGX d         -15.547  32.972  28.519  0.00  0.00     0.042 C 
ATOM      4  C4  DGX d         -15.810  31.614  29.150  0.00  0.00    -0.037 C 
ATOM      5  C5  DGX d         -14.722  31.301  30.171  0.00  0.00    -0.044 C 
ATOM      6  C6  DGX d         -15.019  30.028  30.952  0.00  0.00    -0.060 C 
ATOM      7  C7  DGX d         -14.833  28.790  30.090  0.00  0.00    -0.058 C 
ATOM      8  C8  DGX d         -13.428  28.774  29.486  0.00  0.00    -0.019 C 
ATOM      9  C9  DGX d         -13.083  30.064  28.734  0.00  0.00    -0.038 C 
ATOM     10  C10 DGX d         -13.282  31.365  29.567  0.00  0.00    -0.036 C 
ATOM     11  C11 DGX d         -11.668  29.970  28.190  0.00  0.00    -0.036 C 
ATOM     12  C12 DGX d         -11.565  28.782  27.257  0.00  0.00     0.046 C 
ATOM     13  C13 DGX d         -11.784  27.433  28.000  0.00  0.00     0.021 C 
ATOM     14  C14 DGX d         -13.197  27.465  28.679  0.00  0.00     0.072 C 
ATOM     15  C15 DGX d         -14.165  27.182  27.514  0.00  0.00    -0.035 C 
ATOM     16  C16 DGX d         -13.401  26.368  26.470  0.00  0.00    -0.054 C 
ATOM     17  C17 DGX d         -11.915  26.386  26.849  0.00  0.00    -0.018 C 
ATOM     18  H1  DGX d         -12.130  32.557  28.182  0.00  0.00     0.034 H 
ATOM     19  H2  DGX d         -12.972  33.500  29.458  0.00  0.00     0.034 H 
ATOM     20  H3  DGX d         -14.236  32.148  27.028  0.00  0.00     0.036 H 
ATOM     21  H4  DGX d         -14.039  33.911  27.310  0.00  0.00     0.036 H 
ATOM     22  H5  DGX d         -16.345  33.212  27.802  0.00  0.00     0.083 H 
ATOM     23  H6  DGX d         -15.811  30.842  28.368  0.00  0.00     0.037 H 
ATOM     24  H7  DGX d         -16.790  31.629  29.652  0.00  0.00     0.037 H 
ATOM     25  H8  DGX d         -14.764  32.115  30.910  0.00  0.00     0.041 H 
ATOM     26  H9  DGX d         -16.059  30.062  31.309  0.00  0.00     0.033 H 
ATOM     27  H10 DGX d         -14.337  29.970  31.813  0.00  0.00     0.033 H 
ATOM     28  H11 DGX d         -15.576  28.797  29.279  0.00  0.00     0.033 H 
ATOM     29  H12 DGX d         -14.973  27.892  30.708  0.00  0.00     0.033 H 
ATOM     30  H13 DGX d         -12.728  28.733  30.334  0.00  0.00     0.045 H 
ATOM     31  H14 DGX d         -13.768  30.131  27.876  0.00  0.00     0.042 H 
ATOM     32  H15 DGX d         -10.961  29.844  29.024  0.00  0.00     0.037 H 
ATOM     33  H16 DGX d         -11.424  30.891  27.639  0.00  0.00     0.037 H 
ATOM     34  H17 DGX d         -12.375  28.878  26.519  0.00  0.00     0.084 H 
ATOM     35  H20 DGX d         -14.510  28.129  27.073  0.00  0.00     0.037 H 
ATOM     36  H21 DGX d         -15.032  26.609  27.875  0.00  0.00     0.037 H 
ATOM     37  H22 DGX d         -13.537  26.815  25.474  0.00  0.00     0.034 H 
ATOM     38  H23 DGX d         -13.771  25.332  26.460  0.00  0.00     0.034 H 
ATOM     39  H24 DGX d         -11.382  26.809  25.985  0.00  0.00     0.048 H 
ENDROOT
BRANCH   3  40
ATOM     40  O3  DGX d         -15.527  33.955  29.567  0.00  0.00    -0.356 OA
BRANCH  40  41
ATOM     41  C1X DGX d         -16.552  33.891  30.564  0.00  0.00     0.134 C 
ATOM     42  O5X DGX d         -17.730  34.449  30.001  0.00  0.00    -0.354 OA
ATOM     43  C5X DGX d         -18.865  34.490  30.842  0.00  0.00     0.065 C 
ATOM     44  C4X DGX d         -18.548  35.212  32.162  0.00  0.00     0.085 C 
ATOM     45  H41 DGX d         -19.235  33.477  31.057  0.00  0.00     0.086 H 
ATOM     46  C3X DGX d         -17.248  34.729  32.817  0.00  0.00     0.067 C 
ATOM     47  H39 DGX d         -18.454  36.288  31.955  0.00  0.00     0.090 H 
ATOM     48  C2X DGX d         -16.144  34.743  31.768  0.00  0.00     0.007 C 
ATOM     49  H37 DGX d         -16.977  35.431  33.618  0.00  0.00     0.087 H 
ATOM     50  H35 DGX d         -15.967  35.777  31.439  0.00  0.00     0.044 H 
ATOM     51  H36 DGX d         -15.221  34.334  32.206  0.00  0.00     0.044 H 
ATOM     52  H34 DGX d         -16.724  32.850  30.874  0.00  0.00     0.129 H 
BRANCH  43  53
ATOM     53  C6X DGX d         -19.867  35.273  30.016  0.00  0.00    -0.050 C 
ATOM     54  H42 DGX d         -19.635  36.346  30.079  0.00  0.00     0.031 H 
ATOM     55  H43 DGX d         -20.881  35.093  30.402  0.00  0.00     0.031 H 
ATOM     56  H44 DGX d         -19.812  34.948  28.967  0.00  0.00     0.031 H 
ENDBRANCH  43  53
BRANCH  44  57
ATOM     57  O4X DGX d         -19.630  34.997  33.082  0.00  0.00    -0.390 OA
ATOM     58  H40 DGX d         -19.457  35.471  33.887  0.00  0.00     0.210 HD
ENDBRANCH  44  57
BRANCH  46  59
ATOM     59  O3X DGX d         -17.416  33.421  33.407  0.00  0.00    -0.393 OA
ATOM     60  H38 DGX d         -17.769  32.825  32.757  0.00  0.00     0.210 HD
ENDBRANCH  46  59
ENDBRANCH  40  41
ENDBRANCH   3  40
BRANCH  10  61
ATOM     61  C19 DGX d         -12.202  31.503  30.655  0.00  0.00    -0.068 C 
ATOM     62  H28 DGX d         -12.684  31.665  31.631  0.00  0.00     0.028 H 
ATOM     63  H29 DGX d         -11.553  32.359  30.421  0.00  0.00     0.028 H 
ATOM     64  H30 DGX d         -11.598  30.584  30.692  0.00  0.00     0.028 H 
ENDBRANCH  10  61
BRANCH  14  65
ATOM     65  O14 DGX d         -13.373  26.351  29.594  0.00  0.00    -0.389 OA
ATOM     66  H19 DGX d         -13.147  25.541  29.152  0.00  0.00     0.210 HD
ENDBRANCH  14  65
BRANCH  12  67
ATOM     67  O12 DGX d         -10.330  28.794  26.535  0.00  0.00    -0.395 OA
ATOM     68  H18 DGX d         -10.282  29.581  26.006  0.00  0.00     0.210 HD
ENDBRANCH  12  67
BRANCH  13  69
ATOM     69  C18 DGX d         -10.640  27.198  29.014  0.00  0.00    -0.063 C 
ATOM     70  H25 DGX d         -11.061  27.097  30.025  0.00  0.00     0.028 H 
ATOM     71  H26 DGX d          -9.947  28.052  28.990  0.00  0.00     0.028 H 
ATOM     72  H27 DGX d         -10.098  26.279  28.750  0.00  0.00     0.028 H 
ENDBRANCH  13  69
BRANCH  17  73
ATOM     73  C20 DGX d         -11.263  25.057  27.070  0.00  0.00    -0.045 A 
ATOM     74  C22 DGX d         -11.744  23.840  26.779  0.00  0.00    -0.006 A 
ATOM     75  C23 DGX d         -10.724  22.849  27.061  0.00  0.00     0.283 A 
ATOM     76  H33 DGX d         -12.741  23.630  26.392  0.00  0.00     0.093 H 
ATOM     77  O21 DGX d          -9.619  23.465  27.481  0.00  0.00    -0.314 OA
ATOM     78  O23 DGX d         -10.733  21.634  26.909  0.00  0.00    -0.260 OA
ATOM     79  C21 DGX d          -9.889  24.882  27.589  0.00  0.00     0.050 A 
ATOM     80  H31 DGX d          -9.828  25.207  28.638  0.00  0.00     0.082 H 
ATOM     81  H32 DGX d          -9.172  25.458  26.985  0.00  0.00     0.082 H 
ENDBRANCH  17  73
TORSDOF 10
ENDMDL
MODEL 8
REMARK VINA RESULT:      -5.5      1.776      9.964
REMARK  10 active torsions:
REMARK  status: ('A' for Active; 'I' for Inactive)
REMARK    1  A    between atoms: C3_3  and  O3_4 
REMARK    2  A    between atoms: O3_4  and  C1X_29 
REMARK    3  A    between atoms: C10_11  and  C19_22 
REMARK    4  A    between atoms: C12_13  and  O12_14 
REMARK    5  A    between atoms: C13_15  and  C18_21 
REMARK    6  A    between atoms: C14_16  and  O14_17 
REMARK    7  A    between atoms: C17_20  and  C20_23 
REMARK    8  A    between atoms: C3X_31  and  O3X_32 
REMARK    9  A    between atoms: C4X_33  and  O4X_34 
REMARK   10  A    between atoms: C5X_35  and  C6X_37 
ROOT
ATOM      1  C1  DGX d         -10.821  29.782  29.260  0.00  0.00    -0.055 C 
ATOM      2  C2  DGX d         -10.423  28.541  30.054  0.00  0.00    -0.040 C 
ATOM      3  C3  DGX d         -10.740  27.266  29.283  0.00  0.00     0.042 C 
ATOM      4  C4  DGX d         -12.238  27.186  29.038  0.00  0.00    -0.037 C 
ATOM      5  C5  DGX d         -12.686  28.375  28.196  0.00  0.00    -0.044 C 
ATOM      6  C6  DGX d         -14.147  28.266  27.783  0.00  0.00    -0.060 C 
ATOM      7  C7  DGX d         -15.079  28.504  28.961  0.00  0.00    -0.058 C 
ATOM      8  C8  DGX d         -14.771  29.853  29.613  0.00  0.00    -0.019 C 
ATOM      9  C9  DGX d         -13.295  30.011  29.995  0.00  0.00    -0.038 C 
ATOM     10  C10 DGX d         -12.297  29.752  28.828  0.00  0.00    -0.036 C 
ATOM     11  C11 DGX d         -13.076  31.382  30.612  0.00  0.00    -0.036 C 
ATOM     12  C12 DGX d         -13.951  31.526  31.840  0.00  0.00     0.046 C 
ATOM     13  C13 DGX d         -15.465  31.499  31.487  0.00  0.00     0.021 C 
ATOM     14  C14 DGX d         -15.779  30.146  30.758  0.00  0.00     0.072 C 
ATOM     15  C15 DGX d         -15.848  29.123  31.909  0.00  0.00    -0.035 C 
ATOM     16  C16 DGX d         -16.259  29.879  33.172  0.00  0.00    -0.054 C 
ATOM     17  C17 DGX d         -16.172  31.381  32.874  0.00  0.00    -0.018 C 
ATOM     18  H1  DGX d         -10.653  30.671  29.886  0.00  0.00     0.034 H 
ATOM     19  H2  DGX d         -10.191  29.843  28.360  0.00  0.00     0.034 H 
ATOM     20  H3  DGX d         -10.976  28.531  31.004  0.00  0.00     0.036 H 
ATOM     21  H4  DGX d          -9.344  28.577  30.258  0.00  0.00     0.036 H 
ATOM     22  H5  DGX d         -10.409  26.395  29.866  0.00  0.00     0.083 H 
ATOM     23  H6  DGX d         -12.767  27.200  30.002  0.00  0.00     0.037 H 
ATOM     24  H7  DGX d         -12.471  26.252  28.505  0.00  0.00     0.037 H 
ATOM     25  H8  DGX d         -12.111  28.312  27.261  0.00  0.00     0.041 H 
ATOM     26  H9  DGX d         -14.331  27.259  27.381  0.00  0.00     0.033 H 
ATOM     27  H10 DGX d         -14.356  29.015  27.005  0.00  0.00     0.033 H 
ATOM     28  H11 DGX d         -14.940  27.703  29.701  0.00  0.00     0.033 H 
ATOM     29  H12 DGX d         -16.120  28.501  28.607  0.00  0.00     0.033 H 
ATOM     30  H13 DGX d         -14.957  30.617  28.844  0.00  0.00     0.045 H 
ATOM     31  H14 DGX d         -13.080  29.258  30.768  0.00  0.00     0.042 H 
ATOM     32  H15 DGX d         -13.339  32.160  29.880  0.00  0.00     0.037 H 
ATOM     33  H16 DGX d         -12.020  31.491  30.899  0.00  0.00     0.037 H 
ATOM     34  H17 DGX d         -13.753  30.656  32.483  0.00  0.00     0.084 H 
ATOM     35  H20 DGX d         -14.864  28.654  32.054  0.00  0.00     0.037 H 
ATOM     36  H21 DGX d         -16.593  28.347  31.677  0.00  0.00     0.037 H 
ATOM     37  H22 DGX d         -15.579  29.623  33.998  0.00  0.00     0.034 H 
ATOM     38  H23 DGX d         -17.289  29.612  33.449  0.00  0.00     0.034 H 
ATOM     39  H24 DGX d         -15.474  31.802  33.613  0.00  0.00     0.048 H 
ENDROOT
BRANCH   3  40
ATOM     40  O3  DGX d         -10.079  27.271  28.006  0.00  0.00    -0.356 OA
BRANCH  40  41
ATOM     41  C1X DGX d         -10.249  26.130  27.160  0.00  0.00     0.134 C 
ATOM     42  O5X DGX d         -11.643  25.952  26.960  0.00  0.00    -0.354 OA
ATOM     43  C5X DGX d         -12.023  24.857  26.153  0.00  0.00     0.065 C 
ATOM     44  C4X DGX d         -11.418  23.545  26.682  0.00  0.00     0.085 C 
ATOM     45  H41 DGX d         -11.713  25.008  25.108  0.00  0.00     0.086 H 
ATOM     46  C3X DGX d          -9.923  23.655  26.998  0.00  0.00     0.067 C 
ATOM     47  H39 DGX d         -11.949  23.265  27.603  0.00  0.00     0.090 H 
ATOM     48  C2X DGX d          -9.700  24.888  27.864  0.00  0.00     0.007 C 
ATOM     49  H37 DGX d          -9.619  22.767  27.571  0.00  0.00     0.087 H 
ATOM     50  H35 DGX d         -10.218  24.756  28.825  0.00  0.00     0.044 H 
ATOM     51  H36 DGX d          -8.623  25.018  28.042  0.00  0.00     0.044 H 
ATOM     52  H34 DGX d          -9.734  26.283  26.199  0.00  0.00     0.129 H 
BRANCH  43  53
ATOM     53  C6X DGX d         -13.535  24.853  26.279  0.00  0.00    -0.050 C 
ATOM     54  H42 DGX d         -13.985  24.734  25.283  0.00  0.00     0.031 H 
ATOM     55  H43 DGX d         -13.867  25.804  26.721  0.00  0.00     0.031 H 
ATOM     56  H44 DGX d         -13.847  24.020  26.925  0.00  0.00     0.031 H 
ENDBRANCH  43  53
BRANCH  44  57
ATOM     57  O4X DGX d         -11.602  22.516  25.697  0.00  0.00    -0.390 OA
ATOM     58  H40 DGX d         -10.758  22.148  25.464  0.00  0.00     0.210 HD
ENDBRANCH  44  57
BRANCH  46  59
ATOM     59  O3X DGX d          -9.135  23.696  25.788  0.00  0.00    -0.393 OA
ATOM     60  H38 DGX d          -9.689  23.949  25.060  0.00  0.00     0.210 HD
ENDBRANCH  46  59
ENDBRANCH  40  41
ENDBRANCH   3  40
BRANCH  10  61
ATOM     61  C19 DGX d         -12.333  30.894  27.797  0.00  0.00    -0.068 C 
ATOM     62  H28 DGX d         -11.428  31.511  27.902  0.00  0.00     0.028 H 
ATOM     63  H29 DGX d         -13.223  31.517  27.971  0.00  0.00     0.028 H 
ATOM     64  H30 DGX d         -12.375  30.471  26.783  0.00  0.00     0.028 H 
ENDBRANCH  10  61
BRANCH  14  65
ATOM     65  O14 DGX d         -17.111  30.152  30.179  0.00  0.00    -0.389 OA
ATOM     66  H19 DGX d         -17.594  30.900  30.506  0.00  0.00     0.210 HD
ENDBRANCH  14  65
BRANCH  12  67
ATOM     67  O12 DGX d         -13.603  32.695  32.589  0.00  0.00    -0.395 OA
ATOM     68  H18 DGX d         -12.664  32.829  32.547  0.00  0.00     0.210 HD
ENDBRANCH  12  67
BRANCH  13  69
ATOM     69  C18 DGX d         -15.830  32.735  30.634  0.00  0.00    -0.063 C 
ATOM     70  H25 DGX d         -16.659  33.279  31.111  0.00  0.00     0.028 H 
ATOM     71  H26 DGX d         -16.137  32.410  29.628  0.00  0.00     0.028 H 
ATOM     72  H27 DGX d         -14.956  33.397  30.554  0.00  0.00     0.028 H 
ENDBRANCH  13  69
BRANCH  17  73
ATOM     73  C20 DGX d         -17.428  32.175  33.060  0.00  0.00    -0.045 A 
ATOM     74  C22 DGX d         -17.550  33.493  33.273  0.00  0.00    -0.006 A 
ATOM     75  C23 DGX d         -18.958  33.842  33.280  0.00  0.00     0.283 A 
ATOM     76  H33 DGX d         -16.725  34.190  33.417  0.00  0.00     0.093 H 
ATOM     77  O21 DGX d         -19.680  32.749  33.032  0.00  0.00    -0.314 OA
ATOM     78  O23 DGX d         -19.506  34.930  33.407  0.00  0.00    -0.260 OA
ATOM     79  C21 DGX d         -18.791  31.612  32.947  0.00  0.00     0.050 A 
ATOM     80  H31 DGX d         -18.987  30.907  33.767  0.00  0.00     0.082 H 
ATOM     81  H32 DGX d         -18.916  31.096  31.983  0.00  0.00     0.082 H 
ENDBRANCH  17  73
TORSDOF 10
ENDMDL
