MODEL 1
REMARK VINA RESULT:      -9.7      0.000      0.000
REMARK  8 active torsions:
REMARK  status: ('A' for Active; 'I' for Inactive)
REMARK       I    between atoms: C25_25  and  N1_1 
REMARK    1  A    between atoms: C3_3  and  N5_5 
REMARK       I    between atoms: N5_5  and  C6_6 
REMARK    2  A    between atoms: C6_6  and  C7_7 
REMARK    3  A    between atoms: C24_24  and  N17_17 
REMARK    4  A    between atoms: N20_20  and  C23_23 
REMARK    5  A    between atoms: C20_32  and  C25_25 
REMARK    6  A    between atoms: C29_29  and  C20_32 
REMARK    7  A    between atoms: C20_32  and  O34_35 
REMARK    8  A    between atoms: O34_35  and  C36_34 
ROOT
ATOM      1  N1  MOL d         -41.391 -46.166 -10.019  0.00  0.00    -0.340 N 
ATOM      2  N2  MOL d         -38.933 -47.388 -12.381  0.00  0.00    -0.278 N 
ATOM      3  C3  MOL d         -40.458 -49.003 -12.159  0.00  0.00     0.160 A 
ATOM      4  N4  MOL d         -39.287 -48.712 -12.755  0.00  0.00    -0.156 NA
ATOM      5  C13 MOL d         -39.912 -46.928 -11.576  0.00  0.00     0.057 A 
ATOM      6  C14 MOL d         -40.905 -47.941 -11.398  0.00  0.00     0.033 A 
ATOM      7  C15 MOL d         -41.980 -47.469 -10.471  0.00  0.00     0.027 C 
ATOM      8  C16 MOL d         -40.218 -45.701 -10.789  0.00  0.00     0.038 C 
ATOM      9  C25 MOL d         -41.853 -45.427  -8.999  0.00  0.00     0.254 C 
ATOM     10  O26 MOL d         -41.331 -44.363  -8.671  0.00  0.00    -0.270 OA
ATOM     11  H1  MOL d         -38.087 -46.876 -12.670  0.00  0.00     0.189 HD
ATOM     12  H7  MOL d         -42.936 -47.323 -10.997  0.00  0.00     0.072 H 
ATOM     13  H8  MOL d         -42.127 -48.162  -9.631  0.00  0.00     0.072 H 
ATOM     14  H9  MOL d         -39.383 -45.423 -10.129  0.00  0.00     0.074 H 
ATOM     15  H10 MOL d         -40.469 -44.852 -11.441  0.00  0.00     0.074 H 
ENDROOT
BRANCH   3  16
ATOM     16  N5  MOL d         -41.021 -50.247 -12.344  0.00  0.00    -0.305 N 
ATOM     17  C6  MOL d         -42.315 -50.518 -12.390  0.00  0.00     0.257 C 
ATOM     18  O8  MOL d         -43.196 -49.683 -12.302  0.00  0.00    -0.267 OA
ATOM     19  H2  MOL d         -40.393 -51.017 -12.455  0.00  0.00     0.170 HD
BRANCH  17  20
ATOM     20  C7  MOL d         -42.710 -51.932 -12.580  0.00  0.00     0.032 A 
ATOM     21  C9  MOL d         -41.925 -52.704 -13.422  0.00  0.00    -0.066 A 
ATOM     22  C10 MOL d         -42.216 -54.034 -13.642  0.00  0.00    -0.056 A 
ATOM     23  H3  MOL d         -41.070 -52.256 -13.915  0.00  0.00     0.085 H 
ATOM     24  C24 MOL d         -43.315 -54.576 -13.013  0.00  0.00     0.030 A 
ATOM     25  H4  MOL d         -41.596 -54.638 -14.294  0.00  0.00     0.086 H 
ATOM     26  C11 MOL d         -44.116 -53.790 -12.163  0.00  0.00    -0.056 A 
ATOM     27  C12 MOL d         -43.818 -52.460 -11.934  0.00  0.00    -0.066 A 
ATOM     28  H5  MOL d         -44.979 -54.235 -11.682  0.00  0.00     0.086 H 
ATOM     29  H6  MOL d         -44.427 -51.852 -11.275  0.00  0.00     0.085 H 
BRANCH  24  30
ATOM     30  N17 MOL d         -43.614 -55.932 -13.232  0.00  0.00    -0.378 N 
ATOM     31  C18 MOL d         -43.159 -56.858 -12.483  0.00  0.00     0.018 C 
ATOM     32  C19 MOL d         -42.638 -57.939 -13.081  0.00  0.00     0.098 C 
ATOM     33  H11 MOL d         -43.986 -57.201 -11.844  0.00  0.00     0.066 H 
ATOM     34  H12 MOL d         -42.371 -56.416 -11.854  0.00  0.00     0.066 H 
ATOM     35  N20 MOL d         -42.974 -58.281 -14.440  0.00  0.00    -0.072 N 
ATOM     36  H13 MOL d         -42.923 -58.803 -12.464  0.00  0.00     0.078 H 
ATOM     37  H14 MOL d         -41.546 -57.813 -13.054  0.00  0.00     0.078 H 
ATOM     38  C21 MOL d         -43.522 -57.137 -15.221  0.00  0.00     0.098 C 
ATOM     39  H15 MOL d         -43.677 -59.002 -14.405  0.00  0.00     0.279 HD
ATOM     40  C22 MOL d         -44.465 -56.289 -14.371  0.00  0.00     0.018 C 
ATOM     41  H16 MOL d         -44.074 -57.527 -16.089  0.00  0.00     0.078 H 
ATOM     42  H17 MOL d         -42.688 -56.508 -15.568  0.00  0.00     0.078 H 
ATOM     43  H18 MOL d         -44.798 -55.394 -14.916  0.00  0.00     0.066 H 
ATOM     44  H19 MOL d         -45.342 -56.869 -14.048  0.00  0.00     0.066 H 
BRANCH  35  45
ATOM     45  C23 MOL d         -41.799 -58.803 -15.163  0.00  0.00     0.066 C 
ATOM     46  H20 MOL d         -41.819 -59.902 -15.151  0.00  0.00     0.068 H 
ATOM     47  H21 MOL d         -40.880 -58.448 -14.674  0.00  0.00     0.068 H 
ATOM     48  H22 MOL d         -41.821 -58.447 -16.204  0.00  0.00     0.068 H 
ENDBRANCH  35  45
ENDBRANCH  24  30
ENDBRANCH  17  20
ENDBRANCH   3  16
BRANCH   9  49
ATOM     49  C20 MOL d         -43.036 -45.924  -8.226  0.00  0.00     0.140 C 
ATOM     50  H27 MOL d         -43.820 -46.258  -8.922  0.00  0.00     0.106 H 
BRANCH  49  51
ATOM     51  C29 MOL d         -42.587 -47.092  -7.407  0.00  0.00    -0.020 A 
ATOM     52  C27 MOL d         -43.361 -48.276  -7.395  0.00  0.00    -0.074 A 
ATOM     53  C28 MOL d         -42.936 -49.382  -6.659  0.00  0.00    -0.082 A 
ATOM     54  H23 MOL d         -44.286 -48.324  -7.959  0.00  0.00     0.084 H 
ATOM     55  C31 MOL d         -41.738 -49.291  -5.923  0.00  0.00    -0.083 A 
ATOM     56  H24 MOL d         -43.518 -50.296  -6.653  0.00  0.00     0.083 H 
ATOM     57  C35 MOL d         -40.971 -48.121  -5.925  0.00  0.00    -0.082 A 
ATOM     58  H25 MOL d         -41.404 -50.145  -5.345  0.00  0.00     0.083 H 
ATOM     59  C33 MOL d         -41.396 -47.023  -6.654  0.00  0.00    -0.074 A 
ATOM     60  H28 MOL d         -40.048 -48.075  -5.358  0.00  0.00     0.083 H 
ATOM     61  H26 MOL d         -40.813 -46.109  -6.646  0.00  0.00     0.084 H 
ENDBRANCH  49  51
BRANCH  49  62
ATOM     62  O34 MOL d         -43.551 -44.846  -7.441  0.00  0.00    -0.377 OA
BRANCH  62  63
ATOM     63  C36 MOL d         -44.809 -45.126  -6.796  0.00  0.00     0.005 C 
ATOM     64  H29 MOL d         -45.615 -45.116  -7.545  0.00  0.00     0.066 H 
ATOM     65  H30 MOL d         -45.009 -44.360  -6.033  0.00  0.00     0.066 H 
ATOM     66  H31 MOL d         -44.765 -46.116  -6.319  0.00  0.00     0.066 H 
ENDBRANCH  62  63
ENDBRANCH  49  62
ENDBRANCH   9  49
TORSDOF 8
ENDMDL
MODEL 2
REMARK VINA RESULT:      -7.0      1.133      2.598
REMARK  8 active torsions:
REMARK  status: ('A' for Active; 'I' for Inactive)
REMARK       I    between atoms: C25_25  and  N1_1 
REMARK    1  A    between atoms: C3_3  and  N5_5 
REMARK       I    between atoms: N5_5  and  C6_6 
REMARK    2  A    between atoms: C6_6  and  C7_7 
REMARK    3  A    between atoms: C24_24  and  N17_17 
REMARK    4  A    between atoms: N20_20  and  C23_23 
REMARK    5  A    between atoms: C20_32  and  C25_25 
REMARK    6  A    between atoms: C29_29  and  C20_32 
REMARK    7  A    between atoms: C20_32  and  O34_35 
REMARK    8  A    between atoms: O34_35  and  C36_34 
ROOT
ATOM      1  N1  MOL d         -41.189 -45.881  -9.293  0.00  0.00    -0.340 N 
ATOM      2  N2  MOL d         -39.196 -46.721 -12.198  0.00  0.00    -0.278 N 
ATOM      3  C3  MOL d         -40.560 -48.452 -11.841  0.00  0.00     0.160 A 
ATOM      4  N4  MOL d         -39.550 -48.030 -12.624  0.00  0.00    -0.156 NA
ATOM      5  C13 MOL d         -40.016 -46.401 -11.176  0.00  0.00     0.057 A 
ATOM      6  C14 MOL d         -40.899 -47.493 -10.907  0.00  0.00     0.033 A 
ATOM      7  C15 MOL d         -41.789 -47.178  -9.746  0.00  0.00     0.027 C 
ATOM      8  C16 MOL d         -40.220 -45.270 -10.229  0.00  0.00     0.038 C 
ATOM      9  C25 MOL d         -41.474 -45.265  -8.135  0.00  0.00     0.254 C 
ATOM     10  O26 MOL d         -40.952 -44.199  -7.814  0.00  0.00    -0.270 OA
ATOM     11  H1  MOL d         -38.455 -46.128 -12.596  0.00  0.00     0.189 HD
ATOM     12  H7  MOL d         -42.837 -47.056 -10.057  0.00  0.00     0.072 H 
ATOM     13  H8  MOL d         -41.727 -47.950  -8.965  0.00  0.00     0.072 H 
ATOM     14  H9  MOL d         -39.286 -44.991  -9.721  0.00  0.00     0.074 H 
ATOM     15  H10 MOL d         -40.642 -44.389 -10.733  0.00  0.00     0.074 H 
ENDROOT
BRANCH   3  16
ATOM     16  N5  MOL d         -41.083 -49.712 -12.033  0.00  0.00    -0.305 N 
ATOM     17  C6  MOL d         -42.366 -50.015 -12.142  0.00  0.00     0.257 C 
ATOM     18  O8  MOL d         -43.270 -49.200 -12.116  0.00  0.00    -0.267 OA
ATOM     19  H2  MOL d         -40.432 -50.469 -12.095  0.00  0.00     0.170 HD
BRANCH  17  20
ATOM     20  C7  MOL d         -42.717 -51.441 -12.327  0.00  0.00     0.032 A 
ATOM     21  C9  MOL d         -43.682 -51.973 -11.485  0.00  0.00    -0.066 A 
ATOM     22  C10 MOL d         -44.075 -53.290 -11.600  0.00  0.00    -0.056 A 
ATOM     23  H3  MOL d         -44.133 -51.345 -10.726  0.00  0.00     0.085 H 
ATOM     24  C24 MOL d         -43.478 -54.070 -12.566  0.00  0.00     0.030 A 
ATOM     25  H4  MOL d         -44.836 -53.701 -10.947  0.00  0.00     0.086 H 
ATOM     26  C11 MOL d         -42.493 -53.532 -13.416  0.00  0.00    -0.056 A 
ATOM     27  C12 MOL d         -42.106 -52.208 -13.307  0.00  0.00    -0.066 A 
ATOM     28  H5  MOL d         -42.032 -54.164 -14.165  0.00  0.00     0.086 H 
ATOM     29  H6  MOL d         -41.354 -51.787 -13.964  0.00  0.00     0.085 H 
BRANCH  24  30
ATOM     30  N17 MOL d         -43.878 -55.411 -12.688  0.00  0.00    -0.378 N 
ATOM     31  C18 MOL d         -44.045 -56.166 -11.674  0.00  0.00     0.018 C 
ATOM     32  C19 MOL d         -43.510 -57.395 -11.721  0.00  0.00     0.098 C 
ATOM     33  H11 MOL d         -45.129 -56.283 -11.526  0.00  0.00     0.066 H 
ATOM     34  H12 MOL d         -43.611 -55.650 -10.805  0.00  0.00     0.066 H 
ATOM     35  N20 MOL d         -43.178 -58.022 -12.975  0.00  0.00    -0.072 N 
ATOM     36  H13 MOL d         -44.224 -58.064 -11.219  0.00  0.00     0.078 H 
ATOM     37  H14 MOL d         -42.578 -57.350 -11.140  0.00  0.00     0.078 H 
ATOM     38  C21 MOL d         -43.032 -57.057 -14.100  0.00  0.00     0.098 C 
ATOM     39  H15 MOL d         -43.926 -58.658 -13.203  0.00  0.00     0.279 HD
ATOM     40  C22 MOL d         -44.094 -55.961 -14.030  0.00  0.00     0.018 C 
ATOM     41  H16 MOL d         -43.137 -57.597 -15.053  0.00  0.00     0.078 H 
ATOM     42  H17 MOL d         -42.035 -56.594 -14.049  0.00  0.00     0.078 H 
ATOM     43  H18 MOL d         -43.932 -55.198 -14.805  0.00  0.00     0.066 H 
ATOM     44  H19 MOL d         -45.105 -56.380 -14.133  0.00  0.00     0.066 H 
BRANCH  35  45
ATOM     45  C23 MOL d         -41.922 -58.789 -12.870  0.00  0.00     0.066 C 
ATOM     46  H20 MOL d         -41.673 -59.223 -13.849  0.00  0.00     0.068 H 
ATOM     47  H21 MOL d         -42.046 -59.596 -12.133  0.00  0.00     0.068 H 
ATOM     48  H22 MOL d         -41.110 -58.121 -12.547  0.00  0.00     0.068 H 
ENDBRANCH  35  45
ENDBRANCH  24  30
ENDBRANCH  17  20
ENDBRANCH   3  16
BRANCH   9  49
ATOM     49  C20 MOL d         -42.449 -45.909  -7.198  0.00  0.00     0.140 C 
ATOM     50  H27 MOL d         -42.201 -45.640  -6.161  0.00  0.00     0.106 H 
BRANCH  49  51
ATOM     51  C29 MOL d         -43.810 -45.378  -7.521  0.00  0.00    -0.020 A 
ATOM     52  C27 MOL d         -44.527 -44.650  -6.543  0.00  0.00    -0.074 A 
ATOM     53  C28 MOL d         -45.783 -44.124  -6.843  0.00  0.00    -0.082 A 
ATOM     54  H23 MOL d         -44.100 -44.501  -5.558  0.00  0.00     0.084 H 
ATOM     55  C31 MOL d         -46.324 -44.343  -8.126  0.00  0.00    -0.083 A 
ATOM     56  H24 MOL d         -46.335 -43.557  -6.103  0.00  0.00     0.083 H 
ATOM     57  C35 MOL d         -45.624 -45.067  -9.097  0.00  0.00    -0.082 A 
ATOM     58  H25 MOL d         -47.302 -43.941  -8.365  0.00  0.00     0.083 H 
ATOM     59  C33 MOL d         -44.378 -45.591  -8.795  0.00  0.00    -0.074 A 
ATOM     60  H28 MOL d         -46.055 -45.217 -10.080  0.00  0.00     0.083 H 
ATOM     61  H26 MOL d         -43.838 -46.166  -9.539  0.00  0.00     0.084 H 
ENDBRANCH  49  51
BRANCH  49  62
ATOM     62  O34 MOL d         -42.347 -47.327  -7.340  0.00  0.00    -0.377 OA
BRANCH  62  63
ATOM     63  C36 MOL d         -41.863 -48.010  -6.168  0.00  0.00     0.005 C 
ATOM     64  H29 MOL d         -40.764 -48.048  -6.193  0.00  0.00     0.066 H 
ATOM     65  H30 MOL d         -42.264 -49.034  -6.147  0.00  0.00     0.066 H 
ATOM     66  H31 MOL d         -42.190 -47.471  -5.267  0.00  0.00     0.066 H 
ENDBRANCH  62  63
ENDBRANCH  49  62
ENDBRANCH   9  49
TORSDOF 8
ENDMDL
MODEL 3
REMARK VINA RESULT:      -6.9      3.377      9.997
REMARK  8 active torsions:
REMARK  status: ('A' for Active; 'I' for Inactive)
REMARK       I    between atoms: C25_25  and  N1_1 
REMARK    1  A    between atoms: C3_3  and  N5_5 
REMARK       I    between atoms: N5_5  and  C6_6 
REMARK    2  A    between atoms: C6_6  and  C7_7 
REMARK    3  A    between atoms: C24_24  and  N17_17 
REMARK    4  A    between atoms: N20_20  and  C23_23 
REMARK    5  A    between atoms: C20_32  and  C25_25 
REMARK    6  A    between atoms: C29_29  and  C20_32 
REMARK    7  A    between atoms: C20_32  and  O34_35 
REMARK    8  A    between atoms: O34_35  and  C36_34 
ROOT
ATOM      1  N1  MOL d         -43.344 -57.411 -12.454  0.00  0.00    -0.340 N 
ATOM      2  N2  MOL d         -43.790 -55.809 -15.672  0.00  0.00    -0.278 N 
ATOM      3  C3  MOL d         -42.986 -54.249 -14.292  0.00  0.00     0.160 A 
ATOM      4  N4  MOL d         -43.439 -54.438 -15.545  0.00  0.00    -0.156 NA
ATOM      5  C13 MOL d         -43.527 -56.397 -14.487  0.00  0.00     0.057 A 
ATOM      6  C14 MOL d         -43.021 -55.425 -13.569  0.00  0.00     0.033 A 
ATOM      7  C15 MOL d         -42.764 -56.046 -12.232  0.00  0.00     0.027 C 
ATOM      8  C16 MOL d         -43.665 -57.741 -13.859  0.00  0.00     0.038 C 
ATOM      9  C25 MOL d         -43.575 -58.315 -11.489  0.00  0.00     0.254 C 
ATOM     10  O26 MOL d         -44.052 -59.422 -11.729  0.00  0.00    -0.270 OA
ATOM     11  H1  MOL d         -44.173 -56.268 -16.511  0.00  0.00     0.189 HD
ATOM     12  H7  MOL d         -41.688 -56.093 -12.004  0.00  0.00     0.072 H 
ATOM     13  H8  MOL d         -43.285 -55.509 -11.426  0.00  0.00     0.072 H 
ATOM     14  H9  MOL d         -44.686 -58.135 -13.961  0.00  0.00     0.074 H 
ATOM     15  H10 MOL d         -42.950 -58.462 -14.281  0.00  0.00     0.074 H 
ENDROOT
BRANCH   3  16
ATOM     16  N5  MOL d         -42.592 -52.989 -13.897  0.00  0.00    -0.305 N 
ATOM     17  C6  MOL d         -42.830 -52.430 -12.722  0.00  0.00     0.257 C 
ATOM     18  O8  MOL d         -43.414 -52.978 -11.806  0.00  0.00    -0.267 OA
ATOM     19  H2  MOL d         -42.079 -52.446 -14.561  0.00  0.00     0.170 HD
BRANCH  17  20
ATOM     20  C7  MOL d         -42.332 -51.053 -12.508  0.00  0.00     0.032 A 
ATOM     21  C9  MOL d         -43.260 -50.092 -12.136  0.00  0.00    -0.066 A 
ATOM     22  C10 MOL d         -42.875 -48.788 -11.905  0.00  0.00    -0.056 A 
ATOM     23  H3  MOL d         -44.301 -50.370 -12.025  0.00  0.00     0.085 H 
ATOM     24  C24 MOL d         -41.547 -48.459 -12.063  0.00  0.00     0.030 A 
ATOM     25  H4  MOL d         -43.600 -48.040 -11.605  0.00  0.00     0.086 H 
ATOM     26  C11 MOL d         -40.607 -49.433 -12.448  0.00  0.00    -0.056 A 
ATOM     27  C12 MOL d         -40.990 -50.743 -12.670  0.00  0.00    -0.066 A 
ATOM     28  H5  MOL d         -39.568 -49.152 -12.573  0.00  0.00     0.086 H 
ATOM     29  H6  MOL d         -40.269 -51.499 -12.959  0.00  0.00     0.085 H 
BRANCH  24  30
ATOM     30  N17 MOL d         -41.151 -47.131 -11.826  0.00  0.00    -0.378 N 
ATOM     31  C18 MOL d         -39.928 -46.804 -11.674  0.00  0.00     0.018 C 
ATOM     32  C19 MOL d         -39.627 -45.992 -10.650  0.00  0.00     0.098 C 
ATOM     33  H11 MOL d         -39.604 -46.304 -12.598  0.00  0.00     0.066 H 
ATOM     34  H12 MOL d         -39.353 -47.733 -11.538  0.00  0.00     0.066 H 
ATOM     35  N20 MOL d         -40.626 -45.154 -10.037  0.00  0.00    -0.072 N 
ATOM     36  H13 MOL d         -38.835 -45.319 -11.011  0.00  0.00     0.078 H 
ATOM     37  H14 MOL d         -39.227 -46.633  -9.851  0.00  0.00     0.078 H 
ATOM     38  C21 MOL d         -42.021 -45.606 -10.298  0.00  0.00     0.098 C 
ATOM     39  H15 MOL d         -40.520 -44.227 -10.420  0.00  0.00     0.279 HD
ATOM     40  C22 MOL d         -42.184 -46.094 -11.736  0.00  0.00     0.018 C 
ATOM     41  H16 MOL d         -42.709 -44.766 -10.124  0.00  0.00     0.078 H 
ATOM     42  H17 MOL d         -42.265 -46.429  -9.609  0.00  0.00     0.078 H 
ATOM     43  H18 MOL d         -43.186 -46.514 -11.904  0.00  0.00     0.066 H 
ATOM     44  H19 MOL d         -42.000 -45.284 -12.455  0.00  0.00     0.066 H 
BRANCH  35  45
ATOM     45  C23 MOL d         -40.437 -45.083  -8.575  0.00  0.00     0.066 C 
ATOM     46  H20 MOL d         -40.663 -46.063  -8.129  0.00  0.00     0.068 H 
ATOM     47  H21 MOL d         -41.111 -44.324  -8.154  0.00  0.00     0.068 H 
ATOM     48  H22 MOL d         -39.394 -44.810  -8.353  0.00  0.00     0.068 H 
ENDBRANCH  35  45
ENDBRANCH  24  30
ENDBRANCH  17  20
ENDBRANCH   3  16
BRANCH   9  49
ATOM     49  C20 MOL d         -43.252 -57.953 -10.072  0.00  0.00     0.140 C 
ATOM     50  H27 MOL d         -42.362 -57.308 -10.046  0.00  0.00     0.106 H 
BRANCH  49  51
ATOM     51  C29 MOL d         -44.416 -57.192  -9.520  0.00  0.00    -0.020 A 
ATOM     52  C27 MOL d         -44.419 -55.779  -9.580  0.00  0.00    -0.074 A 
ATOM     53  C28 MOL d         -45.512 -55.061  -9.096  0.00  0.00    -0.082 A 
ATOM     54  H23 MOL d         -43.571 -55.253 -10.003  0.00  0.00     0.084 H 
ATOM     55  C31 MOL d         -46.597 -55.765  -8.538  0.00  0.00    -0.083 A 
ATOM     56  H24 MOL d         -45.526 -53.978  -9.148  0.00  0.00     0.083 H 
ATOM     57  C35 MOL d         -46.598 -57.162  -8.469  0.00  0.00    -0.082 A 
ATOM     58  H25 MOL d         -47.448 -55.213  -8.155  0.00  0.00     0.083 H 
ATOM     59  C33 MOL d         -45.510 -57.874  -8.947  0.00  0.00    -0.074 A 
ATOM     60  H28 MOL d         -47.447 -57.686  -8.042  0.00  0.00     0.083 H 
ATOM     61  H26 MOL d         -45.500 -58.956  -8.882  0.00  0.00     0.084 H 
ENDBRANCH  49  51
BRANCH  49  62
ATOM     62  O34 MOL d         -42.968 -59.154  -9.351  0.00  0.00    -0.377 OA
BRANCH  62  63
ATOM     63  C36 MOL d         -42.180 -58.962  -8.160  0.00  0.00     0.005 C 
ATOM     64  H29 MOL d         -41.273 -59.581  -8.217  0.00  0.00     0.066 H 
ATOM     65  H30 MOL d         -42.769 -59.255  -7.278  0.00  0.00     0.066 H 
ATOM     66  H31 MOL d         -41.896 -57.903  -8.074  0.00  0.00     0.066 H 
ENDBRANCH  62  63
ENDBRANCH  49  62
ENDBRANCH   9  49
TORSDOF 8
ENDMDL
MODEL 4
REMARK VINA RESULT:      -6.7      3.427     11.070
REMARK  8 active torsions:
REMARK  status: ('A' for Active; 'I' for Inactive)
REMARK       I    between atoms: C25_25  and  N1_1 
REMARK    1  A    between atoms: C3_3  and  N5_5 
REMARK       I    between atoms: N5_5  and  C6_6 
REMARK    2  A    between atoms: C6_6  and  C7_7 
REMARK    3  A    between atoms: C24_24  and  N17_17 
REMARK    4  A    between atoms: N20_20  and  C23_23 
REMARK    5  A    between atoms: C20_32  and  C25_25 
REMARK    6  A    between atoms: C29_29  and  C20_32 
REMARK    7  A    between atoms: C20_32  and  O34_35 
REMARK    8  A    between atoms: O34_35  and  C36_34 
ROOT
ATOM      1  N1  MOL d         -45.352 -57.167 -11.813  0.00  0.00    -0.340 N 
ATOM      2  N2  MOL d         -46.105 -55.997  -8.469  0.00  0.00    -0.278 N 
ATOM      3  C3  MOL d         -45.259 -54.253  -9.577  0.00  0.00     0.160 A 
ATOM      4  N4  MOL d         -45.700 -54.639  -8.366  0.00  0.00    -0.156 NA
ATOM      5  C13 MOL d         -45.898 -56.376  -9.747  0.00  0.00     0.057 A 
ATOM      6  C14 MOL d         -45.342 -55.287 -10.488  0.00  0.00     0.033 A 
ATOM      7  C15 MOL d         -45.062 -55.699 -11.900  0.00  0.00     0.027 C 
ATOM      8  C16 MOL d         -46.032 -57.607 -10.576  0.00  0.00     0.038 C 
ATOM      9  C25 MOL d         -45.045 -58.069 -12.759  0.00  0.00     0.254 C 
ATOM     10  O26 MOL d         -45.308 -59.263 -12.636  0.00  0.00    -0.270 OA
ATOM     11  H1  MOL d         -46.485 -56.582  -7.712  0.00  0.00     0.189 HD
ATOM     12  H7  MOL d         -45.730 -55.193 -12.612  0.00  0.00     0.072 H 
ATOM     13  H8  MOL d         -44.016 -55.507 -12.180  0.00  0.00     0.072 H 
ATOM     14  H9  MOL d         -45.522 -58.465 -10.115  0.00  0.00     0.074 H 
ATOM     15  H10 MOL d         -47.086 -57.861 -10.759  0.00  0.00     0.074 H 
ENDROOT
BRANCH   3  16
ATOM     16  N5  MOL d         -44.785 -52.971  -9.748  0.00  0.00    -0.305 N 
ATOM     17  C6  MOL d         -44.586 -52.079  -8.792  0.00  0.00     0.257 C 
ATOM     18  O8  MOL d         -44.772 -52.288  -7.608  0.00  0.00    -0.267 OA
ATOM     19  H2  MOL d         -44.572 -52.688 -10.683  0.00  0.00     0.170 HD
BRANCH  17  20
ATOM     20  C7  MOL d         -44.087 -50.745  -9.196  0.00  0.00     0.032 A 
ATOM     21  C9  MOL d         -43.585 -50.617 -10.482  0.00  0.00    -0.066 A 
ATOM     22  C10 MOL d         -43.114 -49.404 -10.940  0.00  0.00    -0.056 A 
ATOM     23  H3  MOL d         -43.564 -51.480 -11.136  0.00  0.00     0.085 H 
ATOM     24  C24 MOL d         -43.142 -48.325 -10.086  0.00  0.00     0.030 A 
ATOM     25  H4  MOL d         -42.730 -49.304 -11.949  0.00  0.00     0.086 H 
ATOM     26  C11 MOL d         -43.645 -48.457  -8.778  0.00  0.00    -0.056 A 
ATOM     27  C12 MOL d         -44.128 -49.670  -8.321  0.00  0.00    -0.066 A 
ATOM     28  H5  MOL d         -43.653 -47.596  -8.119  0.00  0.00     0.086 H 
ATOM     29  H6  MOL d         -44.524 -49.775  -7.317  0.00  0.00     0.085 H 
BRANCH  24  30
ATOM     30  N17 MOL d         -42.664 -47.087 -10.550  0.00  0.00    -0.378 N 
ATOM     31  C18 MOL d         -41.858 -46.996 -11.533  0.00  0.00     0.018 C 
ATOM     32  C19 MOL d         -40.797 -46.188 -11.392  0.00  0.00     0.098 C 
ATOM     33  H11 MOL d         -42.434 -46.635 -12.399  0.00  0.00     0.066 H 
ATOM     34  H12 MOL d         -41.477 -48.007 -11.742  0.00  0.00     0.066 H 
ATOM     35  N20 MOL d         -40.785 -45.129 -10.414  0.00  0.00    -0.072 N 
ATOM     36  H13 MOL d         -40.638 -45.709 -12.369  0.00  0.00     0.078 H 
ATOM     37  H14 MOL d         -39.941 -46.837 -11.157  0.00  0.00     0.078 H 
ATOM     38  C21 MOL d         -41.781 -45.318  -9.323  0.00  0.00     0.098 C 
ATOM     39  H15 MOL d         -41.004 -44.271 -10.894  0.00  0.00     0.279 HD
ATOM     40  C22 MOL d         -43.099 -45.864  -9.867  0.00  0.00     0.018 C 
ATOM     41  H16 MOL d         -41.968 -44.349  -8.837  0.00  0.00     0.078 H 
ATOM     42  H17 MOL d         -41.375 -46.026  -8.585  0.00  0.00     0.078 H 
ATOM     43  H18 MOL d         -43.804 -46.091  -9.054  0.00  0.00     0.066 H 
ATOM     44  H19 MOL d         -43.564 -45.158 -10.570  0.00  0.00     0.066 H 
BRANCH  35  45
ATOM     45  C23 MOL d         -39.452 -44.995  -9.794  0.00  0.00     0.066 C 
ATOM     46  H20 MOL d         -39.117 -45.976  -9.428  0.00  0.00     0.068 H 
ATOM     47  H21 MOL d         -39.509 -44.290  -8.951  0.00  0.00     0.068 H 
ATOM     48  H22 MOL d         -38.737 -44.617 -10.539  0.00  0.00     0.068 H 
ENDBRANCH  35  45
ENDBRANCH  24  30
ENDBRANCH  17  20
ENDBRANCH   3  16
BRANCH   9  49
ATOM     49  C20 MOL d         -44.346 -57.602 -13.999  0.00  0.00     0.140 C 
ATOM     50  H27 MOL d         -44.181 -56.516 -13.946  0.00  0.00     0.106 H 
BRANCH  49  51
ATOM     51  C29 MOL d         -43.020 -58.290 -14.061  0.00  0.00    -0.020 A 
ATOM     52  C27 MOL d         -42.522 -58.740 -15.307  0.00  0.00    -0.074 A 
ATOM     53  C28 MOL d         -41.273 -59.355 -15.380  0.00  0.00    -0.082 A 
ATOM     54  H23 MOL d         -43.113 -58.606 -16.205  0.00  0.00     0.084 H 
ATOM     55  C31 MOL d         -40.529 -59.531 -14.196  0.00  0.00    -0.083 A 
ATOM     56  H24 MOL d         -40.881 -59.693 -16.333  0.00  0.00     0.083 H 
ATOM     57  C35 MOL d         -41.017 -59.095 -12.960  0.00  0.00    -0.082 A 
ATOM     58  H25 MOL d         -39.560 -60.013 -14.245  0.00  0.00     0.083 H 
ATOM     59  C33 MOL d         -42.260 -58.487 -12.888  0.00  0.00    -0.074 A 
ATOM     60  H28 MOL d         -40.426 -59.233 -12.062  0.00  0.00     0.083 H 
ATOM     61  H26 MOL d         -42.649 -58.161 -11.930  0.00  0.00     0.084 H 
ENDBRANCH  49  51
BRANCH  49  62
ATOM     62  O34 MOL d         -45.182 -57.883 -15.124  0.00  0.00    -0.377 OA
BRANCH  62  63
ATOM     63  C36 MOL d         -46.192 -56.887 -15.379  0.00  0.00     0.005 C 
ATOM     64  H29 MOL d         -45.767 -56.083 -15.999  0.00  0.00     0.066 H 
ATOM     65  H30 MOL d         -46.543 -56.466 -14.425  0.00  0.00     0.066 H 
ATOM     66  H31 MOL d         -47.038 -57.349 -15.909  0.00  0.00     0.066 H 
ENDBRANCH  62  63
ENDBRANCH  49  62
ENDBRANCH   9  49
TORSDOF 8
ENDMDL
