MODEL 1
REMARK VINA RESULT:      -7.6      0.000      0.000
REMARK  15 active torsions:
REMARK  status: ('A' for Active; 'I' for Inactive)
REMARK    1  A    between atoms: C27_27  and  C15_15 
REMARK    2  A    between atoms: C16_16  and  C28_28 
REMARK    3  A    between atoms: C35_35  and  C17_17 
REMARK    4  A    between atoms: C35_35  and  C18_18 
REMARK    5  A    between atoms: C19_19  and  C32_32 
REMARK    6  A    between atoms: C33_33  and  C20_20 
REMARK    7  A    between atoms: C23_23  and  O43_43 
REMARK    8  A    between atoms: C24_24  and  O44_44 
REMARK    9  A    between atoms: C34_34  and  C26_26 
REMARK       I    between atoms: N36_36  and  C27_27 
REMARK   10  A    between atoms: O43_43  and  C30_30 
REMARK   11  A    between atoms: O44_44  and  C31_31 
REMARK   12  A    between atoms: C32_32  and  N37_37 
REMARK   13  A    between atoms: N37_37  and  C33_33 
REMARK   14  A    between atoms: N37_37  and  C34_34 
REMARK   15  A    between atoms: C35_35  and  N36_36 
ROOT
ATOM      1  C1  O2N d          -8.708  40.577   0.464  0.00  0.00    -0.082 A 
ATOM      2  C2  O2N d          -9.495  40.753  -0.652  0.00  0.00    -0.082 A 
ATOM      3  C3  O2N d          -8.004  41.677   0.937  0.00  0.00    -0.067 A 
ATOM      4  C4  O2N d          -9.605  41.979  -1.289  0.00  0.00    -0.074 A 
ATOM      5  C15 O2N d          -8.097  42.909   0.313  0.00  0.00     0.040 A 
ATOM      6  C19 O2N d          -8.904  43.069  -0.812  0.00  0.00    -0.017 A 
ATOM      7  H1  O2N d          -8.639  39.613   0.956  0.00  0.00     0.083 H 
ATOM      8  H2  O2N d         -10.047  39.906  -1.043  0.00  0.00     0.083 H 
ATOM      9  H3  O2N d          -7.370  41.569   1.810  0.00  0.00     0.085 H 
ATOM     10  H4  O2N d         -10.240  42.081  -2.162  0.00  0.00     0.084 H 
ENDROOT
BRANCH   5  11
ATOM     11  C27 O2N d          -7.349  44.053   0.878  0.00  0.00     0.253 C 
ATOM     12  N36 O2N d          -8.078  45.138   1.365  0.00  0.00    -0.344 N 
ATOM     13  H33 O2N d          -9.075  45.125   1.285  0.00  0.00     0.163 HD
ATOM     14  O39 O2N d          -6.116  43.992   0.863  0.00  0.00    -0.268 OA
BRANCH  12  15
ATOM     15  C35 O2N d          -7.439  46.284   1.984  0.00  0.00     0.063 C 
ATOM     16  H32 O2N d          -6.637  45.920   2.643  0.00  0.00     0.088 H 
BRANCH  15  17
ATOM     17  C17 O2N d          -8.461  47.001   2.884  0.00  0.00    -0.031 A 
ATOM     18  C6  O2N d          -8.115  47.388   4.173  0.00  0.00    -0.072 A 
ATOM     19  C11 O2N d          -9.023  48.023   5.029  0.00  0.00    -0.050 A 
ATOM     20  H6  O2N d          -7.109  47.192   4.527  0.00  0.00     0.084 H 
ATOM     21  C23 O2N d         -10.312  48.306   4.509  0.00  0.00     0.068 A 
ATOM     22  H11 O2N d          -8.753  48.288   6.045  0.00  0.00     0.087 H 
ATOM     23  C12 O2N d         -10.707  47.901   3.244  0.00  0.00    -0.050 A 
ATOM     24  C7  O2N d          -9.752  47.249   2.450  0.00  0.00    -0.072 A 
ATOM     25  H12 O2N d         -11.714  48.081   2.884  0.00  0.00     0.087 H 
ATOM     26  H7  O2N d         -10.037  46.926   1.455  0.00  0.00     0.084 H 
BRANCH  21  27
ATOM     27  O43 O2N d         -11.215  48.950   5.372  0.00  0.00    -0.356 OA
BRANCH  27  28
ATOM     28  C30 O2N d         -12.302  49.732   4.831  0.00  0.00     0.010 C 
ATOM     29  H20 O2N d         -12.839  49.140   4.075  0.00  0.00     0.066 H 
ATOM     30  H21 O2N d         -11.901  50.644   4.366  0.00  0.00     0.066 H 
ATOM     31  H22 O2N d         -12.994  50.007   5.641  0.00  0.00     0.066 H 
ENDBRANCH  27  28
ENDBRANCH  21  27
ENDBRANCH  15  17
BRANCH  15  32
ATOM     32  C18 O2N d          -6.770  47.119   0.895  0.00  0.00    -0.031 A 
ATOM     33  C8  O2N d          -7.525  47.403  -0.236  0.00  0.00    -0.072 A 
ATOM     34  C13 O2N d          -6.973  48.195  -1.241  0.00  0.00    -0.050 A 
ATOM     35  H8  O2N d          -8.531  47.014  -0.335  0.00  0.00     0.084 H 
ATOM     36  C24 O2N d          -5.679  48.697  -1.151  0.00  0.00     0.068 A 
ATOM     37  H13 O2N d          -7.568  48.425  -2.117  0.00  0.00     0.087 H 
ATOM     38  C14 O2N d          -4.881  48.441  -0.052  0.00  0.00    -0.050 A 
ATOM     39  C9  O2N d          -5.493  47.666   0.963  0.00  0.00    -0.072 A 
ATOM     40  H14 O2N d          -3.863  48.806   0.026  0.00  0.00     0.087 H 
ATOM     41  H9  O2N d          -4.920  47.484   1.865  0.00  0.00     0.084 H 
BRANCH  36  42
ATOM     42  O44 O2N d          -5.250  49.453  -2.241  0.00  0.00    -0.356 OA
BRANCH  42  43
ATOM     43  C31 O2N d          -5.602  50.831  -2.118  0.00  0.00     0.010 C 
ATOM     44  H23 O2N d          -5.951  51.208  -3.091  0.00  0.00     0.066 H 
ATOM     45  H24 O2N d          -4.722  51.406  -1.795  0.00  0.00     0.066 H 
ATOM     46  H25 O2N d          -6.405  50.939  -1.374  0.00  0.00     0.066 H 
ENDBRANCH  42  43
ENDBRANCH  36  42
ENDBRANCH  15  32
ENDBRANCH  12  15
ENDBRANCH   5  11
BRANCH   6  47
ATOM     47  C32 O2N d          -9.066  44.376  -1.518  0.00  0.00     0.109 C 
ATOM     48  H26 O2N d          -8.605  44.284  -2.512  0.00  0.00     0.083 H 
ATOM     49  H27 O2N d          -8.536  45.144  -0.936  0.00  0.00     0.083 H 
BRANCH  47  50
ATOM     50  N37 O2N d         -10.503  44.839  -1.707  0.00  0.00    -0.060 N 
ATOM     51  H34 O2N d         -10.462  45.681  -2.260  0.00  0.00     0.281 HD
BRANCH  50  52
ATOM     52  C33 O2N d         -11.297  45.211  -0.410  0.00  0.00     0.109 C 
ATOM     53  H28 O2N d         -12.213  44.604  -0.351  0.00  0.00     0.083 H 
ATOM     54  H29 O2N d         -10.672  45.016   0.474  0.00  0.00     0.083 H 
BRANCH  52  55
ATOM     55  C20 O2N d         -11.662  46.687  -0.463  0.00  0.00    -0.013 A 
ATOM     56  C5  O2N d         -10.788  47.697  -0.951  0.00  0.00    -0.071 A 
ATOM     57  C10 O2N d         -11.162  49.078  -1.004  0.00  0.00    -0.047 A 
ATOM     58  H5  O2N d          -9.801  47.411  -1.297  0.00  0.00     0.084 H 
ATOM     59  C21 O2N d         -12.412  49.371  -0.514  0.00  0.00     0.106 A 
ATOM     60  H10 O2N d         -10.504  49.841  -1.404  0.00  0.00     0.087 H 
ATOM     61  C22 O2N d         -13.272  48.392  -0.049  0.00  0.00     0.122 A 
ATOM     62  O41 O2N d         -12.990  50.601  -0.438  0.00  0.00    -0.323 OA
ATOM     63  C16 O2N d         -12.944  47.036   0.004  0.00  0.00     0.085 A 
ATOM     64  O42 O2N d         -14.492  48.919   0.396  0.00  0.00    -0.322 OA
ATOM     65  C29 O2N d         -14.304  50.314   0.079  0.00  0.00     0.115 A 
ATOM     66  H18 O2N d         -15.049  50.606  -0.676  0.00  0.00     0.118 H 
ATOM     67  H19 O2N d         -14.458  50.905   0.994  0.00  0.00     0.118 H 
BRANCH  63  68
ATOM     68  C28 O2N d         -13.997  46.062   0.482  0.00  0.00     0.212 C 
ATOM     69  O38 O2N d         -14.071  45.939   1.747  0.00  0.00    -0.644 OA
ATOM     70  O40 O2N d         -14.864  45.493  -0.256  0.00  0.00    -0.644 OA
ENDBRANCH  63  68
ENDBRANCH  52  55
ENDBRANCH  50  52
BRANCH  50  71
ATOM     71  C34 O2N d         -11.233  43.804  -2.506  0.00  0.00     0.099 C 
ATOM     72  H30 O2N d         -11.092  44.048  -3.569  0.00  0.00     0.082 H 
ATOM     73  H31 O2N d         -10.770  42.831  -2.288  0.00  0.00     0.082 H 
BRANCH  71  74
ATOM     74  C26 O2N d         -12.712  43.663  -2.268  0.00  0.00    -0.087 C 
ATOM     75  C25 O2N d         -13.600  44.283  -3.065  0.00  0.00    -0.123 C 
ATOM     76  H15 O2N d         -14.667  44.172  -2.881  0.00  0.00     0.066 H 
ATOM     77  H16 O2N d         -13.251  44.897  -3.895  0.00  0.00     0.066 H 
ATOM     78  H17 O2N d         -13.067  43.051  -1.441  0.00  0.00     0.078 H 
ENDBRANCH  71  74
ENDBRANCH  50  71
ENDBRANCH  47  50
ENDBRANCH   6  47
TORSDOF 15
ENDMDL
MODEL 2
REMARK VINA RESULT:      -7.6      1.947      3.687
REMARK  15 active torsions:
REMARK  status: ('A' for Active; 'I' for Inactive)
REMARK    1  A    between atoms: C27_27  and  C15_15 
REMARK    2  A    between atoms: C16_16  and  C28_28 
REMARK    3  A    between atoms: C35_35  and  C17_17 
REMARK    4  A    between atoms: C35_35  and  C18_18 
REMARK    5  A    between atoms: C19_19  and  C32_32 
REMARK    6  A    between atoms: C33_33  and  C20_20 
REMARK    7  A    between atoms: C23_23  and  O43_43 
REMARK    8  A    between atoms: C24_24  and  O44_44 
REMARK    9  A    between atoms: C34_34  and  C26_26 
REMARK       I    between atoms: N36_36  and  C27_27 
REMARK   10  A    between atoms: O43_43  and  C30_30 
REMARK   11  A    between atoms: O44_44  and  C31_31 
REMARK   12  A    between atoms: C32_32  and  N37_37 
REMARK   13  A    between atoms: N37_37  and  C33_33 
REMARK   14  A    between atoms: N37_37  and  C34_34 
REMARK   15  A    between atoms: C35_35  and  N36_36 
ROOT
ATOM      1  C1  O2N d          -8.808  40.610   0.113  0.00  0.00    -0.082 A 
ATOM      2  C2  O2N d          -9.689  40.577  -0.945  0.00  0.00    -0.082 A 
ATOM      3  C3  O2N d          -8.205  41.825   0.412  0.00  0.00    -0.067 A 
ATOM      4  C4  O2N d          -9.986  41.706  -1.691  0.00  0.00    -0.074 A 
ATOM      5  C15 O2N d          -8.486  42.964  -0.322  0.00  0.00     0.040 A 
ATOM      6  C19 O2N d          -9.385  42.912  -1.386  0.00  0.00    -0.017 A 
ATOM      7  H1  O2N d          -8.592  39.719   0.692  0.00  0.00     0.083 H 
ATOM      8  H2  O2N d         -10.164  39.637  -1.202  0.00  0.00     0.083 H 
ATOM      9  H3  O2N d          -7.502  41.883   1.235  0.00  0.00     0.085 H 
ATOM     10  H4  O2N d         -10.690  41.643  -2.513  0.00  0.00     0.084 H 
ENDROOT
BRANCH   5  11
ATOM     11  C27 O2N d          -7.838  44.237   0.060  0.00  0.00     0.253 C 
ATOM     12  N36 O2N d          -8.103  44.754   1.329  0.00  0.00    -0.344 N 
ATOM     13  H33 O2N d          -8.747  44.270   1.922  0.00  0.00     0.163 HD
ATOM     14  O39 O2N d          -7.116  44.785  -0.778  0.00  0.00    -0.268 OA
BRANCH  12  15
ATOM     15  C35 O2N d          -7.478  45.969   1.816  0.00  0.00     0.063 C 
ATOM     16  H32 O2N d          -6.868  46.394   1.004  0.00  0.00     0.088 H 
BRANCH  15  17
ATOM     17  C17 O2N d          -6.509  45.611   2.957  0.00  0.00    -0.031 A 
ATOM     18  C6  O2N d          -6.919  45.698   4.282  0.00  0.00    -0.072 A 
ATOM     19  C11 O2N d          -6.061  45.401   5.348  0.00  0.00    -0.050 A 
ATOM     20  H6  O2N d          -7.937  46.006   4.497  0.00  0.00     0.084 H 
ATOM     21  C23 O2N d          -4.755  44.955   5.021  0.00  0.00     0.068 A 
ATOM     22  H11 O2N d          -6.381  45.508   6.379  0.00  0.00     0.087 H 
ATOM     23  C12 O2N d          -4.297  44.893   3.715  0.00  0.00    -0.050 A 
ATOM     24  C7  O2N d          -5.204  45.227   2.698  0.00  0.00    -0.072 A 
ATOM     25  H12 O2N d          -3.279  44.598   3.488  0.00  0.00     0.087 H 
ATOM     26  H7  O2N d          -4.871  45.183   1.668  0.00  0.00     0.084 H 
BRANCH  21  27
ATOM     27  O43 O2N d          -3.902  44.652   6.096  0.00  0.00    -0.356 OA
BRANCH  27  28
ATOM     28  C30 O2N d          -4.113  43.453   6.873  0.00  0.00     0.010 C 
ATOM     29  H20 O2N d          -5.186  43.335   7.082  0.00  0.00     0.066 H 
ATOM     30  H21 O2N d          -3.561  43.530   7.821  0.00  0.00     0.066 H 
ATOM     31  H22 O2N d          -3.752  42.581   6.308  0.00  0.00     0.066 H 
ENDBRANCH  27  28
ENDBRANCH  21  27
ENDBRANCH  15  17
BRANCH  15  32
ATOM     32  C18 O2N d          -8.568  46.991   2.128  0.00  0.00    -0.031 A 
ATOM     33  C8  O2N d          -9.842  46.497   2.381  0.00  0.00    -0.072 A 
ATOM     34  C13 O2N d         -10.863  47.386   2.709  0.00  0.00    -0.050 A 
ATOM     35  H8  O2N d         -10.038  45.433   2.323  0.00  0.00     0.084 H 
ATOM     36  C24 O2N d         -10.647  48.758   2.775  0.00  0.00     0.068 A 
ATOM     37  H13 O2N d         -11.853  46.998   2.918  0.00  0.00     0.087 H 
ATOM     38  C14 O2N d          -9.402  49.306   2.528  0.00  0.00    -0.050 A 
ATOM     39  C9  O2N d          -8.384  48.365   2.236  0.00  0.00    -0.072 A 
ATOM     40  H14 O2N d          -9.220  50.374   2.555  0.00  0.00     0.087 H 
ATOM     41  H9  O2N d          -7.381  48.748   2.085  0.00  0.00     0.084 H 
BRANCH  36  42
ATOM     42  O44 O2N d         -11.765  49.529   3.092  0.00  0.00    -0.356 OA
BRANCH  42  43
ATOM     43  C31 O2N d         -11.519  50.927   2.947  0.00  0.00     0.010 C 
ATOM     44  H23 O2N d         -11.682  51.222   1.900  0.00  0.00     0.066 H 
ATOM     45  H24 O2N d         -10.480  51.148   3.233  0.00  0.00     0.066 H 
ATOM     46  H25 O2N d         -12.206  51.489   3.598  0.00  0.00     0.066 H 
ENDBRANCH  42  43
ENDBRANCH  36  42
ENDBRANCH  15  32
ENDBRANCH  12  15
ENDBRANCH   5  11
BRANCH   6  47
ATOM     47  C32 O2N d          -9.749  44.108  -2.203  0.00  0.00     0.109 C 
ATOM     48  H26 O2N d          -9.586  43.858  -3.262  0.00  0.00     0.083 H 
ATOM     49  H27 O2N d          -9.082  44.933  -1.914  0.00  0.00     0.083 H 
BRANCH  47  50
ATOM     50  N37 O2N d         -11.184  44.589  -2.050  0.00  0.00    -0.060 N 
ATOM     51  H34 O2N d         -11.276  45.409  -2.630  0.00  0.00     0.281 HD
BRANCH  50  52
ATOM     52  C33 O2N d         -11.628  45.023  -0.613  0.00  0.00     0.109 C 
ATOM     53  H28 O2N d         -12.575  44.526  -0.352  0.00  0.00     0.083 H 
ATOM     54  H29 O2N d         -10.853  44.739   0.115  0.00  0.00     0.083 H 
BRANCH  52  55
ATOM     55  C20 O2N d         -11.820  46.533  -0.592  0.00  0.00    -0.013 A 
ATOM     56  C5  O2N d         -10.850  47.456  -1.072  0.00  0.00    -0.071 A 
ATOM     57  C10 O2N d         -11.062  48.872  -1.055  0.00  0.00    -0.047 A 
ATOM     58  H5  O2N d          -9.915  47.073  -1.464  0.00  0.00     0.084 H 
ATOM     59  C21 O2N d         -12.253  49.285  -0.508  0.00  0.00     0.106 A 
ATOM     60  H10 O2N d         -10.333  49.571  -1.447  0.00  0.00     0.087 H 
ATOM     61  C22 O2N d         -13.207  48.392  -0.052  0.00  0.00     0.122 A 
ATOM     62  O41 O2N d         -12.680  50.569  -0.361  0.00  0.00    -0.323 OA
ATOM     63  C16 O2N d         -13.037  47.007  -0.065  0.00  0.00     0.085 A 
ATOM     64  O42 O2N d         -14.341  49.036   0.458  0.00  0.00    -0.322 OA
ATOM     65  C29 O2N d         -14.002  50.412   0.192  0.00  0.00     0.115 A 
ATOM     66  H18 O2N d         -14.731  50.821  -0.523  0.00  0.00     0.118 H 
ATOM     67  H19 O2N d         -14.057  50.976   1.134  0.00  0.00     0.118 H 
BRANCH  63  68
ATOM     68  C28 O2N d         -14.181  46.140   0.412  0.00  0.00     0.212 C 
ATOM     69  O38 O2N d         -14.272  46.029   1.677  0.00  0.00    -0.644 OA
ATOM     70  O40 O2N d         -15.096  45.655  -0.329  0.00  0.00    -0.644 OA
ENDBRANCH  63  68
ENDBRANCH  52  55
ENDBRANCH  50  52
BRANCH  50  71
ATOM     71  C34 O2N d         -12.098  43.537  -2.599  0.00  0.00     0.099 C 
ATOM     72  H30 O2N d         -11.939  43.497  -3.687  0.00  0.00     0.082 H 
ATOM     73  H31 O2N d         -11.805  42.577  -2.150  0.00  0.00     0.082 H 
BRANCH  71  74
ATOM     74  C26 O2N d         -13.574  43.712  -2.366  0.00  0.00    -0.087 C 
ATOM     75  C25 O2N d         -14.337  44.377  -3.252  0.00  0.00    -0.123 C 
ATOM     76  H15 O2N d         -15.404  44.496  -3.071  0.00  0.00     0.066 H 
ATOM     77  H16 O2N d         -13.887  44.796  -4.152  0.00  0.00     0.066 H 
ATOM     78  H17 O2N d         -14.030  43.295  -1.469  0.00  0.00     0.078 H 
ENDBRANCH  71  74
ENDBRANCH  50  71
ENDBRANCH  47  50
ENDBRANCH   6  47
TORSDOF 15
ENDMDL
MODEL 3
REMARK VINA RESULT:      -7.5      1.972      3.257
REMARK  15 active torsions:
REMARK  status: ('A' for Active; 'I' for Inactive)
REMARK    1  A    between atoms: C27_27  and  C15_15 
REMARK    2  A    between atoms: C16_16  and  C28_28 
REMARK    3  A    between atoms: C35_35  and  C17_17 
REMARK    4  A    between atoms: C35_35  and  C18_18 
REMARK    5  A    between atoms: C19_19  and  C32_32 
REMARK    6  A    between atoms: C33_33  and  C20_20 
REMARK    7  A    between atoms: C23_23  and  O43_43 
REMARK    8  A    between atoms: C24_24  and  O44_44 
REMARK    9  A    between atoms: C34_34  and  C26_26 
REMARK       I    between atoms: N36_36  and  C27_27 
REMARK   10  A    between atoms: O43_43  and  C30_30 
REMARK   11  A    between atoms: O44_44  and  C31_31 
REMARK   12  A    between atoms: C32_32  and  N37_37 
REMARK   13  A    between atoms: N37_37  and  C33_33 
REMARK   14  A    between atoms: N37_37  and  C34_34 
REMARK   15  A    between atoms: C35_35  and  N36_36 
ROOT
ATOM      1  C1  O2N d         -10.391  40.923  -1.324  0.00  0.00    -0.082 A 
ATOM      2  C2  O2N d         -11.592  41.458  -1.734  0.00  0.00    -0.082 A 
ATOM      3  C3  O2N d          -9.318  41.791  -1.168  0.00  0.00    -0.067 A 
ATOM      4  C4  O2N d         -11.748  42.813  -1.978  0.00  0.00    -0.074 A 
ATOM      5  C15 O2N d          -9.453  43.147  -1.410  0.00  0.00     0.040 A 
ATOM      6  C19 O2N d         -10.678  43.671  -1.819  0.00  0.00    -0.017 A 
ATOM      7  H1  O2N d         -10.287  39.861  -1.129  0.00  0.00     0.083 H 
ATOM      8  H2  O2N d         -12.441  40.799  -1.871  0.00  0.00     0.083 H 
ATOM      9  H3  O2N d          -8.358  41.399  -0.852  0.00  0.00     0.085 H 
ATOM     10  H4  O2N d         -12.711  43.200  -2.294  0.00  0.00     0.084 H 
ENDROOT
BRANCH   5  11
ATOM     11  C27 O2N d          -8.284  44.028  -1.198  0.00  0.00     0.253 C 
ATOM     12  N36 O2N d          -8.290  44.871  -0.086  0.00  0.00    -0.344 N 
ATOM     13  H33 O2N d          -9.094  44.879   0.509  0.00  0.00     0.163 HD
ATOM     14  O39 O2N d          -7.378  43.985  -2.035  0.00  0.00    -0.268 OA
BRANCH  12  15
ATOM     15  C35 O2N d          -7.170  45.735   0.236  0.00  0.00     0.063 C 
ATOM     16  H32 O2N d          -6.271  45.336  -0.258  0.00  0.00     0.088 H 
BRANCH  15  17
ATOM     17  C17 O2N d          -6.908  45.672   1.751  0.00  0.00    -0.031 A 
ATOM     18  C6  O2N d          -6.494  46.805   2.442  0.00  0.00    -0.072 A 
ATOM     19  C11 O2N d          -6.226  46.782   3.816  0.00  0.00    -0.050 A 
ATOM     20  H6  O2N d          -6.375  47.736   1.899  0.00  0.00     0.084 H 
ATOM     21  C23 O2N d          -6.441  45.556   4.496  0.00  0.00     0.068 A 
ATOM     22  H11 O2N d          -5.868  47.663   4.338  0.00  0.00     0.087 H 
ATOM     23  C12 O2N d          -6.815  44.396   3.836  0.00  0.00    -0.050 A 
ATOM     24  C7  O2N d          -7.045  44.488   2.455  0.00  0.00    -0.072 A 
ATOM     25  H12 O2N d          -6.925  43.457   4.366  0.00  0.00     0.087 H 
ATOM     26  H7  O2N d          -7.341  43.595   1.917  0.00  0.00     0.084 H 
BRANCH  21  27
ATOM     27  O43 O2N d          -6.177  45.543   5.876  0.00  0.00    -0.356 OA
BRANCH  27  28
ATOM     28  C30 O2N d          -5.522  44.406   6.478  0.00  0.00     0.010 C 
ATOM     29  H20 O2N d          -4.460  44.640   6.645  0.00  0.00     0.066 H 
ATOM     30  H21 O2N d          -5.605  43.538   5.809  0.00  0.00     0.066 H 
ATOM     31  H22 O2N d          -6.001  44.173   7.441  0.00  0.00     0.066 H 
ENDBRANCH  27  28
ENDBRANCH  21  27
ENDBRANCH  15  17
BRANCH  15  32
ATOM     32  C18 O2N d          -7.426  47.115  -0.366  0.00  0.00    -0.031 A 
ATOM     33  C8  O2N d          -8.752  47.503  -0.511  0.00  0.00    -0.072 A 
ATOM     34  C13 O2N d          -9.038  48.769  -1.018  0.00  0.00    -0.050 A 
ATOM     35  H8  O2N d          -9.554  46.830  -0.231  0.00  0.00     0.084 H 
ATOM     36  C24 O2N d          -8.032  49.649  -1.400  0.00  0.00     0.068 A 
ATOM     37  H13 O2N d         -10.073  49.074  -1.119  0.00  0.00     0.087 H 
ATOM     38  C14 O2N d          -6.697  49.314  -1.285  0.00  0.00    -0.050 A 
ATOM     39  C9  O2N d          -6.449  48.035  -0.728  0.00  0.00    -0.072 A 
ATOM     40  H14 O2N d          -5.900  49.979  -1.596  0.00  0.00     0.087 H 
ATOM     41  H9  O2N d          -5.414  47.752  -0.572  0.00  0.00     0.084 H 
BRANCH  36  42
ATOM     42  O44 O2N d          -8.466  50.871  -1.914  0.00  0.00    -0.356 OA
BRANCH  42  43
ATOM     43  C31 O2N d          -9.858  50.863  -2.231  0.00  0.00     0.010 C 
ATOM     44  H23 O2N d         -10.291  51.850  -2.009  0.00  0.00     0.066 H 
ATOM     45  H24 O2N d         -10.367  50.096  -1.628  0.00  0.00     0.066 H 
ATOM     46  H25 O2N d          -9.989  50.637  -3.299  0.00  0.00     0.066 H 
ENDBRANCH  42  43
ENDBRANCH  36  42
ENDBRANCH  15  32
ENDBRANCH  12  15
ENDBRANCH   5  11
BRANCH   6  47
ATOM     47  C32 O2N d         -10.896  45.126  -2.074  0.00  0.00     0.109 C 
ATOM     48  H26 O2N d         -10.969  45.274  -3.161  0.00  0.00     0.083 H 
ATOM     49  H27 O2N d         -10.023  45.673  -1.688  0.00  0.00     0.083 H 
BRANCH  47  50
ATOM     50  N37 O2N d         -12.141  45.720  -1.433  0.00  0.00    -0.060 N 
ATOM     51  H34 O2N d         -11.965  46.707  -1.322  0.00  0.00     0.281 HD
BRANCH  50  52
ATOM     52  C33 O2N d         -12.522  45.185  -0.012  0.00  0.00     0.109 C 
ATOM     53  H28 O2N d         -13.617  45.161   0.092  0.00  0.00     0.083 H 
ATOM     54  H29 O2N d         -12.119  44.171   0.121  0.00  0.00     0.083 H 
BRANCH  52  55
ATOM     55  C20 O2N d         -11.929  46.114   1.038  0.00  0.00    -0.013 A 
ATOM     56  C5  O2N d         -10.665  45.898   1.656  0.00  0.00    -0.071 A 
ATOM     57  C10 O2N d         -10.123  46.795   2.630  0.00  0.00    -0.047 A 
ATOM     58  H5  O2N d         -10.092  45.020   1.378  0.00  0.00     0.084 H 
ATOM     59  C21 O2N d         -10.923  47.862   2.961  0.00  0.00     0.106 A 
ATOM     60  H10 O2N d          -9.148  46.643   3.078  0.00  0.00     0.087 H 
ATOM     61  C22 O2N d         -12.146  48.086   2.355  0.00  0.00     0.122 A 
ATOM     62  O41 O2N d         -10.644  48.840   3.866  0.00  0.00    -0.323 OA
ATOM     63  C16 O2N d         -12.698  47.239   1.393  0.00  0.00     0.085 A 
ATOM     64  O42 O2N d         -12.783  49.234   2.843  0.00  0.00    -0.322 OA
ATOM     65  C29 O2N d         -11.778  49.722   3.755  0.00  0.00     0.115 A 
ATOM     66  H18 O2N d         -11.426  50.701   3.398  0.00  0.00     0.118 H 
ATOM     67  H19 O2N d         -12.233  49.836   4.750  0.00  0.00     0.118 H 
BRANCH  63  68
ATOM     68  C28 O2N d         -14.019  47.627   0.768  0.00  0.00     0.212 C 
ATOM     69  O38 O2N d         -15.039  47.083   1.301  0.00  0.00    -0.644 OA
ATOM     70  O40 O2N d         -14.179  48.527  -0.119  0.00  0.00    -0.644 OA
ENDBRANCH  63  68
ENDBRANCH  52  55
ENDBRANCH  50  52
BRANCH  50  71
ATOM     71  C34 O2N d         -13.284  45.567  -2.389  0.00  0.00     0.099 C 
ATOM     72  H30 O2N d         -13.418  46.530  -2.901  0.00  0.00     0.082 H 
ATOM     73  H31 O2N d         -13.001  44.797  -3.123  0.00  0.00     0.082 H 
BRANCH  71  74
ATOM     74  C26 O2N d         -14.618  45.172  -1.815  0.00  0.00    -0.087 C 
ATOM     75  C25 O2N d         -15.486  44.438  -2.534  0.00  0.00    -0.123 C 
ATOM     76  H15 O2N d         -16.448  44.159  -2.106  0.00  0.00     0.066 H 
ATOM     77  H16 O2N d         -15.227  44.122  -3.544  0.00  0.00     0.066 H 
ATOM     78  H17 O2N d         -14.883  45.484  -0.807  0.00  0.00     0.078 H 
ENDBRANCH  71  74
ENDBRANCH  50  71
ENDBRANCH  47  50
ENDBRANCH   6  47
TORSDOF 15
ENDMDL
MODEL 4
REMARK VINA RESULT:      -7.2      1.663      3.197
REMARK  15 active torsions:
REMARK  status: ('A' for Active; 'I' for Inactive)
REMARK    1  A    between atoms: C27_27  and  C15_15 
REMARK    2  A    between atoms: C16_16  and  C28_28 
REMARK    3  A    between atoms: C35_35  and  C17_17 
REMARK    4  A    between atoms: C35_35  and  C18_18 
REMARK    5  A    between atoms: C19_19  and  C32_32 
REMARK    6  A    between atoms: C33_33  and  C20_20 
REMARK    7  A    between atoms: C23_23  and  O43_43 
REMARK    8  A    between atoms: C24_24  and  O44_44 
REMARK    9  A    between atoms: C34_34  and  C26_26 
REMARK       I    between atoms: N36_36  and  C27_27 
REMARK   10  A    between atoms: O43_43  and  C30_30 
REMARK   11  A    between atoms: O44_44  and  C31_31 
REMARK   12  A    between atoms: C32_32  and  N37_37 
REMARK   13  A    between atoms: N37_37  and  C33_33 
REMARK   14  A    between atoms: N37_37  and  C34_34 
REMARK   15  A    between atoms: C35_35  and  N36_36 
ROOT
ATOM      1  C1  O2N d          -8.527  41.027   0.343  0.00  0.00    -0.082 A 
ATOM      2  C2  O2N d          -9.667  41.581  -0.196  0.00  0.00    -0.082 A 
ATOM      3  C3  O2N d          -7.561  41.895   0.838  0.00  0.00    -0.067 A 
ATOM      4  C4  O2N d          -9.869  42.952  -0.242  0.00  0.00    -0.074 A 
ATOM      5  C15 O2N d          -7.742  43.266   0.799  0.00  0.00     0.040 A 
ATOM      6  C19 O2N d          -8.905  43.808   0.255  0.00  0.00    -0.017 A 
ATOM      7  H1  O2N d          -8.388  39.953   0.379  0.00  0.00     0.083 H 
ATOM      8  H2  O2N d         -10.431  40.925  -0.596  0.00  0.00     0.083 H 
ATOM      9  H3  O2N d          -6.650  41.490   1.263  0.00  0.00     0.085 H 
ATOM     10  H4  O2N d         -10.783  43.352  -0.668  0.00  0.00     0.084 H 
ENDROOT
BRANCH   5  11
ATOM     11  C27 O2N d          -6.694  44.140   1.368  0.00  0.00     0.253 C 
ATOM     12  N36 O2N d          -6.882  45.521   1.300  0.00  0.00    -0.344 N 
ATOM     13  H33 O2N d          -7.696  45.875   0.840  0.00  0.00     0.163 HD
ATOM     14  O39 O2N d          -5.696  43.596   1.851  0.00  0.00    -0.268 OA
BRANCH  12  15
ATOM     15  C35 O2N d          -5.937  46.460   1.875  0.00  0.00     0.063 C 
ATOM     16  H32 O2N d          -5.019  45.913   2.134  0.00  0.00     0.088 H 
BRANCH  15  17
ATOM     17  C17 O2N d          -6.513  47.007   3.193  0.00  0.00    -0.031 A 
ATOM     18  C6  O2N d          -6.842  46.143   4.230  0.00  0.00    -0.072 A 
ATOM     19  C11 O2N d          -7.388  46.601   5.436  0.00  0.00    -0.050 A 
ATOM     20  H6  O2N d          -6.671  45.080   4.101  0.00  0.00     0.084 H 
ATOM     21  C23 O2N d          -7.549  48.003   5.581  0.00  0.00     0.068 A 
ATOM     22  H11 O2N d          -7.675  45.914   6.224  0.00  0.00     0.087 H 
ATOM     23  C12 O2N d          -7.270  48.892   4.556  0.00  0.00    -0.050 A 
ATOM     24  C7  O2N d          -6.747  48.361   3.367  0.00  0.00    -0.072 A 
ATOM     25  H12 O2N d          -7.448  49.956   4.668  0.00  0.00     0.087 H 
ATOM     26  H7  O2N d          -6.517  49.037   2.552  0.00  0.00     0.084 H 
BRANCH  21  27
ATOM     27  O43 O2N d          -8.091  48.455   6.796  0.00  0.00    -0.356 OA
BRANCH  27  28
ATOM     28  C30 O2N d          -9.256  49.307   6.798  0.00  0.00     0.010 C 
ATOM     29  H20 O2N d          -8.993  50.289   6.378  0.00  0.00     0.066 H 
ATOM     30  H21 O2N d          -9.615  49.435   7.830  0.00  0.00     0.066 H 
ATOM     31  H22 O2N d         -10.048  48.848   6.189  0.00  0.00     0.066 H 
ENDBRANCH  27  28
ENDBRANCH  21  27
ENDBRANCH  15  17
BRANCH  15  32
ATOM     32  C18 O2N d          -5.553  47.484   0.809  0.00  0.00    -0.031 A 
ATOM     33  C8  O2N d          -6.495  47.751  -0.177  0.00  0.00    -0.072 A 
ATOM     34  C13 O2N d          -6.209  48.706  -1.150  0.00  0.00    -0.050 A 
ATOM     35  H8  O2N d          -7.442  47.223  -0.188  0.00  0.00     0.084 H 
ATOM     36  C24 O2N d          -4.999  49.390  -1.172  0.00  0.00     0.068 A 
ATOM     37  H13 O2N d          -6.950  48.922  -1.911  0.00  0.00     0.087 H 
ATOM     38  C14 O2N d          -4.023  49.160  -0.220  0.00  0.00    -0.050 A 
ATOM     39  C9  O2N d          -4.369  48.211   0.772  0.00  0.00    -0.072 A 
ATOM     40  H14 O2N d          -3.066  49.668  -0.234  0.00  0.00     0.087 H 
ATOM     41  H9  O2N d          -3.653  48.038   1.567  0.00  0.00     0.084 H 
BRANCH  36  42
ATOM     42  O44 O2N d          -4.840  50.299  -2.217  0.00  0.00    -0.356 OA
BRANCH  42  43
ATOM     43  C31 O2N d          -5.913  51.239  -2.286  0.00  0.00     0.010 C 
ATOM     44  H23 O2N d          -6.850  50.749  -1.980  0.00  0.00     0.066 H 
ATOM     45  H24 O2N d          -6.011  51.608  -3.317  0.00  0.00     0.066 H 
ATOM     46  H25 O2N d          -5.703  52.084  -1.613  0.00  0.00     0.066 H 
ENDBRANCH  42  43
ENDBRANCH  36  42
ENDBRANCH  15  32
ENDBRANCH  12  15
ENDBRANCH   5  11
BRANCH   6  47
ATOM     47  C32 O2N d          -9.172  45.276   0.203  0.00  0.00     0.109 C 
ATOM     48  H26 O2N d          -9.233  45.574  -0.854  0.00  0.00     0.083 H 
ATOM     49  H27 O2N d          -8.327  45.793   0.682  0.00  0.00     0.083 H 
BRANCH  47  50
ATOM     50  N37 O2N d         -10.450  45.731   0.892  0.00  0.00    -0.060 N 
ATOM     51  H34 O2N d         -11.029  44.912   0.993  0.00  0.00     0.281 HD
BRANCH  50  52
ATOM     52  C33 O2N d         -11.320  46.786   0.131  0.00  0.00     0.109 C 
ATOM     53  H28 O2N d         -11.965  47.319   0.846  0.00  0.00     0.083 H 
ATOM     54  H29 O2N d         -10.665  47.507  -0.379  0.00  0.00     0.083 H 
BRANCH  52  55
ATOM     55  C20 O2N d         -12.182  46.064  -0.895  0.00  0.00    -0.013 A 
ATOM     56  C5  O2N d         -11.677  45.540  -2.118  0.00  0.00    -0.071 A 
ATOM     57  C10 O2N d         -12.507  44.851  -3.060  0.00  0.00    -0.047 A 
ATOM     58  H5  O2N d         -10.624  45.666  -2.345  0.00  0.00     0.084 H 
ATOM     59  C21 O2N d         -13.836  44.763  -2.723  0.00  0.00     0.106 A 
ATOM     60  H10 O2N d         -12.113  44.428  -3.977  0.00  0.00     0.087 H 
ATOM     61  C22 O2N d         -14.331  45.259  -1.530  0.00  0.00     0.122 A 
ATOM     62  O41 O2N d         -14.824  44.178  -3.454  0.00  0.00    -0.323 OA
ATOM     63  C16 O2N d         -13.549  45.924  -0.585  0.00  0.00     0.085 A 
ATOM     64  O42 O2N d         -15.711  45.053  -1.397  0.00  0.00    -0.322 OA
ATOM     65  C29 O2N d         -15.981  44.312  -2.605  0.00  0.00     0.115 A 
ATOM     66  H18 O2N d         -16.331  43.307  -2.328  0.00  0.00     0.118 H 
ATOM     67  H19 O2N d         -16.770  44.832  -3.167  0.00  0.00     0.118 H 
BRANCH  63  68
ATOM     68  C28 O2N d         -14.203  46.368   0.704  0.00  0.00     0.212 C 
ATOM     69  O38 O2N d         -14.401  47.623   0.794  0.00  0.00    -0.644 OA
ATOM     70  O40 O2N d         -14.674  45.593   1.596  0.00  0.00    -0.644 OA
ENDBRANCH  63  68
ENDBRANCH  52  55
ENDBRANCH  50  52
BRANCH  50  71
ATOM     71  C34 O2N d         -10.101  46.214   2.267  0.00  0.00     0.099 C 
ATOM     72  H30 O2N d         -10.779  45.715   2.974  0.00  0.00     0.082 H 
ATOM     73  H31 O2N d          -9.065  45.906   2.472  0.00  0.00     0.082 H 
BRANCH  71  74
ATOM     74  C26 O2N d         -10.190  47.694   2.523  0.00  0.00    -0.087 C 
ATOM     75  C25 O2N d         -10.893  48.170   3.567  0.00  0.00    -0.123 C 
ATOM     76  H15 O2N d         -10.948  49.244   3.741  0.00  0.00     0.066 H 
ATOM     77  H16 O2N d         -11.405  47.482   4.238  0.00  0.00     0.066 H 
ATOM     78  H17 O2N d          -9.680  48.387   1.856  0.00  0.00     0.078 H 
ENDBRANCH  71  74
ENDBRANCH  50  71
ENDBRANCH  47  50
ENDBRANCH   6  47
TORSDOF 15
ENDMDL
MODEL 5
REMARK VINA RESULT:      -6.9      2.310      3.709
REMARK  15 active torsions:
REMARK  status: ('A' for Active; 'I' for Inactive)
REMARK    1  A    between atoms: C27_27  and  C15_15 
REMARK    2  A    between atoms: C16_16  and  C28_28 
REMARK    3  A    between atoms: C35_35  and  C17_17 
REMARK    4  A    between atoms: C35_35  and  C18_18 
REMARK    5  A    between atoms: C19_19  and  C32_32 
REMARK    6  A    between atoms: C33_33  and  C20_20 
REMARK    7  A    between atoms: C23_23  and  O43_43 
REMARK    8  A    between atoms: C24_24  and  O44_44 
REMARK    9  A    between atoms: C34_34  and  C26_26 
REMARK       I    between atoms: N36_36  and  C27_27 
REMARK   10  A    between atoms: O43_43  and  C30_30 
REMARK   11  A    between atoms: O44_44  and  C31_31 
REMARK   12  A    between atoms: C32_32  and  N37_37 
REMARK   13  A    between atoms: N37_37  and  C33_33 
REMARK   14  A    between atoms: N37_37  and  C34_34 
REMARK   15  A    between atoms: C35_35  and  N36_36 
ROOT
ATOM      1  C1  O2N d         -10.391  41.097  -1.119  0.00  0.00    -0.082 A 
ATOM      2  C2  O2N d         -11.574  41.479  -1.711  0.00  0.00    -0.082 A 
ATOM      3  C3  O2N d          -9.406  42.064  -0.965  0.00  0.00    -0.067 A 
ATOM      4  C4  O2N d         -11.799  42.779  -2.135  0.00  0.00    -0.074 A 
ATOM      5  C15 O2N d          -9.609  43.367  -1.383  0.00  0.00     0.040 A 
ATOM      6  C19 O2N d         -10.816  43.736  -1.976  0.00  0.00    -0.017 A 
ATOM      7  H1  O2N d         -10.233  40.077  -0.786  0.00  0.00     0.083 H 
ATOM      8  H2  O2N d         -12.354  40.739  -1.850  0.00  0.00     0.083 H 
ATOM      9  H3  O2N d          -8.461  41.793  -0.508  0.00  0.00     0.085 H 
ATOM     10  H4  O2N d         -12.746  43.045  -2.591  0.00  0.00     0.084 H 
ENDROOT
BRANCH   5  11
ATOM     11  C27 O2N d          -8.537  44.362  -1.166  0.00  0.00     0.253 C 
ATOM     12  N36 O2N d          -8.803  45.439  -0.321  0.00  0.00    -0.344 N 
ATOM     13  H33 O2N d          -9.715  45.525   0.080  0.00  0.00     0.163 HD
ATOM     14  O39 O2N d          -7.471  44.194  -1.766  0.00  0.00    -0.268 OA
BRANCH  12  15
ATOM     15  C35 O2N d          -7.801  46.440  -0.004  0.00  0.00     0.063 C 
ATOM     16  H32 O2N d          -7.072  46.474  -0.828  0.00  0.00     0.088 H 
BRANCH  15  17
ATOM     17  C17 O2N d          -7.029  45.996   1.252  0.00  0.00    -0.031 A 
ATOM     18  C6  O2N d          -5.832  46.610   1.597  0.00  0.00    -0.072 A 
ATOM     19  C11 O2N d          -5.091  46.220   2.719  0.00  0.00    -0.050 A 
ATOM     20  H6  O2N d          -5.459  47.418   0.976  0.00  0.00     0.084 H 
ATOM     21  C23 O2N d          -5.639  45.194   3.531  0.00  0.00     0.068 A 
ATOM     22  H11 O2N d          -4.139  46.682   2.958  0.00  0.00     0.087 H 
ATOM     23  C12 O2N d          -6.810  44.531   3.199  0.00  0.00    -0.050 A 
ATOM     24  C7  O2N d          -7.488  44.959   2.047  0.00  0.00    -0.072 A 
ATOM     25  H12 O2N d          -7.186  43.714   3.804  0.00  0.00     0.087 H 
ATOM     26  H7  O2N d          -8.408  44.459   1.769  0.00  0.00     0.084 H 
BRANCH  21  27
ATOM     27  O43 O2N d          -4.894  44.813   4.659  0.00  0.00    -0.356 OA
BRANCH  27  28
ATOM     28  C30 O2N d          -5.211  43.591   5.359  0.00  0.00     0.010 C 
ATOM     29  H20 O2N d          -6.303  43.474   5.417  0.00  0.00     0.066 H 
ATOM     30  H21 O2N d          -4.792  43.631   6.375  0.00  0.00     0.066 H 
ATOM     31  H22 O2N d          -4.779  42.736   4.818  0.00  0.00     0.066 H 
ENDBRANCH  27  28
ENDBRANCH  21  27
ENDBRANCH  15  17
BRANCH  15  32
ATOM     32  C18 O2N d          -8.473  47.810   0.045  0.00  0.00    -0.031 A 
ATOM     33  C8  O2N d          -9.400  48.093  -0.951  0.00  0.00    -0.072 A 
ATOM     34  C13 O2N d         -10.070  49.314  -0.929  0.00  0.00    -0.050 A 
ATOM     35  H8  O2N d          -9.599  47.372  -1.735  0.00  0.00     0.084 H 
ATOM     36  C24 O2N d          -9.826  50.266   0.055  0.00  0.00     0.068 A 
ATOM     37  H13 O2N d         -10.802  49.528  -1.699  0.00  0.00     0.087 H 
ATOM     38  C14 O2N d          -8.911  50.041   1.066  0.00  0.00    -0.050 A 
ATOM     39  C9  O2N d          -8.281  48.773   1.029  0.00  0.00    -0.072 A 
ATOM     40  H14 O2N d          -8.692  50.779   1.829  0.00  0.00     0.087 H 
ATOM     41  H9  O2N d          -7.593  48.535   1.832  0.00  0.00     0.084 H 
BRANCH  36  42
ATOM     42  O44 O2N d         -10.551  51.451  -0.062  0.00  0.00    -0.356 OA
BRANCH  42  43
ATOM     43  C31 O2N d         -11.517  51.395  -1.112  0.00  0.00     0.010 C 
ATOM     44  H23 O2N d         -12.448  50.952  -0.730  0.00  0.00     0.066 H 
ATOM     45  H24 O2N d         -11.127  50.779  -1.935  0.00  0.00     0.066 H 
ATOM     46  H25 O2N d         -11.718  52.413  -1.479  0.00  0.00     0.066 H 
ENDBRANCH  42  43
ENDBRANCH  36  42
ENDBRANCH  15  32
ENDBRANCH  12  15
ENDBRANCH   5  11
BRANCH   6  47
ATOM     47  C32 O2N d         -11.108  45.129  -2.428  0.00  0.00     0.109 C 
ATOM     48  H26 O2N d         -11.086  45.141  -3.528  0.00  0.00     0.083 H 
ATOM     49  H27 O2N d         -10.316  45.786  -2.039  0.00  0.00     0.083 H 
BRANCH  47  50
ATOM     50  N37 O2N d         -12.447  45.693  -1.979  0.00  0.00    -0.060 N 
ATOM     51  H34 O2N d         -12.409  46.687  -2.141  0.00  0.00     0.281 HD
BRANCH  50  52
ATOM     52  C33 O2N d         -12.812  45.513  -0.467  0.00  0.00     0.109 C 
ATOM     53  H28 O2N d         -13.737  44.924  -0.377  0.00  0.00     0.083 H 
ATOM     54  H29 O2N d         -11.993  44.992   0.051  0.00  0.00     0.083 H 
BRANCH  52  55
ATOM     55  C20 O2N d         -13.019  46.887   0.155  0.00  0.00    -0.013 A 
ATOM     56  C5  O2N d         -13.973  47.830  -0.318  0.00  0.00    -0.071 A 
ATOM     57  C10 O2N d         -14.158  49.110   0.295  0.00  0.00    -0.047 A 
ATOM     58  H5  O2N d         -14.583  47.569  -1.176  0.00  0.00     0.084 H 
ATOM     59  C21 O2N d         -13.323  49.386   1.351  0.00  0.00     0.106 A 
ATOM     60  H10 O2N d         -14.906  49.815  -0.050  0.00  0.00     0.087 H 
ATOM     61  C22 O2N d         -12.402  48.468   1.825  0.00  0.00     0.122 A 
ATOM     62  O41 O2N d         -13.289  50.532   2.085  0.00  0.00    -0.323 OA
ATOM     63  C16 O2N d         -12.205  47.208   1.259  0.00  0.00     0.085 A 
ATOM     64  O42 O2N d         -11.666  48.962   2.910  0.00  0.00    -0.322 OA
ATOM     65  C29 O2N d         -12.294  50.248   3.088  0.00  0.00     0.115 A 
ATOM     66  H18 O2N d         -12.777  50.269   4.076  0.00  0.00     0.118 H 
ATOM     67  H19 O2N d         -11.518  51.027   3.043  0.00  0.00     0.118 H 
BRANCH  63  68
ATOM     68  C28 O2N d         -11.204  46.279   1.909  0.00  0.00     0.212 C 
ATOM     69  O38 O2N d         -11.223  45.085   1.465  0.00  0.00    -0.644 OA
ATOM     70  O40 O2N d         -10.295  46.631   2.727  0.00  0.00    -0.644 OA
ENDBRANCH  63  68
ENDBRANCH  52  55
ENDBRANCH  50  52
BRANCH  50  71
ATOM     71  C34 O2N d         -13.519  45.128  -2.860  0.00  0.00     0.099 C 
ATOM     72  H30 O2N d         -13.642  45.815  -3.710  0.00  0.00     0.082 H 
ATOM     73  H31 O2N d         -13.166  44.152  -3.226  0.00  0.00     0.082 H 
BRANCH  71  74
ATOM     74  C26 O2N d         -14.877  44.916  -2.250  0.00  0.00    -0.087 C 
ATOM     75  C25 O2N d         -15.698  43.958  -2.714  0.00  0.00    -0.123 C 
ATOM     76  H15 O2N d         -16.679  43.815  -2.262  0.00  0.00     0.066 H 
ATOM     77  H16 O2N d         -15.383  43.324  -3.542  0.00  0.00     0.066 H 
ATOM     78  H17 O2N d         -15.199  45.546  -1.422  0.00  0.00     0.078 H 
ENDBRANCH  71  74
ENDBRANCH  50  71
ENDBRANCH  47  50
ENDBRANCH   6  47
TORSDOF 15
ENDMDL
MODEL 6
REMARK VINA RESULT:      -6.2      1.922      6.793
REMARK  15 active torsions:
REMARK  status: ('A' for Active; 'I' for Inactive)
REMARK    1  A    between atoms: C27_27  and  C15_15 
REMARK    2  A    between atoms: C16_16  and  C28_28 
REMARK    3  A    between atoms: C35_35  and  C17_17 
REMARK    4  A    between atoms: C35_35  and  C18_18 
REMARK    5  A    between atoms: C19_19  and  C32_32 
REMARK    6  A    between atoms: C33_33  and  C20_20 
REMARK    7  A    between atoms: C23_23  and  O43_43 
REMARK    8  A    between atoms: C24_24  and  O44_44 
REMARK    9  A    between atoms: C34_34  and  C26_26 
REMARK       I    between atoms: N36_36  and  C27_27 
REMARK   10  A    between atoms: O43_43  and  C30_30 
REMARK   11  A    between atoms: O44_44  and  C31_31 
REMARK   12  A    between atoms: C32_32  and  N37_37 
REMARK   13  A    between atoms: N37_37  and  C33_33 
REMARK   14  A    between atoms: N37_37  and  C34_34 
REMARK   15  A    between atoms: C35_35  and  N36_36 
ROOT
ATOM      1  C1  O2N d         -13.443  44.277  -2.141  0.00  0.00    -0.082 A 
ATOM      2  C2  O2N d         -12.594  43.213  -2.349  0.00  0.00    -0.082 A 
ATOM      3  C3  O2N d         -12.902  45.436  -1.599  0.00  0.00    -0.067 A 
ATOM      4  C4  O2N d         -11.243  43.279  -2.046  0.00  0.00    -0.074 A 
ATOM      5  C15 O2N d         -11.557  45.522  -1.287  0.00  0.00     0.040 A 
ATOM      6  C19 O2N d         -10.712  44.436  -1.510  0.00  0.00    -0.017 A 
ATOM      7  H1  O2N d         -14.496  44.212  -2.391  0.00  0.00     0.083 H 
ATOM      8  H2  O2N d         -12.995  42.295  -2.762  0.00  0.00     0.083 H 
ATOM      9  H3  O2N d         -13.546  46.290  -1.418  0.00  0.00     0.085 H 
ATOM     10  H4  O2N d         -10.604  42.423  -2.230  0.00  0.00     0.084 H 
ENDROOT
BRANCH   5  11
ATOM     11  C27 O2N d         -11.031  46.792  -0.742  0.00  0.00     0.253 C 
ATOM     12  N36 O2N d         -10.798  47.842  -1.631  0.00  0.00    -0.344 N 
ATOM     13  H33 O2N d         -10.959  47.693  -2.606  0.00  0.00     0.163 HD
ATOM     14  O39 O2N d         -10.804  46.842   0.470  0.00  0.00    -0.268 OA
BRANCH  12  15
ATOM     15  C35 O2N d         -10.331  49.142  -1.187  0.00  0.00     0.063 C 
ATOM     16  H32 O2N d         -10.662  49.896  -1.916  0.00  0.00     0.088 H 
BRANCH  15  17
ATOM     17  C17 O2N d          -8.792  49.154  -1.205  0.00  0.00    -0.031 A 
ATOM     18  C6  O2N d          -8.077  47.977  -1.023  0.00  0.00    -0.072 A 
ATOM     19  C11 O2N d          -6.676  47.951  -1.012  0.00  0.00    -0.050 A 
ATOM     20  H6  O2N d          -8.620  47.048  -0.886  0.00  0.00     0.084 H 
ATOM     21  C23 O2N d          -6.006  49.179  -1.244  0.00  0.00     0.068 A 
ATOM     22  H11 O2N d          -6.129  47.032  -0.833  0.00  0.00     0.087 H 
ATOM     23  C12 O2N d          -6.683  50.379  -1.389  0.00  0.00    -0.050 A 
ATOM     24  C7  O2N d          -8.085  50.333  -1.367  0.00  0.00    -0.072 A 
ATOM     25  H12 O2N d          -6.151  51.315  -1.515  0.00  0.00     0.087 H 
ATOM     26  H7  O2N d          -8.637  51.259  -1.483  0.00  0.00     0.084 H 
BRANCH  21  27
ATOM     27  O43 O2N d          -4.601  49.144  -1.238  0.00  0.00    -0.356 OA
BRANCH  27  28
ATOM     28  C30 O2N d          -3.886  48.946   0.000  0.00  0.00     0.010 C 
ATOM     29  H20 O2N d          -3.752  49.914   0.504  0.00  0.00     0.066 H 
ATOM     30  H21 O2N d          -2.902  48.504  -0.212  0.00  0.00     0.066 H 
ATOM     31  H22 O2N d          -4.459  48.270   0.651  0.00  0.00     0.066 H 
ENDBRANCH  27  28
ENDBRANCH  21  27
ENDBRANCH  15  17
BRANCH  15  32
ATOM     32  C18 O2N d         -11.011  49.482   0.137  0.00  0.00    -0.031 A 
ATOM     33  C8  O2N d         -10.183  49.717   1.229  0.00  0.00    -0.072 A 
ATOM     34  C13 O2N d         -10.753  50.069   2.450  0.00  0.00    -0.050 A 
ATOM     35  H8  O2N d          -9.108  49.628   1.130  0.00  0.00     0.084 H 
ATOM     36  C24 O2N d         -12.130  50.177   2.613  0.00  0.00     0.068 A 
ATOM     37  H13 O2N d         -10.105  50.264   3.297  0.00  0.00     0.087 H 
ATOM     38  C14 O2N d         -13.000  49.948   1.564  0.00  0.00    -0.050 A 
ATOM     39  C9  O2N d         -12.380  49.631   0.332  0.00  0.00    -0.072 A 
ATOM     40  H14 O2N d         -14.077  50.007   1.677  0.00  0.00     0.087 H 
ATOM     41  H9  O2N d         -13.023  49.494  -0.530  0.00  0.00     0.084 H 
BRANCH  36  42
ATOM     42  O44 O2N d         -12.559  50.513   3.896  0.00  0.00    -0.356 OA
BRANCH  42  43
ATOM     43  C31 O2N d         -12.044  49.628   4.890  0.00  0.00     0.010 C 
ATOM     44  H23 O2N d         -11.895  48.630   4.451  0.00  0.00     0.066 H 
ATOM     45  H24 O2N d         -12.758  49.558   5.724  0.00  0.00     0.066 H 
ATOM     46  H25 O2N d         -11.083  50.013   5.262  0.00  0.00     0.066 H 
ENDBRANCH  42  43
ENDBRANCH  36  42
ENDBRANCH  15  32
ENDBRANCH  12  15
ENDBRANCH   5  11
BRANCH   6  47
ATOM     47  C32 O2N d          -9.248  44.471  -1.218  0.00  0.00     0.109 C 
ATOM     48  H26 O2N d          -8.839  45.401  -1.640  0.00  0.00     0.083 H 
ATOM     49  H27 O2N d          -8.782  43.607  -1.714  0.00  0.00     0.083 H 
BRANCH  47  50
ATOM     50  N37 O2N d          -8.877  44.421   0.257  0.00  0.00    -0.060 N 
ATOM     51  H34 O2N d          -9.460  45.098   0.723  0.00  0.00     0.281 HD
BRANCH  50  52
ATOM     52  C33 O2N d          -7.401  44.795   0.622  0.00  0.00     0.109 C 
ATOM     53  H28 O2N d          -6.797  43.878   0.704  0.00  0.00     0.083 H 
ATOM     54  H29 O2N d          -6.980  45.442  -0.162  0.00  0.00     0.083 H 
BRANCH  52  55
ATOM     55  C20 O2N d          -7.395  45.532   1.953  0.00  0.00    -0.013 A 
ATOM     56  C5  O2N d          -8.243  46.637   2.244  0.00  0.00    -0.071 A 
ATOM     57  C10 O2N d          -8.229  47.305   3.510  0.00  0.00    -0.047 A 
ATOM     58  H5  O2N d          -8.926  46.987   1.478  0.00  0.00     0.084 H 
ATOM     59  C21 O2N d          -7.311  46.831   4.417  0.00  0.00     0.106 A 
ATOM     60  H10 O2N d          -8.896  48.128   3.738  0.00  0.00     0.087 H 
ATOM     61  C22 O2N d          -6.493  45.749   4.146  0.00  0.00     0.122 A 
ATOM     62  O41 O2N d          -7.090  47.303   5.675  0.00  0.00    -0.323 OA
ATOM     63  C16 O2N d          -6.490  45.068   2.927  0.00  0.00     0.085 A 
ATOM     64  O42 O2N d          -5.643  45.439   5.215  0.00  0.00    -0.322 OA
ATOM     65  C29 O2N d          -6.089  46.404   6.190  0.00  0.00     0.115 A 
ATOM     66  H18 O2N d          -6.513  45.864   7.050  0.00  0.00     0.118 H 
ATOM     67  H19 O2N d          -5.223  46.996   6.521  0.00  0.00     0.118 H 
BRANCH  63  68
ATOM     68  C28 O2N d          -5.586  43.866   2.779  0.00  0.00     0.212 C 
ATOM     69  O38 O2N d          -6.139  42.750   3.043  0.00  0.00    -0.644 OA
ATOM     70  O40 O2N d          -4.409  43.884   2.294  0.00  0.00    -0.644 OA
ENDBRANCH  63  68
ENDBRANCH  52  55
ENDBRANCH  50  52
BRANCH  50  71
ATOM     71  C34 O2N d          -9.235  43.067   0.790  0.00  0.00     0.099 C 
ATOM     72  H30 O2N d          -9.198  43.125   1.888  0.00  0.00     0.082 H 
ATOM     73  H31 O2N d         -10.265  42.848   0.470  0.00  0.00     0.082 H 
BRANCH  71  74
ATOM     74  C26 O2N d          -8.375  41.908   0.369  0.00  0.00    -0.087 C 
ATOM     75  C25 O2N d          -8.924  40.802  -0.166  0.00  0.00    -0.123 C 
ATOM     76  H15 O2N d          -8.289  39.970  -0.467  0.00  0.00     0.066 H 
ATOM     77  H16 O2N d         -10.003  40.740  -0.299  0.00  0.00     0.066 H 
ATOM     78  H17 O2N d          -7.296  41.963   0.499  0.00  0.00     0.078 H 
ENDBRANCH  71  74
ENDBRANCH  50  71
ENDBRANCH  47  50
ENDBRANCH   6  47
TORSDOF 15
ENDMDL
MODEL 7
REMARK VINA RESULT:      -6.0      2.359      7.676
REMARK  15 active torsions:
REMARK  status: ('A' for Active; 'I' for Inactive)
REMARK    1  A    between atoms: C27_27  and  C15_15 
REMARK    2  A    between atoms: C16_16  and  C28_28 
REMARK    3  A    between atoms: C35_35  and  C17_17 
REMARK    4  A    between atoms: C35_35  and  C18_18 
REMARK    5  A    between atoms: C19_19  and  C32_32 
REMARK    6  A    between atoms: C33_33  and  C20_20 
REMARK    7  A    between atoms: C23_23  and  O43_43 
REMARK    8  A    between atoms: C24_24  and  O44_44 
REMARK    9  A    between atoms: C34_34  and  C26_26 
REMARK       I    between atoms: N36_36  and  C27_27 
REMARK   10  A    between atoms: O43_43  and  C30_30 
REMARK   11  A    between atoms: O44_44  and  C31_31 
REMARK   12  A    between atoms: C32_32  and  N37_37 
REMARK   13  A    between atoms: N37_37  and  C33_33 
REMARK   14  A    between atoms: N37_37  and  C34_34 
REMARK   15  A    between atoms: C35_35  and  N36_36 
ROOT
ATOM      1  C1  O2N d         -12.199  49.499   5.867  0.00  0.00    -0.082 A 
ATOM      2  C2  O2N d         -10.936  49.701   6.378  0.00  0.00    -0.082 A 
ATOM      3  C3  O2N d         -12.352  49.555   4.487  0.00  0.00    -0.067 A 
ATOM      4  C4  O2N d          -9.842  49.942   5.562  0.00  0.00    -0.074 A 
ATOM      5  C15 O2N d         -11.273  49.798   3.656  0.00  0.00     0.040 A 
ATOM      6  C19 O2N d         -10.001  49.994   4.191  0.00  0.00    -0.017 A 
ATOM      7  H1  O2N d         -13.044  49.304   6.517  0.00  0.00     0.083 H 
ATOM      8  H2  O2N d         -10.794  49.671   7.452  0.00  0.00     0.083 H 
ATOM      9  H3  O2N d         -13.335  49.407   4.054  0.00  0.00     0.085 H 
ATOM     10  H4  O2N d          -8.861  50.090   6.001  0.00  0.00     0.084 H 
ENDROOT
BRANCH   5  11
ATOM     11  C27 O2N d         -11.490  49.816   2.192  0.00  0.00     0.253 C 
ATOM     12  N36 O2N d         -11.131  48.683   1.462  0.00  0.00    -0.344 N 
ATOM     13  H33 O2N d         -10.708  47.913   1.940  0.00  0.00     0.163 HD
ATOM     14  O39 O2N d         -11.955  50.846   1.697  0.00  0.00    -0.268 OA
BRANCH  12  15
ATOM     15  C35 O2N d         -11.351  48.584   0.031  0.00  0.00     0.063 C 
ATOM     16  H32 O2N d         -12.276  49.126  -0.216  0.00  0.00     0.088 H 
BRANCH  15  17
ATOM     17  C17 O2N d         -11.590  47.109  -0.338  0.00  0.00    -0.031 A 
ATOM     18  C6  O2N d         -11.847  46.168   0.652  0.00  0.00    -0.072 A 
ATOM     19  C11 O2N d         -12.049  44.814   0.357  0.00  0.00    -0.050 A 
ATOM     20  H6  O2N d         -11.893  46.493   1.685  0.00  0.00     0.084 H 
ATOM     21  C23 O2N d         -12.030  44.440  -1.011  0.00  0.00     0.068 A 
ATOM     22  H11 O2N d         -12.213  44.083   1.141  0.00  0.00     0.087 H 
ATOM     23  C12 O2N d         -11.737  45.341  -2.022  0.00  0.00    -0.050 A 
ATOM     24  C7  O2N d         -11.523  46.677  -1.652  0.00  0.00    -0.072 A 
ATOM     25  H12 O2N d         -11.676  45.026  -3.058  0.00  0.00     0.087 H 
ATOM     26  H7  O2N d         -11.297  47.401  -2.426  0.00  0.00     0.084 H 
BRANCH  21  27
ATOM     27  O43 O2N d         -12.240  43.081  -1.298  0.00  0.00    -0.356 OA
BRANCH  27  28
ATOM     28  C30 O2N d         -11.144  42.257  -1.749  0.00  0.00     0.010 C 
ATOM     29  H20 O2N d         -10.641  42.746  -2.596  0.00  0.00     0.066 H 
ATOM     30  H21 O2N d         -11.528  41.278  -2.068  0.00  0.00     0.066 H 
ATOM     31  H22 O2N d         -10.426  42.119  -0.927  0.00  0.00     0.066 H 
ENDBRANCH  27  28
ENDBRANCH  21  27
ENDBRANCH  15  17
BRANCH  15  32
ATOM     32  C18 O2N d         -10.213  49.302  -0.691  0.00  0.00    -0.031 A 
ATOM     33  C8  O2N d          -8.918  48.976  -0.308  0.00  0.00    -0.072 A 
ATOM     34  C13 O2N d          -7.844  49.575  -0.963  0.00  0.00    -0.050 A 
ATOM     35  H8  O2N d          -8.745  48.265   0.491  0.00  0.00     0.084 H 
ATOM     36  C24 O2N d          -8.032  50.504  -1.981  0.00  0.00     0.068 A 
ATOM     37  H13 O2N d          -6.834  49.311  -0.671  0.00  0.00     0.087 H 
ATOM     38  C14 O2N d          -9.298  50.870  -2.399  0.00  0.00    -0.050 A 
ATOM     39  C9  O2N d         -10.360  50.210  -1.735  0.00  0.00    -0.072 A 
ATOM     40  H14 O2N d          -9.464  51.607  -3.176  0.00  0.00     0.087 H 
ATOM     41  H9  O2N d         -11.368  50.429  -2.066  0.00  0.00     0.084 H 
BRANCH  36  42
ATOM     42  O44 O2N d          -6.867  51.039  -2.530  0.00  0.00    -0.356 OA
BRANCH  42  43
ATOM     43  C31 O2N d          -5.768  50.992  -1.620  0.00  0.00     0.010 C 
ATOM     44  H23 O2N d          -4.837  50.809  -2.179  0.00  0.00     0.066 H 
ATOM     45  H24 O2N d          -5.926  50.179  -0.896  0.00  0.00     0.066 H 
ATOM     46  H25 O2N d          -5.693  51.950  -1.086  0.00  0.00     0.066 H 
ENDBRANCH  42  43
ENDBRANCH  36  42
ENDBRANCH  15  32
ENDBRANCH  12  15
ENDBRANCH   5  11
BRANCH   6  47
ATOM     47  C32 O2N d          -8.792  50.236   3.349  0.00  0.00     0.109 C 
ATOM     48  H26 O2N d          -8.222  51.062   3.802  0.00  0.00     0.083 H 
ATOM     49  H27 O2N d          -9.131  50.532   2.345  0.00  0.00     0.083 H 
BRANCH  47  50
ATOM     50  N37 O2N d          -7.856  49.047   3.196  0.00  0.00    -0.060 N 
ATOM     51  H34 O2N d          -7.837  48.820   2.214  0.00  0.00     0.281 HD
BRANCH  50  52
ATOM     52  C33 O2N d          -8.267  47.731   3.938  0.00  0.00     0.109 C 
ATOM     53  H28 O2N d          -7.749  47.677   4.908  0.00  0.00     0.083 H 
ATOM     54  H29 O2N d          -9.354  47.724   4.102  0.00  0.00     0.083 H 
BRANCH  52  55
ATOM     55  C20 O2N d          -7.871  46.539   3.079  0.00  0.00    -0.013 A 
ATOM     56  C5  O2N d          -8.446  46.258   1.809  0.00  0.00    -0.071 A 
ATOM     57  C10 O2N d          -8.046  45.138   1.013  0.00  0.00    -0.047 A 
ATOM     58  H5  O2N d          -9.218  46.919   1.428  0.00  0.00     0.084 H 
ATOM     59  C21 O2N d          -7.092  44.324   1.577  0.00  0.00     0.106 A 
ATOM     60  H10 O2N d          -8.466  44.943   0.034  0.00  0.00     0.087 H 
ATOM     61  C22 O2N d          -6.519  44.598   2.806  0.00  0.00     0.122 A 
ATOM     62  O41 O2N d          -6.561  43.194   1.034  0.00  0.00    -0.323 OA
ATOM     63  C16 O2N d          -6.877  45.688   3.601  0.00  0.00     0.085 A 
ATOM     64  O42 O2N d          -5.569  43.638   3.179  0.00  0.00    -0.322 OA
ATOM     65  C29 O2N d          -5.576  42.796   2.007  0.00  0.00     0.115 A 
ATOM     66  H18 O2N d          -4.582  42.841   1.537  0.00  0.00     0.118 H 
ATOM     67  H19 O2N d          -5.787  41.763   2.319  0.00  0.00     0.118 H 
BRANCH  63  68
ATOM     68  C28 O2N d          -6.133  45.904   4.899  0.00  0.00     0.212 C 
ATOM     69  O38 O2N d          -6.601  45.261   5.893  0.00  0.00    -0.644 OA
ATOM     70  O40 O2N d          -5.040  46.545   5.024  0.00  0.00    -0.644 OA
ENDBRANCH  63  68
ENDBRANCH  52  55
ENDBRANCH  50  52
BRANCH  50  71
ATOM     71  C34 O2N d          -6.476  49.477   3.590  0.00  0.00     0.099 C 
ATOM     72  H30 O2N d          -6.549  50.502   3.981  0.00  0.00     0.082 H 
ATOM     73  H31 O2N d          -6.135  48.803   4.389  0.00  0.00     0.082 H 
BRANCH  71  74
ATOM     74  C26 O2N d          -5.419  49.477   2.519  0.00  0.00    -0.087 C 
ATOM     75  C25 O2N d          -5.405  48.529   1.566  0.00  0.00    -0.123 C 
ATOM     76  H15 O2N d          -4.635  48.541   0.797  0.00  0.00     0.066 H 
ATOM     77  H16 O2N d          -6.166  47.749   1.563  0.00  0.00     0.066 H 
ATOM     78  H17 O2N d          -4.656  50.254   2.516  0.00  0.00     0.078 H 
ENDBRANCH  71  74
ENDBRANCH  50  71
ENDBRANCH  47  50
ENDBRANCH   6  47
TORSDOF 15
ENDMDL
MODEL 8
REMARK VINA RESULT:      -6.0      1.397      2.208
REMARK  15 active torsions:
REMARK  status: ('A' for Active; 'I' for Inactive)
REMARK    1  A    between atoms: C27_27  and  C15_15 
REMARK    2  A    between atoms: C16_16  and  C28_28 
REMARK    3  A    between atoms: C35_35  and  C17_17 
REMARK    4  A    between atoms: C35_35  and  C18_18 
REMARK    5  A    between atoms: C19_19  and  C32_32 
REMARK    6  A    between atoms: C33_33  and  C20_20 
REMARK    7  A    between atoms: C23_23  and  O43_43 
REMARK    8  A    between atoms: C24_24  and  O44_44 
REMARK    9  A    between atoms: C34_34  and  C26_26 
REMARK       I    between atoms: N36_36  and  C27_27 
REMARK   10  A    between atoms: O43_43  and  C30_30 
REMARK   11  A    between atoms: O44_44  and  C31_31 
REMARK   12  A    between atoms: C32_32  and  N37_37 
REMARK   13  A    between atoms: N37_37  and  C33_33 
REMARK   14  A    between atoms: N37_37  and  C34_34 
REMARK   15  A    between atoms: C35_35  and  N36_36 
ROOT
ATOM      1  C1  O2N d          -8.290  40.660   0.116  0.00  0.00    -0.082 A 
ATOM      2  C2  O2N d          -9.529  40.943  -0.413  0.00  0.00    -0.082 A 
ATOM      3  C3  O2N d          -7.592  41.701   0.716  0.00  0.00    -0.067 A 
ATOM      4  C4  O2N d         -10.084  42.211  -0.350  0.00  0.00    -0.074 A 
ATOM      5  C15 O2N d          -8.127  42.975   0.787  0.00  0.00     0.040 A 
ATOM      6  C19 O2N d          -9.386  43.241   0.250  0.00  0.00    -0.017 A 
ATOM      7  H1  O2N d          -7.873  39.660   0.066  0.00  0.00     0.083 H 
ATOM      8  H2  O2N d         -10.088  40.149  -0.894  0.00  0.00     0.083 H 
ATOM      9  H3  O2N d          -6.611  41.511   1.137  0.00  0.00     0.085 H 
ATOM     10  H4  O2N d         -11.066  42.395  -0.772  0.00  0.00     0.084 H 
ENDROOT
BRANCH   5  11
ATOM     11  C27 O2N d          -7.353  44.037   1.464  0.00  0.00     0.253 C 
ATOM     12  N36 O2N d          -7.792  45.355   1.333  0.00  0.00    -0.344 N 
ATOM     13  H33 O2N d          -8.590  45.543   0.760  0.00  0.00     0.163 HD
ATOM     14  O39 O2N d          -6.344  43.698   2.090  0.00  0.00    -0.268 OA
BRANCH  12  15
ATOM     15  C35 O2N d          -7.131  46.461   2.000  0.00  0.00     0.063 C 
ATOM     16  H32 O2N d          -6.276  46.063   2.567  0.00  0.00     0.088 H 
BRANCH  15  17
ATOM     17  C17 O2N d          -8.097  47.075   3.029  0.00  0.00    -0.031 A 
ATOM     18  C6  O2N d          -7.735  47.167   4.368  0.00  0.00    -0.072 A 
ATOM     19  C11 O2N d          -8.595  47.699   5.336  0.00  0.00    -0.050 A 
ATOM     20  H6  O2N d          -6.756  46.815   4.672  0.00  0.00     0.084 H 
ATOM     21  C23 O2N d          -9.847  48.194   4.888  0.00  0.00     0.068 A 
ATOM     22  H11 O2N d          -8.316  47.732   6.384  0.00  0.00     0.087 H 
ATOM     23  C12 O2N d         -10.259  48.084   3.569  0.00  0.00    -0.050 A 
ATOM     24  C7  O2N d          -9.355  47.518   2.657  0.00  0.00    -0.072 A 
ATOM     25  H12 O2N d         -11.240  48.421   3.256  0.00  0.00     0.087 H 
ATOM     26  H7  O2N d          -9.653  47.425   1.620  0.00  0.00     0.084 H 
BRANCH  21  27
ATOM     27  O43 O2N d         -10.701  48.733   5.864  0.00  0.00    -0.356 OA
BRANCH  27  28
ATOM     28  C30 O2N d         -11.959  49.326   5.479  0.00  0.00     0.010 C 
ATOM     29  H20 O2N d         -12.378  48.776   4.624  0.00  0.00     0.066 H 
ATOM     30  H21 O2N d         -11.798  50.376   5.196  0.00  0.00     0.066 H 
ATOM     31  H22 O2N d         -12.661  49.279   6.325  0.00  0.00     0.066 H 
ENDBRANCH  27  28
ENDBRANCH  21  27
ENDBRANCH  15  17
BRANCH  15  32
ATOM     32  C18 O2N d          -6.558  47.400   0.942  0.00  0.00    -0.031 A 
ATOM     33  C8  O2N d          -6.892  47.138  -0.381  0.00  0.00    -0.072 A 
ATOM     34  C13 O2N d          -6.426  47.989  -1.381  0.00  0.00    -0.050 A 
ATOM     35  H8  O2N d          -7.507  46.282  -0.632  0.00  0.00     0.084 H 
ATOM     36  C24 O2N d          -5.622  49.087  -1.094  0.00  0.00     0.068 A 
ATOM     37  H13 O2N d          -6.698  47.790  -2.412  0.00  0.00     0.087 H 
ATOM     38  C14 O2N d          -5.254  49.391   0.203  0.00  0.00    -0.050 A 
ATOM     39  C9  O2N d          -5.780  48.525   1.192  0.00  0.00    -0.072 A 
ATOM     40  H14 O2N d          -4.611  50.230   0.444  0.00  0.00     0.087 H 
ATOM     41  H9  O2N d          -5.557  48.758   2.227  0.00  0.00     0.084 H 
BRANCH  36  42
ATOM     42  O44 O2N d          -5.211  49.836  -2.196  0.00  0.00    -0.356 OA
BRANCH  42  43
ATOM     43  C31 O2N d          -5.891  51.087  -2.286  0.00  0.00     0.010 C 
ATOM     44  H23 O2N d          -5.997  51.520  -1.280  0.00  0.00     0.066 H 
ATOM     45  H24 O2N d          -6.888  50.931  -2.725  0.00  0.00     0.066 H 
ATOM     46  H25 O2N d          -5.314  51.773  -2.923  0.00  0.00     0.066 H 
ENDBRANCH  42  43
ENDBRANCH  36  42
ENDBRANCH  15  32
ENDBRANCH  12  15
ENDBRANCH   5  11
BRANCH   6  47
ATOM     47  C32 O2N d         -10.030  44.587   0.314  0.00  0.00     0.109 C 
ATOM     48  H26 O2N d          -9.282  45.304   0.683  0.00  0.00     0.083 H 
ATOM     49  H27 O2N d         -10.866  44.530   1.026  0.00  0.00     0.083 H 
BRANCH  47  50
ATOM     50  N37 O2N d         -10.572  45.112  -1.007  0.00  0.00    -0.060 N 
ATOM     51  H34 O2N d         -10.110  44.592  -1.735  0.00  0.00     0.281 HD
BRANCH  50  52
ATOM     52  C33 O2N d         -10.310  46.624  -1.320  0.00  0.00     0.109 C 
ATOM     53  H28 O2N d          -9.261  46.870  -1.100  0.00  0.00     0.083 H 
ATOM     54  H29 O2N d         -10.518  46.822  -2.382  0.00  0.00     0.083 H 
BRANCH  52  55
ATOM     55  C20 O2N d         -11.228  47.473  -0.452  0.00  0.00    -0.013 A 
ATOM     56  C5  O2N d         -12.281  46.935   0.340  0.00  0.00    -0.071 A 
ATOM     57  C10 O2N d         -13.121  47.755   1.160  0.00  0.00    -0.047 A 
ATOM     58  H5  O2N d         -12.454  45.865   0.321  0.00  0.00     0.084 H 
ATOM     59  C21 O2N d         -12.868  49.104   1.102  0.00  0.00     0.106 A 
ATOM     60  H10 O2N d         -13.903  47.339   1.784  0.00  0.00     0.087 H 
ATOM     61  C22 O2N d         -11.838  49.632   0.344  0.00  0.00     0.122 A 
ATOM     62  O41 O2N d         -13.534  50.087   1.769  0.00  0.00    -0.323 OA
ATOM     63  C16 O2N d         -10.993  48.861  -0.456  0.00  0.00     0.085 A 
ATOM     64  O42 O2N d         -11.764  51.028   0.441  0.00  0.00    -0.322 OA
ATOM     65  C29 O2N d         -12.813  51.279   1.399  0.00  0.00     0.115 A 
ATOM     66  H18 O2N d         -12.365  51.712   2.304  0.00  0.00     0.118 H 
ATOM     67  H19 O2N d         -13.523  51.996   0.961  0.00  0.00     0.118 H 
BRANCH  63  68
ATOM     68  C28 O2N d          -9.870  49.557  -1.191  0.00  0.00     0.212 C 
ATOM     69  O38 O2N d         -10.078  49.733  -2.435  0.00  0.00    -0.644 OA
ATOM     70  O40 O2N d          -8.844  50.077  -0.647  0.00  0.00    -0.644 OA
ENDBRANCH  63  68
ENDBRANCH  52  55
ENDBRANCH  50  52
BRANCH  50  71
ATOM     71  C34 O2N d         -12.035  44.795  -1.078  0.00  0.00     0.099 C 
ATOM     72  H30 O2N d         -12.234  43.993  -0.353  0.00  0.00     0.082 H 
ATOM     73  H31 O2N d         -12.584  45.701  -0.782  0.00  0.00     0.082 H 
BRANCH  71  74
ATOM     74  C26 O2N d         -12.582  44.349  -2.406  0.00  0.00    -0.087 C 
ATOM     75  C25 O2N d         -13.730  44.862  -2.884  0.00  0.00    -0.123 C 
ATOM     76  H15 O2N d         -14.114  44.530  -3.848  0.00  0.00     0.066 H 
ATOM     77  H16 O2N d         -14.275  45.609  -2.308  0.00  0.00     0.066 H 
ATOM     78  H17 O2N d         -12.043  43.603  -2.987  0.00  0.00     0.078 H 
ENDBRANCH  71  74
ENDBRANCH  50  71
ENDBRANCH  47  50
ENDBRANCH   6  47
TORSDOF 15
ENDMDL
MODEL 9
REMARK VINA RESULT:      -6.0      2.126      6.178
REMARK  15 active torsions:
REMARK  status: ('A' for Active; 'I' for Inactive)
REMARK    1  A    between atoms: C27_27  and  C15_15 
REMARK    2  A    between atoms: C16_16  and  C28_28 
REMARK    3  A    between atoms: C35_35  and  C17_17 
REMARK    4  A    between atoms: C35_35  and  C18_18 
REMARK    5  A    between atoms: C19_19  and  C32_32 
REMARK    6  A    between atoms: C33_33  and  C20_20 
REMARK    7  A    between atoms: C23_23  and  O43_43 
REMARK    8  A    between atoms: C24_24  and  O44_44 
REMARK    9  A    between atoms: C34_34  and  C26_26 
REMARK       I    between atoms: N36_36  and  C27_27 
REMARK   10  A    between atoms: O43_43  and  C30_30 
REMARK   11  A    between atoms: O44_44  and  C31_31 
REMARK   12  A    between atoms: C32_32  and  N37_37 
REMARK   13  A    between atoms: N37_37  and  C33_33 
REMARK   14  A    between atoms: N37_37  and  C34_34 
REMARK   15  A    between atoms: C35_35  and  N36_36 
ROOT
ATOM      1  C1  O2N d          -7.121  42.475   0.512  0.00  0.00    -0.082 A 
ATOM      2  C2  O2N d          -6.309  42.770   1.584  0.00  0.00    -0.082 A 
ATOM      3  C3  O2N d          -8.260  43.250   0.333  0.00  0.00    -0.067 A 
ATOM      4  C4  O2N d          -6.593  43.806   2.459  0.00  0.00    -0.074 A 
ATOM      5  C15 O2N d          -8.563  44.287   1.198  0.00  0.00     0.040 A 
ATOM      6  C19 O2N d          -7.726  44.574   2.275  0.00  0.00    -0.017 A 
ATOM      7  H1  O2N d          -6.881  41.666  -0.169  0.00  0.00     0.083 H 
ATOM      8  H2  O2N d          -5.419  42.173   1.748  0.00  0.00     0.083 H 
ATOM      9  H3  O2N d          -8.923  43.039  -0.498  0.00  0.00     0.085 H 
ATOM     10  H4  O2N d          -5.926  44.013   3.289  0.00  0.00     0.084 H 
ENDROOT
BRANCH   5  11
ATOM     11  C27 O2N d          -9.773  45.098   0.942  0.00  0.00     0.253 C 
ATOM     12  N36 O2N d          -9.646  46.230   0.135  0.00  0.00    -0.344 N 
ATOM     13  H33 O2N d          -8.741  46.476  -0.212  0.00  0.00     0.163 HD
ATOM     14  O39 O2N d         -10.825  44.740   1.478  0.00  0.00    -0.268 OA
BRANCH  12  15
ATOM     15  C35 O2N d         -10.782  47.062  -0.216  0.00  0.00     0.063 C 
ATOM     16  H32 O2N d         -10.454  47.797  -0.966  0.00  0.00     0.088 H 
BRANCH  15  17
ATOM     17  C17 O2N d         -11.220  47.860   1.025  0.00  0.00    -0.031 A 
ATOM     18  C6  O2N d         -11.976  49.018   0.886  0.00  0.00    -0.072 A 
ATOM     19  C11 O2N d         -12.376  49.783   1.989  0.00  0.00    -0.050 A 
ATOM     20  H6  O2N d         -12.266  49.339  -0.108  0.00  0.00     0.084 H 
ATOM     21  C23 O2N d         -12.018  49.300   3.274  0.00  0.00     0.068 A 
ATOM     22  H11 O2N d         -12.935  50.704   1.866  0.00  0.00     0.087 H 
ATOM     23  C12 O2N d         -11.231  48.173   3.451  0.00  0.00    -0.050 A 
ATOM     24  C7  O2N d         -10.848  47.468   2.300  0.00  0.00    -0.072 A 
ATOM     25  H12 O2N d         -10.925  47.849   4.439  0.00  0.00     0.087 H 
ATOM     26  H7  O2N d         -10.236  46.581   2.413  0.00  0.00     0.084 H 
BRANCH  21  27
ATOM     27  O43 O2N d         -12.429  50.069   4.376  0.00  0.00    -0.356 OA
BRANCH  27  28
ATOM     28  C30 O2N d         -12.055  49.676   5.714  0.00  0.00     0.010 C 
ATOM     29  H20 O2N d         -11.216  50.299   6.058  0.00  0.00     0.066 H 
ATOM     30  H21 O2N d         -11.751  48.620   5.714  0.00  0.00     0.066 H 
ATOM     31  H22 O2N d         -12.913  49.811   6.389  0.00  0.00     0.066 H 
ENDBRANCH  27  28
ENDBRANCH  21  27
ENDBRANCH  15  17
BRANCH  15  32
ATOM     32  C18 O2N d         -11.840  46.189  -0.887  0.00  0.00    -0.031 A 
ATOM     33  C8  O2N d         -13.120  46.225  -0.349  0.00  0.00    -0.072 A 
ATOM     34  C13 O2N d         -14.131  45.477  -0.949  0.00  0.00    -0.050 A 
ATOM     35  H8  O2N d         -13.330  46.828   0.527  0.00  0.00     0.084 H 
ATOM     36  C24 O2N d         -13.890  44.681  -2.063  0.00  0.00     0.068 A 
ATOM     37  H13 O2N d         -15.132  45.515  -0.535  0.00  0.00     0.087 H 
ATOM     38  C14 O2N d         -12.635  44.603  -2.637  0.00  0.00    -0.050 A 
ATOM     39  C9  O2N d         -11.647  45.408  -2.021  0.00  0.00    -0.072 A 
ATOM     40  H14 O2N d         -12.425  43.972  -3.493  0.00  0.00     0.087 H 
ATOM     41  H9  O2N d         -10.660  45.415  -2.469  0.00  0.00     0.084 H 
BRANCH  36  42
ATOM     42  O44 O2N d         -14.990  43.969  -2.543  0.00  0.00    -0.356 OA
BRANCH  42  43
ATOM     43  C31 O2N d         -15.492  44.506  -3.766  0.00  0.00     0.010 C 
ATOM     44  H23 O2N d         -15.388  45.602  -3.756  0.00  0.00     0.066 H 
ATOM     45  H24 O2N d         -16.554  44.240  -3.874  0.00  0.00     0.066 H 
ATOM     46  H25 O2N d         -14.922  44.091  -4.611  0.00  0.00     0.066 H 
ENDBRANCH  42  43
ENDBRANCH  36  42
ENDBRANCH  15  32
ENDBRANCH  12  15
ENDBRANCH   5  11
BRANCH   6  47
ATOM     47  C32 O2N d          -7.983  45.693   3.230  0.00  0.00     0.109 C 
ATOM     48  H26 O2N d          -8.066  45.265   4.240  0.00  0.00     0.083 H 
ATOM     49  H27 O2N d          -8.937  46.164   2.952  0.00  0.00     0.083 H 
BRANCH  47  50
ATOM     50  N37 O2N d          -6.917  46.778   3.265  0.00  0.00    -0.060 N 
ATOM     51  H34 O2N d          -7.347  47.590   3.680  0.00  0.00     0.281 HD
BRANCH  50  52
ATOM     52  C33 O2N d          -6.347  47.246   1.884  0.00  0.00     0.109 C 
ATOM     53  H28 O2N d          -5.301  47.565   2.005  0.00  0.00     0.083 H 
ATOM     54  H29 O2N d          -6.397  46.416   1.164  0.00  0.00     0.083 H 
BRANCH  52  55
ATOM     55  C20 O2N d          -7.182  48.413   1.378  0.00  0.00    -0.013 A 
ATOM     56  C5  O2N d          -7.817  49.356   2.233  0.00  0.00    -0.071 A 
ATOM     57  C10 O2N d          -8.586  50.455   1.731  0.00  0.00    -0.047 A 
ATOM     58  H5  O2N d          -7.716  49.238   3.306  0.00  0.00     0.084 H 
ATOM     59  C21 O2N d          -8.703  50.517   0.363  0.00  0.00     0.106 A 
ATOM     60  H10 O2N d          -9.044  51.187   2.385  0.00  0.00     0.087 H 
ATOM     61  C22 O2N d          -8.077  49.611  -0.475  0.00  0.00     0.122 A 
ATOM     62  O41 O2N d          -9.390  51.448  -0.354  0.00  0.00    -0.323 OA
ATOM     63  C16 O2N d          -7.311  48.537  -0.019  0.00  0.00     0.085 A 
ATOM     64  O42 O2N d          -8.331  49.871  -1.828  0.00  0.00    -0.322 OA
ATOM     65  C29 O2N d          -9.116  51.077  -1.719  0.00  0.00     0.115 A 
ATOM     66  H18 O2N d          -8.565  51.899  -2.201  0.00  0.00     0.118 H 
ATOM     67  H19 O2N d         -10.072  50.922  -2.240  0.00  0.00     0.118 H 
BRANCH  63  68
ATOM     68  C28 O2N d          -6.635  47.653  -1.042  0.00  0.00     0.212 C 
ATOM     69  O38 O2N d          -5.527  48.100  -1.480  0.00  0.00    -0.644 OA
ATOM     70  O40 O2N d          -7.014  46.483  -1.370  0.00  0.00    -0.644 OA
ENDBRANCH  63  68
ENDBRANCH  52  55
ENDBRANCH  50  52
BRANCH  50  71
ATOM     71  C34 O2N d          -5.816  46.330   4.177  0.00  0.00     0.099 C 
ATOM     72  H30 O2N d          -5.949  46.851   5.136  0.00  0.00     0.082 H 
ATOM     73  H31 O2N d          -5.933  45.247   4.329  0.00  0.00     0.082 H 
BRANCH  71  74
ATOM     74  C26 O2N d          -4.402  46.572   3.724  0.00  0.00    -0.087 C 
ATOM     75  C25 O2N d          -3.652  45.565   3.243  0.00  0.00    -0.123 C 
ATOM     76  H15 O2N d          -2.629  45.754   2.919  0.00  0.00     0.066 H 
ATOM     77  H16 O2N d          -4.066  44.559   3.177  0.00  0.00     0.066 H 
ATOM     78  H17 O2N d          -3.981  47.574   3.787  0.00  0.00     0.078 H 
ENDBRANCH  71  74
ENDBRANCH  50  71
ENDBRANCH  47  50
ENDBRANCH   6  47
TORSDOF 15
ENDMDL
MODEL 10
REMARK VINA RESULT:      -5.5      2.707      5.382
REMARK  15 active torsions:
REMARK  status: ('A' for Active; 'I' for Inactive)
REMARK    1  A    between atoms: C27_27  and  C15_15 
REMARK    2  A    between atoms: C16_16  and  C28_28 
REMARK    3  A    between atoms: C35_35  and  C17_17 
REMARK    4  A    between atoms: C35_35  and  C18_18 
REMARK    5  A    between atoms: C19_19  and  C32_32 
REMARK    6  A    between atoms: C33_33  and  C20_20 
REMARK    7  A    between atoms: C23_23  and  O43_43 
REMARK    8  A    between atoms: C24_24  and  O44_44 
REMARK    9  A    between atoms: C34_34  and  C26_26 
REMARK       I    between atoms: N36_36  and  C27_27 
REMARK   10  A    between atoms: O43_43  and  C30_30 
REMARK   11  A    between atoms: O44_44  and  C31_31 
REMARK   12  A    between atoms: C32_32  and  N37_37 
REMARK   13  A    between atoms: N37_37  and  C33_33 
REMARK   14  A    between atoms: N37_37  and  C34_34 
REMARK   15  A    between atoms: C35_35  and  N36_36 
ROOT
ATOM      1  C1  O2N d          -8.325  42.142   0.456  0.00  0.00    -0.082 A 
ATOM      2  C2  O2N d          -9.534  42.381  -0.157  0.00  0.00    -0.082 A 
ATOM      3  C3  O2N d          -7.695  43.213   1.078  0.00  0.00    -0.067 A 
ATOM      4  C4  O2N d         -10.125  43.635  -0.157  0.00  0.00    -0.074 A 
ATOM      5  C15 O2N d          -8.267  44.473   1.088  0.00  0.00     0.040 A 
ATOM      6  C19 O2N d          -9.495  44.694   0.466  0.00  0.00    -0.017 A 
ATOM      7  H1  O2N d          -7.879  41.154   0.454  0.00  0.00     0.083 H 
ATOM      8  H2  O2N d         -10.039  41.562  -0.657  0.00  0.00     0.083 H 
ATOM      9  H3  O2N d          -6.739  43.058   1.565  0.00  0.00     0.085 H 
ATOM     10  H4  O2N d         -11.082  43.783  -0.645  0.00  0.00     0.084 H 
ENDROOT
BRANCH   5  11
ATOM     11  C27 O2N d          -7.566  45.569   1.792  0.00  0.00     0.253 C 
ATOM     12  N36 O2N d          -8.183  46.130   2.910  0.00  0.00    -0.344 N 
ATOM     13  H33 O2N d          -9.089  45.802   3.178  0.00  0.00     0.163 HD
ATOM     14  O39 O2N d          -6.483  45.941   1.333  0.00  0.00    -0.268 OA
BRANCH  12  15
ATOM     15  C35 O2N d          -7.554  47.174   3.698  0.00  0.00     0.063 C 
ATOM     16  H32 O2N d          -6.987  47.827   3.018  0.00  0.00     0.088 H 
BRANCH  15  17
ATOM     17  C17 O2N d          -6.531  46.534   4.653  0.00  0.00    -0.031 A 
ATOM     18  C6  O2N d          -5.168  46.644   4.402  0.00  0.00    -0.072 A 
ATOM     19  C11 O2N d          -4.208  46.057   5.236  0.00  0.00    -0.050 A 
ATOM     20  H6  O2N d          -4.838  47.203   3.533  0.00  0.00     0.084 H 
ATOM     21  C23 O2N d          -4.681  45.378   6.388  0.00  0.00     0.068 A 
ATOM     22  H11 O2N d          -3.149  46.119   5.010  0.00  0.00     0.087 H 
ATOM     23  C12 O2N d          -6.031  45.213   6.650  0.00  0.00    -0.050 A 
ATOM     24  C7  O2N d          -6.937  45.808   5.760  0.00  0.00    -0.072 A 
ATOM     25  H12 O2N d          -6.373  44.646   7.509  0.00  0.00     0.087 H 
ATOM     26  H7  O2N d          -7.999  45.696   5.946  0.00  0.00     0.084 H 
BRANCH  21  27
ATOM     27  O43 O2N d          -3.711  44.799   7.223  0.00  0.00    -0.356 OA
BRANCH  27  28
ATOM     28  C30 O2N d          -3.462  43.378   7.167  0.00  0.00     0.010 C 
ATOM     29  H20 O2N d          -2.582  43.184   6.536  0.00  0.00     0.066 H 
ATOM     30  H21 O2N d          -4.338  42.868   6.741  0.00  0.00     0.066 H 
ATOM     31  H22 O2N d          -3.275  42.997   8.182  0.00  0.00     0.066 H 
ENDBRANCH  27  28
ENDBRANCH  21  27
ENDBRANCH  15  17
BRANCH  15  32
ATOM     32  C18 O2N d          -8.644  48.037   4.329  0.00  0.00    -0.031 A 
ATOM     33  C8  O2N d          -9.961  47.682   4.064  0.00  0.00    -0.072 A 
ATOM     34  C13 O2N d         -10.993  48.413   4.648  0.00  0.00    -0.050 A 
ATOM     35  H8  O2N d         -10.183  46.845   3.412  0.00  0.00     0.084 H 
ATOM     36  C24 O2N d         -10.742  49.501   5.477  0.00  0.00     0.068 A 
ATOM     37  H13 O2N d         -12.020  48.127   4.450  0.00  0.00     0.087 H 
ATOM     38  C14 O2N d          -9.452  49.903   5.770  0.00  0.00    -0.050 A 
ATOM     39  C9  O2N d          -8.433  49.110   5.188  0.00  0.00    -0.072 A 
ATOM     40  H14 O2N d          -9.238  50.760   6.397  0.00  0.00     0.087 H 
ATOM     41  H9  O2N d          -7.407  49.358   5.433  0.00  0.00     0.084 H 
BRANCH  36  42
ATOM     42  O44 O2N d         -11.871  50.154   5.971  0.00  0.00    -0.356 OA
BRANCH  42  43
ATOM     43  C31 O2N d         -12.546  49.389   6.969  0.00  0.00     0.010 C 
ATOM     44  H23 O2N d         -12.063  48.405   7.067  0.00  0.00     0.066 H 
ATOM     45  H24 O2N d         -13.598  49.253   6.677  0.00  0.00     0.066 H 
ATOM     46  H25 O2N d         -12.499  49.919   7.932  0.00  0.00     0.066 H 
ENDBRANCH  42  43
ENDBRANCH  36  42
ENDBRANCH  15  32
ENDBRANCH  12  15
ENDBRANCH   5  11
BRANCH   6  47
ATOM     47  C32 O2N d         -10.176  46.023   0.460  0.00  0.00     0.109 C 
ATOM     48  H26 O2N d          -9.403  46.801   0.547  0.00  0.00     0.083 H 
ATOM     49  H27 O2N d         -10.841  46.068   1.334  0.00  0.00     0.083 H 
BRANCH  47  50
ATOM     50  N37 O2N d         -11.008  46.323  -0.778  0.00  0.00    -0.060 N 
ATOM     51  H34 O2N d         -10.712  45.670  -1.488  0.00  0.00     0.281 HD
BRANCH  50  52
ATOM     52  C33 O2N d         -10.844  47.749  -1.404  0.00  0.00     0.109 C 
ATOM     53  H28 O2N d         -10.014  47.742  -2.127  0.00  0.00     0.083 H 
ATOM     54  H29 O2N d         -11.774  48.036  -1.917  0.00  0.00     0.083 H 
BRANCH  52  55
ATOM     55  C20 O2N d         -10.545  48.743  -0.292  0.00  0.00    -0.013 A 
ATOM     56  C5  O2N d         -11.531  49.239   0.607  0.00  0.00    -0.071 A 
ATOM     57  C10 O2N d         -11.221  50.163   1.655  0.00  0.00    -0.047 A 
ATOM     58  H5  O2N d         -12.556  48.905   0.492  0.00  0.00     0.084 H 
ATOM     59  C21 O2N d          -9.910  50.571   1.714  0.00  0.00     0.106 A 
ATOM     60  H10 O2N d         -11.969  50.516   2.355  0.00  0.00     0.087 H 
ATOM     61  C22 O2N d          -8.943  50.083   0.852  0.00  0.00     0.122 A 
ATOM     62  O41 O2N d          -9.370  51.451   2.601  0.00  0.00    -0.323 OA
ATOM     63  C16 O2N d          -9.209  49.173  -0.172  0.00  0.00     0.085 A 
ATOM     64  O42 O2N d          -7.679  50.633   1.100  0.00  0.00    -0.322 OA
ATOM     65  C29 O2N d          -7.972  51.450   2.253  0.00  0.00     0.115 A 
ATOM     66  H18 O2N d          -7.398  51.067   3.109  0.00  0.00     0.118 H 
ATOM     67  H19 O2N d          -7.663  52.484   2.038  0.00  0.00     0.118 H 
BRANCH  63  68
ATOM     68  C28 O2N d          -8.052  48.676  -1.008  0.00  0.00     0.212 C 
ATOM     69  O38 O2N d          -7.522  49.557  -1.758  0.00  0.00    -0.644 OA
ATOM     70  O40 O2N d          -7.511  47.527  -0.910  0.00  0.00    -0.644 OA
ENDBRANCH  63  68
ENDBRANCH  52  55
ENDBRANCH  50  52
BRANCH  50  71
ATOM     71  C34 O2N d         -12.444  46.035  -0.465  0.00  0.00     0.099 C 
ATOM     72  H30 O2N d         -12.468  45.156   0.194  0.00  0.00     0.082 H 
ATOM     73  H31 O2N d         -12.846  46.907   0.071  0.00  0.00     0.082 H 
BRANCH  71  74
ATOM     74  C26 O2N d         -13.362  45.756  -1.623  0.00  0.00    -0.087 C 
ATOM     75  C25 O2N d         -13.269  44.606  -2.314  0.00  0.00    -0.123 C 
ATOM     76  H15 O2N d         -13.940  44.417  -3.150  0.00  0.00     0.066 H 
ATOM     77  H16 O2N d         -12.522  43.863  -2.037  0.00  0.00     0.066 H 
ATOM     78  H17 O2N d         -14.112  46.494  -1.906  0.00  0.00     0.078 H 
ENDBRANCH  71  74
ENDBRANCH  50  71
ENDBRANCH  47  50
ENDBRANCH   6  47
TORSDOF 15
ENDMDL
