MODEL 1
REMARK VINA RESULT:      -6.7      0.000      0.000
REMARK  4 active torsions:
REMARK  status: ('A' for Active; 'I' for Inactive)
REMARK    1  A    between atoms: C1_2  and  C6_3 
REMARK    2  A    between atoms: C6_3  and  C7_4 
REMARK    3  A    between atoms: C7_4  and  C8_5 
REMARK    4  A    between atoms: C8_5  and  C9_6 
ROOT
ATOM      1  N1  BDI d          17.623  17.479  20.586  0.00  0.00    -0.338 N 
ATOM      2  C1  BDI d          16.698  17.174  19.692  0.00  0.00     0.105 A 
ATOM      3  N2  BDI d          15.621  16.902  20.215  0.00  0.00    -0.227 NA
ATOM      4  C2  BDI d          15.669  16.987  21.638  0.00  0.00     0.160 A 
ATOM      5  C4  BDI d          14.669  16.763  22.725  0.00  0.00     0.291 A 
ATOM      6  N5  BDI d          15.136  16.959  24.031  0.00  0.00    -0.262 N 
ATOM      7  N4  BDI d          16.547  17.368  24.346  0.00  0.00    -0.262 N 
ATOM      8  C5  BDI d          17.526  17.593  23.359  0.00  0.00     0.289 A 
ATOM      9  O1  BDI d          18.718  17.939  23.610  0.00  0.00    -0.264 OA
ATOM     10  C3  BDI d          17.021  17.379  21.903  0.00  0.00     0.138 A 
ATOM     11  O3  BDI d          13.518  16.429  22.451  0.00  0.00    -0.264 OA
ATOM     12  H1  BDI d          18.599  17.741  20.384  0.00  0.00     0.167 HD
ATOM     13  H11 BDI d          14.500  16.819  24.790  0.00  0.00     0.190 HD
ATOM     14  H12 BDI d          16.804  17.487  25.305  0.00  0.00     0.190 HD
ENDROOT
BRANCH   2  15
ATOM     15  C6  BDI d          16.981  17.171  18.188  0.00  0.00    -0.010 C 
ATOM     16  H2  BDI d          16.823  16.146  17.824  0.00  0.00     0.044 H 
ATOM     17  H3  BDI d          18.034  17.452  18.049  0.00  0.00     0.044 H 
BRANCH  15  18
ATOM     18  C7  BDI d          16.119  18.124  17.298  0.00  0.00    -0.059 C 
ATOM     19  H4  BDI d          16.724  18.484  16.452  0.00  0.00     0.033 H 
ATOM     20  H5  BDI d          15.781  18.983  17.897  0.00  0.00     0.033 H 
BRANCH  18  21
ATOM     21  C8  BDI d          14.877  17.341  16.758  0.00  0.00    -0.068 C 
ATOM     22  H6  BDI d          14.389  16.833  17.604  0.00  0.00     0.032 H 
ATOM     23  H7  BDI d          15.223  16.592  16.031  0.00  0.00     0.032 H 
BRANCH  21  24
ATOM     24  C9  BDI d          13.839  18.258  16.067  0.00  0.00    -0.077 C 
ATOM     25  H8  BDI d          14.043  19.307  16.330  0.00  0.00     0.027 H 
ATOM     26  H9  BDI d          12.827  17.986  16.404  0.00  0.00     0.027 H 
ATOM     27  H10 BDI d          13.908  18.134  14.976  0.00  0.00     0.027 H 
ENDBRANCH  21  24
ENDBRANCH  18  21
ENDBRANCH  15  18
ENDBRANCH   2  15
TORSDOF 4
ENDMDL
MODEL 2
REMARK VINA RESULT:      -6.6      0.711      2.713
REMARK  4 active torsions:
REMARK  status: ('A' for Active; 'I' for Inactive)
REMARK    1  A    between atoms: C1_2  and  C6_3 
REMARK    2  A    between atoms: C6_3  and  C7_4 
REMARK    3  A    between atoms: C7_4  and  C8_5 
REMARK    4  A    between atoms: C8_5  and  C9_6 
ROOT
ATOM      1  N1  BDI d          15.018  16.879  20.269  0.00  0.00    -0.338 N 
ATOM      2  C1  BDI d          16.126  17.192  19.620  0.00  0.00     0.105 A 
ATOM      3  N2  BDI d          17.062  17.419  20.383  0.00  0.00    -0.227 NA
ATOM      4  C2  BDI d          16.691  17.284  21.754  0.00  0.00     0.160 A 
ATOM      5  C4  BDI d          17.423  17.445  23.047  0.00  0.00     0.291 A 
ATOM      6  N5  BDI d          16.669  17.215  24.204  0.00  0.00    -0.262 N 
ATOM      7  N4  BDI d          15.217  16.829  24.177  0.00  0.00    -0.262 N 
ATOM      8  C5  BDI d          14.483  16.664  22.986  0.00  0.00     0.289 A 
ATOM      9  O1  BDI d          13.260  16.339  22.947  0.00  0.00    -0.264 OA
ATOM     10  C3  BDI d          15.308  16.917  21.691  0.00  0.00     0.138 A 
ATOM     11  O3  BDI d          18.611  17.760  23.053  0.00  0.00    -0.264 OA
ATOM     12  H1  BDI d          14.110  16.649  19.842  0.00  0.00     0.167 HD
ATOM     13  H11 BDI d          17.118  17.312  25.092  0.00  0.00     0.190 HD
ATOM     14  H12 BDI d          14.747  16.683  25.048  0.00  0.00     0.190 HD
ENDROOT
BRANCH   2  15
ATOM     15  C6  BDI d          16.192  17.255  18.092  0.00  0.00    -0.010 C 
ATOM     16  H2  BDI d          16.604  16.299  17.739  0.00  0.00     0.044 H 
ATOM     17  H3  BDI d          16.879  18.071  17.825  0.00  0.00     0.044 H 
BRANCH  15  18
ATOM     18  C7  BDI d          14.851  17.501  17.329  0.00  0.00    -0.059 C 
ATOM     19  H4  BDI d          14.130  17.990  18.000  0.00  0.00     0.033 H 
ATOM     20  H5  BDI d          14.439  16.539  16.989  0.00  0.00     0.033 H 
BRANCH  18  21
ATOM     21  C8  BDI d          15.123  18.419  16.093  0.00  0.00    -0.068 C 
ATOM     22  H6  BDI d          14.554  19.353  16.218  0.00  0.00     0.032 H 
ATOM     23  H7  BDI d          14.779  17.899  15.187  0.00  0.00     0.032 H 
BRANCH  21  24
ATOM     24  C9  BDI d          16.621  18.773  15.921  0.00  0.00    -0.077 C 
ATOM     25  H8  BDI d          16.722  19.599  15.201  0.00  0.00     0.027 H 
ATOM     26  H9  BDI d          17.165  17.893  15.548  0.00  0.00     0.027 H 
ATOM     27  H10 BDI d          17.039  19.079  16.891  0.00  0.00     0.027 H 
ENDBRANCH  21  24
ENDBRANCH  18  21
ENDBRANCH  15  18
ENDBRANCH   2  15
TORSDOF 4
ENDMDL
MODEL 3
REMARK VINA RESULT:      -5.6      2.861      5.417
REMARK  4 active torsions:
REMARK  status: ('A' for Active; 'I' for Inactive)
REMARK    1  A    between atoms: C1_2  and  C6_3 
REMARK    2  A    between atoms: C6_3  and  C7_4 
REMARK    3  A    between atoms: C7_4  and  C8_5 
REMARK    4  A    between atoms: C8_5  and  C9_6 
ROOT
ATOM      1  N1  BDI d          17.387  17.828  19.303  0.00  0.00    -0.338 N 
ATOM      2  C1  BDI d          16.978  17.170  20.374  0.00  0.00     0.105 A 
ATOM      3  N2  BDI d          15.883  16.641  20.203  0.00  0.00    -0.227 NA
ATOM      4  C2  BDI d          15.357  16.887  18.900  0.00  0.00     0.160 A 
ATOM      5  C4  BDI d          14.100  16.490  18.196  0.00  0.00     0.291 A 
ATOM      6  N5  BDI d          13.967  16.955  16.882  0.00  0.00    -0.262 N 
ATOM      7  N4  BDI d          15.005  17.799  16.199  0.00  0.00    -0.262 N 
ATOM      8  C5  BDI d          16.206  18.199  16.817  0.00  0.00     0.289 A 
ATOM      9  O1  BDI d          17.090  18.910  16.254  0.00  0.00    -0.264 OA
ATOM     10  C3  BDI d          16.368  17.690  18.279  0.00  0.00     0.138 A 
ATOM     11  O3  BDI d          13.261  15.798  18.768  0.00  0.00    -0.264 OA
ATOM     12  H1  BDI d          18.272  18.347  19.212  0.00  0.00     0.167 HD
ATOM     13  H11 BDI d          13.140  16.714  16.374  0.00  0.00     0.190 HD
ATOM     14  H12 BDI d          14.835  18.093  15.258  0.00  0.00     0.190 HD
ENDROOT
BRANCH   2  15
ATOM     15  C6  BDI d          17.805  17.101  21.661  0.00  0.00    -0.010 C 
ATOM     16  H2  BDI d          18.809  17.484  21.429  0.00  0.00     0.044 H 
ATOM     17  H3  BDI d          17.874  16.044  21.953  0.00  0.00     0.044 H 
BRANCH  15  18
ATOM     18  C7  BDI d          17.272  17.897  22.896  0.00  0.00    -0.059 C 
ATOM     19  H4  BDI d          16.648  18.735  22.552  0.00  0.00     0.033 H 
ATOM     20  H5  BDI d          18.120  18.286  23.477  0.00  0.00     0.033 H 
BRANCH  18  21
ATOM     21  C8  BDI d          16.417  16.942  23.793  0.00  0.00    -0.068 C 
ATOM     22  H6  BDI d          16.707  17.096  24.843  0.00  0.00     0.032 H 
ATOM     23  H7  BDI d          16.631  15.903  23.502  0.00  0.00     0.032 H 
BRANCH  21  24
ATOM     24  C9  BDI d          14.895  17.189  23.659  0.00  0.00    -0.077 C 
ATOM     25  H8  BDI d          14.722  18.187  23.230  0.00  0.00     0.027 H 
ATOM     26  H9  BDI d          14.425  17.130  24.652  0.00  0.00     0.027 H 
ATOM     27  H10 BDI d          14.456  16.426  22.999  0.00  0.00     0.027 H 
ENDBRANCH  21  24
ENDBRANCH  18  21
ENDBRANCH  15  18
ENDBRANCH   2  15
TORSDOF 4
ENDMDL
MODEL 4
REMARK VINA RESULT:      -5.4      3.695      6.812
REMARK  4 active torsions:
REMARK  status: ('A' for Active; 'I' for Inactive)
REMARK    1  A    between atoms: C1_2  and  C6_3 
REMARK    2  A    between atoms: C6_3  and  C7_4 
REMARK    3  A    between atoms: C7_4  and  C8_5 
REMARK    4  A    between atoms: C8_5  and  C9_6 
ROOT
ATOM      1  N1  BDI d          14.303  16.304  18.129  0.00  0.00    -0.338 N 
ATOM      2  C1  BDI d          15.012  16.958  19.032  0.00  0.00     0.105 A 
ATOM      3  N2  BDI d          15.800  17.748  18.519  0.00  0.00    -0.227 NA
ATOM      4  C2  BDI d          15.732  17.737  17.094  0.00  0.00     0.160 A 
ATOM      5  C4  BDI d          16.451  18.480  16.016  0.00  0.00     0.291 A 
ATOM      6  N5  BDI d          16.075  18.163  14.705  0.00  0.00    -0.262 N 
ATOM      7  N4  BDI d          15.019  17.146  14.375  0.00  0.00    -0.262 N 
ATOM      8  C5  BDI d          14.312  16.421  15.354  0.00  0.00     0.289 A 
ATOM      9  O1  BDI d          13.419  15.562  15.091  0.00  0.00    -0.264 OA
ATOM     10  C3  BDI d          14.719  16.763  16.816  0.00  0.00     0.138 A 
ATOM     11  O3  BDI d          17.312  19.309  16.301  0.00  0.00    -0.264 OA
ATOM     12  H1  BDI d          13.582  15.594  18.322  0.00  0.00     0.167 HD
ATOM     13  H11 BDI d          16.531  18.636  13.951  0.00  0.00     0.190 HD
ATOM     14  H12 BDI d          14.807  16.976  13.413  0.00  0.00     0.190 HD
ENDROOT
BRANCH   2  15
ATOM     15  C6  BDI d          14.841  16.725  20.535  0.00  0.00    -0.010 C 
ATOM     16  H2  BDI d          14.599  15.663  20.680  0.00  0.00     0.044 H 
ATOM     17  H3  BDI d          13.995  17.343  20.871  0.00  0.00     0.044 H 
BRANCH  15  18
ATOM     18  C7  BDI d          16.061  17.059  21.453  0.00  0.00    -0.059 C 
ATOM     19  H4  BDI d          16.458  18.051  21.191  0.00  0.00     0.033 H 
ATOM     20  H5  BDI d          16.846  16.301  21.313  0.00  0.00     0.033 H 
BRANCH  18  21
ATOM     21  C8  BDI d          15.596  17.060  22.946  0.00  0.00    -0.068 C 
ATOM     22  H6  BDI d          15.857  16.090  23.395  0.00  0.00     0.032 H 
ATOM     23  H7  BDI d          14.504  17.195  22.974  0.00  0.00     0.032 H 
BRANCH  21  24
ATOM     24  C9  BDI d          16.254  18.184  23.784  0.00  0.00    -0.077 C 
ATOM     25  H8  BDI d          15.470  18.818  24.225  0.00  0.00     0.027 H 
ATOM     26  H9  BDI d          16.897  18.796  23.135  0.00  0.00     0.027 H 
ATOM     27  H10 BDI d          16.860  17.738  24.586  0.00  0.00     0.027 H 
ENDBRANCH  21  24
ENDBRANCH  18  21
ENDBRANCH  15  18
ENDBRANCH   2  15
TORSDOF 4
ENDMDL
MODEL 5
REMARK VINA RESULT:      -5.2      2.549      5.898
REMARK  4 active torsions:
REMARK  status: ('A' for Active; 'I' for Inactive)
REMARK    1  A    between atoms: C1_2  and  C6_3 
REMARK    2  A    between atoms: C6_3  and  C7_4 
REMARK    3  A    between atoms: C7_4  and  C8_5 
REMARK    4  A    between atoms: C8_5  and  C9_6 
ROOT
ATOM      1  N1  BDI d          13.639  16.777  19.957  0.00  0.00    -0.338 N 
ATOM      2  C1  BDI d          14.350  16.649  21.064  0.00  0.00     0.105 A 
ATOM      3  N2  BDI d          15.545  16.861  20.874  0.00  0.00    -0.227 NA
ATOM      4  C2  BDI d          15.832  17.183  19.514  0.00  0.00     0.160 A 
ATOM      5  C4  BDI d          17.083  17.516  18.769  0.00  0.00     0.291 A 
ATOM      6  N5  BDI d          16.924  17.774  17.402  0.00  0.00    -0.262 N 
ATOM      7  N4  BDI d          15.594  17.728  16.704  0.00  0.00    -0.262 N 
ATOM      8  C5  BDI d          14.387  17.421  17.361  0.00  0.00     0.289 A 
ATOM      9  O1  BDI d          13.260  17.378  16.786  0.00  0.00    -0.264 OA
ATOM     10  C3  BDI d          14.547  17.130  18.881  0.00  0.00     0.138 A 
ATOM     11  O3  BDI d          18.163  17.551  19.354  0.00  0.00    -0.264 OA
ATOM     12  H1  BDI d          12.620  16.648  19.872  0.00  0.00     0.167 HD
ATOM     13  H11 BDI d          17.736  18.001  16.863  0.00  0.00     0.190 HD
ATOM     14  H12 BDI d          15.565  17.925  15.724  0.00  0.00     0.190 HD
ENDROOT
BRANCH   2  15
ATOM     15  C6  BDI d          13.717  16.275  22.406  0.00  0.00    -0.010 C 
ATOM     16  H2  BDI d          13.926  15.211  22.586  0.00  0.00     0.044 H 
ATOM     17  H3  BDI d          12.632  16.425  22.314  0.00  0.00     0.044 H 
BRANCH  15  18
ATOM     18  C7  BDI d          14.195  17.067  23.666  0.00  0.00    -0.059 C 
ATOM     19  H4  BDI d          13.686  16.678  24.560  0.00  0.00     0.033 H 
ATOM     20  H5  BDI d          13.956  18.134  23.543  0.00  0.00     0.033 H 
BRANCH  18  21
ATOM     21  C8  BDI d          15.741  16.893  23.827  0.00  0.00    -0.068 C 
ATOM     22  H6  BDI d          16.114  16.278  22.994  0.00  0.00     0.032 H 
ATOM     23  H7  BDI d          15.939  16.379  24.779  0.00  0.00     0.032 H 
BRANCH  21  24
ATOM     24  C9  BDI d          16.505  18.240  23.825  0.00  0.00    -0.077 C 
ATOM     25  H8  BDI d          16.690  18.557  24.862  0.00  0.00     0.027 H 
ATOM     26  H9  BDI d          15.901  19.003  23.312  0.00  0.00     0.027 H 
ATOM     27  H10 BDI d          17.464  18.118  23.302  0.00  0.00     0.027 H 
ENDBRANCH  21  24
ENDBRANCH  18  21
ENDBRANCH  15  18
ENDBRANCH   2  15
TORSDOF 4
ENDMDL
