MODEL 1
REMARK VINA RESULT:      -4.8      0.000      0.000
REMARK  6 active torsions:
REMARK  status: ('A' for Active; 'I' for Inactive)
REMARK    1  A    between atoms: N_1  and  CA_2 
REMARK    2  A    between atoms: CA_2  and  C_3 
REMARK    3  A    between atoms: CA_2  and  CB_5 
REMARK    4  A    between atoms: CB_5  and  CG_6 
REMARK    5  A    between atoms: CG_6  and  CD1_7 
REMARK    6  A    between atoms: CG_6  and  CD2_8 
ROOT
ATOM      1  CB  LEU d          33.957  -1.205  37.043  0.00  0.00    -0.026 C 
ATOM      2  H5  LEU d          33.753  -2.247  36.756  0.00  0.00     0.037 H 
ATOM      3  H6  LEU d          34.031  -0.584  36.138  0.00  0.00     0.037 H 
ENDROOT
BRANCH   1   4
ATOM      4  CA  LEU d          35.325  -1.187  37.709  0.00  0.00     0.182 C 
ATOM      5  H4  LEU d          35.233  -0.784  38.728  0.00  0.00     0.101 H 
BRANCH   4   6
ATOM      6  N   LEU d          36.265  -0.357  36.928  0.00  0.00    -0.065 N 
ATOM      7  H1  LEU d          36.922  -0.953  36.449  0.00  0.00     0.275 HD
ATOM      8  H2  LEU d          36.764   0.261  37.549  0.00  0.00     0.275 HD
ATOM      9  H3  LEU d          35.752   0.189  36.253  0.00  0.00     0.275 HD
ENDBRANCH   4   6
BRANCH   4  10
ATOM     10  C   LEU d          35.871  -2.583  37.759  0.00  0.00     0.204 C 
ATOM     11  O   LEU d          36.921  -2.841  37.143  0.00  0.00    -0.646 OA
ATOM     12  OXT LEU d          35.255  -3.458  38.375  0.00  0.00    -0.646 OA
ENDBRANCH   4  10
ENDBRANCH   1   4
BRANCH   1  13
ATOM     13  CG  LEU d          32.737  -0.709  37.830  0.00  0.00    -0.059 C 
ATOM     14  H7  LEU d          31.892  -0.676  37.128  0.00  0.00     0.038 H 
BRANCH  13  15
ATOM     15  CD1 LEU d          32.345  -1.680  38.984  0.00  0.00    -0.073 C 
ATOM     16  H8  LEU d          31.338  -1.428  39.348  0.00  0.00     0.028 H 
ATOM     17  H9  LEU d          33.067  -1.581  39.808  0.00  0.00     0.028 H 
ATOM     18  H10 LEU d          32.352  -2.715  38.610  0.00  0.00     0.028 H 
ENDBRANCH  13  15
BRANCH  13  19
ATOM     19  CD2 LEU d          32.935   0.674  38.355  0.00  0.00    -0.073 C 
ATOM     20  H11 LEU d          34.003   0.837  38.564  0.00  0.00     0.028 H 
ATOM     21  H12 LEU d          32.357   0.800  39.282  0.00  0.00     0.028 H 
ATOM     22  H13 LEU d          32.592   1.403  37.607  0.00  0.00     0.028 H 
ENDBRANCH  13  19
ENDBRANCH   1  13
TORSDOF 6
ENDMDL
MODEL 2
REMARK VINA RESULT:      -4.7      1.477      1.614
REMARK  6 active torsions:
REMARK  status: ('A' for Active; 'I' for Inactive)
REMARK    1  A    between atoms: N_1  and  CA_2 
REMARK    2  A    between atoms: CA_2  and  C_3 
REMARK    3  A    between atoms: CA_2  and  CB_5 
REMARK    4  A    between atoms: CB_5  and  CG_6 
REMARK    5  A    between atoms: CG_6  and  CD1_7 
REMARK    6  A    between atoms: CG_6  and  CD2_8 
ROOT
ATOM      1  CB  LEU d          34.502  -1.073  37.785  0.00  0.00    -0.026 C 
ATOM      2  H5  LEU d          34.699  -1.594  36.836  0.00  0.00     0.037 H 
ATOM      3  H6  LEU d          35.029  -0.108  37.789  0.00  0.00     0.037 H 
ENDROOT
BRANCH   1   4
ATOM      4  CA  LEU d          35.114  -1.920  38.892  0.00  0.00     0.182 C 
ATOM      5  H4  LEU d          34.422  -2.732  39.157  0.00  0.00     0.101 H 
BRANCH   4   6
ATOM      6  N   LEU d          35.388  -1.089  40.082  0.00  0.00    -0.065 N 
ATOM      7  H1  LEU d          34.516  -0.779  40.482  0.00  0.00     0.275 HD
ATOM      8  H2  LEU d          35.938  -0.288  39.813  0.00  0.00     0.275 HD
ATOM      9  H3  LEU d          35.896  -1.633  40.762  0.00  0.00     0.275 HD
ENDBRANCH   4   6
BRANCH   4  10
ATOM     10  C   LEU d          36.416  -2.493  38.415  0.00  0.00     0.204 C 
ATOM     11  O   LEU d          37.305  -2.741  39.251  0.00  0.00    -0.646 OA
ATOM     12  OXT LEU d          36.599  -2.673  37.208  0.00  0.00    -0.646 OA
ENDBRANCH   4  10
ENDBRANCH   1   4
BRANCH   1  13
ATOM     13  CG  LEU d          33.000  -0.765  37.824  0.00  0.00    -0.059 C 
ATOM     14  H7  LEU d          32.625  -0.855  36.795  0.00  0.00     0.038 H 
BRANCH  13  15
ATOM     15  CD1 LEU d          32.211  -1.785  38.698  0.00  0.00    -0.073 C 
ATOM     16  H8  LEU d          32.684  -2.775  38.622  0.00  0.00     0.028 H 
ATOM     17  H9  LEU d          31.172  -1.848  38.341  0.00  0.00     0.028 H 
ATOM     18  H10 LEU d          32.220  -1.453  39.747  0.00  0.00     0.028 H 
ENDBRANCH  13  15
BRANCH  13  19
ATOM     19  CD2 LEU d          32.728   0.631  38.277  0.00  0.00    -0.073 C 
ATOM     20  H11 LEU d          33.342   0.855  39.162  0.00  0.00     0.028 H 
ATOM     21  H12 LEU d          31.663   0.732  38.535  0.00  0.00     0.028 H 
ATOM     22  H13 LEU d          32.977   1.334  37.469  0.00  0.00     0.028 H 
ENDBRANCH  13  19
ENDBRANCH   1  13
TORSDOF 6
ENDMDL
MODEL 3
REMARK VINA RESULT:      -4.7      1.782      2.240
REMARK  6 active torsions:
REMARK  status: ('A' for Active; 'I' for Inactive)
REMARK    1  A    between atoms: N_1  and  CA_2 
REMARK    2  A    between atoms: CA_2  and  C_3 
REMARK    3  A    between atoms: CA_2  and  CB_5 
REMARK    4  A    between atoms: CB_5  and  CG_6 
REMARK    5  A    between atoms: CG_6  and  CD1_7 
REMARK    6  A    between atoms: CG_6  and  CD2_8 
ROOT
ATOM      1  CB  LEU d          34.333  -0.709  39.196  0.00  0.00    -0.026 C 
ATOM      2  H5  LEU d          34.798  -0.067  38.434  0.00  0.00     0.037 H 
ATOM      3  H6  LEU d          34.665  -0.390  40.195  0.00  0.00     0.037 H 
ENDROOT
BRANCH   1   4
ATOM      4  CA  LEU d          34.867  -2.117  38.978  0.00  0.00     0.182 C 
ATOM      5  H4  LEU d          34.025  -2.813  38.848  0.00  0.00     0.101 H 
BRANCH   4   6
ATOM      6  N   LEU d          35.690  -2.538  40.129  0.00  0.00    -0.065 N 
ATOM      7  H1  LEU d          36.471  -3.084  39.801  0.00  0.00     0.275 HD
ATOM      8  H2  LEU d          35.131  -3.095  40.757  0.00  0.00     0.275 HD
ATOM      9  H3  LEU d          36.030  -1.723  40.616  0.00  0.00     0.275 HD
ENDBRANCH   4   6
BRANCH   4  10
ATOM     10  C   LEU d          35.736  -2.133  37.755  0.00  0.00     0.204 C 
ATOM     11  O   LEU d          35.445  -1.389  36.801  0.00  0.00    -0.646 OA
ATOM     12  OXT LEU d          36.699  -2.904  37.699  0.00  0.00    -0.646 OA
ENDBRANCH   4  10
ENDBRANCH   1   4
BRANCH   1  13
ATOM     13  CG  LEU d          32.820  -0.465  39.126  0.00  0.00    -0.059 C 
ATOM     14  H7  LEU d          32.478  -0.261  40.152  0.00  0.00     0.038 H 
BRANCH  13  15
ATOM     15  CD1 LEU d          32.463   0.781  38.262  0.00  0.00    -0.073 C 
ATOM     16  H8  LEU d          33.034   0.751  37.322  0.00  0.00     0.028 H 
ATOM     17  H9  LEU d          32.717   1.697  38.815  0.00  0.00     0.028 H 
ATOM     18  H10 LEU d          31.386   0.774  38.037  0.00  0.00     0.028 H 
ENDBRANCH  13  15
BRANCH  13  19
ATOM     19  CD2 LEU d          32.082  -1.667  38.641  0.00  0.00    -0.073 C 
ATOM     20  H11 LEU d          32.680  -2.179  37.872  0.00  0.00     0.028 H 
ATOM     21  H12 LEU d          31.119  -1.357  38.209  0.00  0.00     0.028 H 
ATOM     22  H13 LEU d          31.903  -2.352  39.482  0.00  0.00     0.028 H 
ENDBRANCH  13  19
ENDBRANCH   1  13
TORSDOF 6
ENDMDL
MODEL 4
REMARK VINA RESULT:      -4.1      2.389      3.370
REMARK  6 active torsions:
REMARK  status: ('A' for Active; 'I' for Inactive)
REMARK    1  A    between atoms: N_1  and  CA_2 
REMARK    2  A    between atoms: CA_2  and  C_3 
REMARK    3  A    between atoms: CA_2  and  CB_5 
REMARK    4  A    between atoms: CB_5  and  CG_6 
REMARK    5  A    between atoms: CG_6  and  CD1_7 
REMARK    6  A    between atoms: CG_6  and  CD2_8 
ROOT
ATOM      1  CB  LEU d          34.909  -2.486  37.738  0.00  0.00    -0.026 C 
ATOM      2  H5  LEU d          35.661  -3.150  37.286  0.00  0.00     0.037 H 
ATOM      3  H6  LEU d          33.917  -2.957  37.669  0.00  0.00     0.037 H 
ENDROOT
BRANCH   1   4
ATOM      4  CA  LEU d          34.863  -1.223  36.891  0.00  0.00     0.182 C 
ATOM      5  H4  LEU d          34.579  -1.482  35.860  0.00  0.00     0.101 H 
BRANCH   4   6
ATOM      6  N   LEU d          36.180  -0.555  36.892  0.00  0.00    -0.065 N 
ATOM      7  H1  LEU d          36.837  -1.111  37.416  0.00  0.00     0.275 HD
ATOM      8  H2  LEU d          36.095   0.355  37.319  0.00  0.00     0.275 HD
ATOM      9  H3  LEU d          36.506  -0.452  35.944  0.00  0.00     0.275 HD
ENDBRANCH   4   6
BRANCH   4  10
ATOM     10  C   LEU d          33.859  -0.273  37.473  0.00  0.00     0.204 C 
ATOM     11  O   LEU d          32.712  -0.688  37.724  0.00  0.00    -0.646 OA
ATOM     12  OXT LEU d          34.171   0.907  37.660  0.00  0.00    -0.646 OA
ENDBRANCH   4  10
ENDBRANCH   1   4
BRANCH   1  13
ATOM     13  CG  LEU d          35.249  -2.373  39.230  0.00  0.00    -0.059 C 
ATOM     14  H7  LEU d          35.218  -1.304  39.487  0.00  0.00     0.038 H 
BRANCH  13  15
ATOM     15  CD1 LEU d          34.205  -3.099  40.130  0.00  0.00    -0.073 C 
ATOM     16  H8  LEU d          34.546  -3.079  41.176  0.00  0.00     0.028 H 
ATOM     17  H9  LEU d          34.099  -4.143  39.800  0.00  0.00     0.028 H 
ATOM     18  H10 LEU d          33.234  -2.587  40.051  0.00  0.00     0.028 H 
ENDBRANCH  13  15
BRANCH  13  19
ATOM     19  CD2 LEU d          36.627  -2.863  39.528  0.00  0.00    -0.073 C 
ATOM     20  H11 LEU d          36.902  -2.580  40.555  0.00  0.00     0.028 H 
ATOM     21  H12 LEU d          37.337  -2.412  38.820  0.00  0.00     0.028 H 
ATOM     22  H13 LEU d          36.656  -3.958  39.428  0.00  0.00     0.028 H 
ENDBRANCH  13  19
ENDBRANCH   1  13
TORSDOF 6
ENDMDL
MODEL 5
REMARK VINA RESULT:      -3.9      1.824      2.325
REMARK  6 active torsions:
REMARK  status: ('A' for Active; 'I' for Inactive)
REMARK    1  A    between atoms: N_1  and  CA_2 
REMARK    2  A    between atoms: CA_2  and  C_3 
REMARK    3  A    between atoms: CA_2  and  CB_5 
REMARK    4  A    between atoms: CB_5  and  CG_6 
REMARK    5  A    between atoms: CG_6  and  CD1_7 
REMARK    6  A    between atoms: CG_6  and  CD2_8 
ROOT
ATOM      1  CB  LEU d          35.434  -0.921  37.426  0.00  0.00    -0.026 C 
ATOM      2  H5  LEU d          35.878  -0.742  36.436  0.00  0.00     0.037 H 
ATOM      3  H6  LEU d          35.907  -0.258  38.166  0.00  0.00     0.037 H 
ENDROOT
BRANCH   1   4
ATOM      4  CA  LEU d          35.783  -2.349  37.820  0.00  0.00     0.182 C 
ATOM      5  H4  LEU d          36.635  -2.697  37.218  0.00  0.00     0.101 H 
BRANCH   4   6
ATOM      6  N   LEU d          34.624  -3.239  37.605  0.00  0.00    -0.065 N 
ATOM      7  H1  LEU d          34.213  -3.043  36.706  0.00  0.00     0.275 HD
ATOM      8  H2  LEU d          33.940  -3.080  38.329  0.00  0.00     0.275 HD
ATOM      9  H3  LEU d          34.928  -4.200  37.635  0.00  0.00     0.275 HD
ENDBRANCH   4   6
BRANCH   4  10
ATOM     10  C   LEU d          36.136  -2.389  39.277  0.00  0.00     0.204 C 
ATOM     11  O   LEU d          35.218  -2.422  40.117  0.00  0.00    -0.646 OA
ATOM     12  OXT LEU d          37.321  -2.351  39.620  0.00  0.00    -0.646 OA
ENDBRANCH   4  10
ENDBRANCH   1   4
BRANCH   1  13
ATOM     13  CG  LEU d          33.958  -0.511  37.337  0.00  0.00    -0.059 C 
ATOM     14  H7  LEU d          33.377  -1.430  37.178  0.00  0.00     0.038 H 
BRANCH  13  15
ATOM     15  CD1 LEU d          33.446   0.141  38.656  0.00  0.00    -0.073 C 
ATOM     16  H8  LEU d          34.156   0.915  38.982  0.00  0.00     0.028 H 
ATOM     17  H9  LEU d          33.360  -0.630  39.437  0.00  0.00     0.028 H 
ATOM     18  H10 LEU d          32.460   0.597  38.480  0.00  0.00     0.028 H 
ENDBRANCH  13  15
BRANCH  13  19
ATOM     19  CD2 LEU d          33.697   0.388  36.174  0.00  0.00    -0.073 C 
ATOM     20  H11 LEU d          34.641   0.584  35.643  0.00  0.00     0.028 H 
ATOM     21  H12 LEU d          33.276   1.338  36.533  0.00  0.00     0.028 H 
ATOM     22  H13 LEU d          32.984  -0.094  35.491  0.00  0.00     0.028 H 
ENDBRANCH  13  19
ENDBRANCH   1  13
TORSDOF 6
ENDMDL
MODEL 6
REMARK VINA RESULT:      -3.6      2.322      2.808
REMARK  6 active torsions:
REMARK  status: ('A' for Active; 'I' for Inactive)
REMARK    1  A    between atoms: N_1  and  CA_2 
REMARK    2  A    between atoms: CA_2  and  C_3 
REMARK    3  A    between atoms: CA_2  and  CB_5 
REMARK    4  A    between atoms: CB_5  and  CG_6 
REMARK    5  A    between atoms: CG_6  and  CD1_7 
REMARK    6  A    between atoms: CG_6  and  CD2_8 
ROOT
ATOM      1  CB  LEU d          34.525  -1.000  39.093  0.00  0.00    -0.026 C 
ATOM      2  H5  LEU d          34.785   0.037  39.353  0.00  0.00     0.037 H 
ATOM      3  H6  LEU d          35.139  -1.692  39.687  0.00  0.00     0.037 H 
ENDROOT
BRANCH   1   4
ATOM      4  CA  LEU d          34.910  -1.202  37.635  0.00  0.00     0.182 C 
ATOM      5  H4  LEU d          34.508  -2.161  37.278  0.00  0.00     0.101 H 
BRANCH   4   6
ATOM      6  N   LEU d          36.380  -1.191  37.485  0.00  0.00    -0.065 N 
ATOM      7  H1  LEU d          36.805  -1.556  38.323  0.00  0.00     0.275 HD
ATOM      8  H2  LEU d          36.695  -0.246  37.333  0.00  0.00     0.275 HD
ATOM      9  H3  LEU d          36.642  -1.763  36.697  0.00  0.00     0.275 HD
ENDBRANCH   4   6
BRANCH   4  10
ATOM     10  C   LEU d          34.352  -0.077  36.814  0.00  0.00     0.204 C 
ATOM     11  O   LEU d          34.692   1.090  37.084  0.00  0.00    -0.646 OA
ATOM     12  OXT LEU d          33.542  -0.319  35.915  0.00  0.00    -0.646 OA
ENDBRANCH   4  10
ENDBRANCH   1   4
BRANCH   1  13
ATOM     13  CG  LEU d          33.066  -1.217  39.517  0.00  0.00    -0.059 C 
ATOM     14  H7  LEU d          33.065  -1.353  40.608  0.00  0.00     0.038 H 
BRANCH  13  15
ATOM     15  CD1 LEU d          32.170   0.018  39.201  0.00  0.00    -0.073 C 
ATOM     16  H8  LEU d          32.073   0.131  38.112  0.00  0.00     0.028 H 
ATOM     17  H9  LEU d          32.632   0.923  39.623  0.00  0.00     0.028 H 
ATOM     18  H10 LEU d          31.175  -0.129  39.646  0.00  0.00     0.028 H 
ENDBRANCH  13  15
BRANCH  13  19
ATOM     19  CD2 LEU d          32.486  -2.451  38.912  0.00  0.00    -0.073 C 
ATOM     20  H11 LEU d          32.293  -3.191  39.703  0.00  0.00     0.028 H 
ATOM     21  H12 LEU d          33.196  -2.871  38.184  0.00  0.00     0.028 H 
ATOM     22  H13 LEU d          31.544  -2.202  38.403  0.00  0.00     0.028 H 
ENDBRANCH  13  19
ENDBRANCH   1  13
TORSDOF 6
ENDMDL
MODEL 7
REMARK VINA RESULT:      -3.4      3.078      4.223
REMARK  6 active torsions:
REMARK  status: ('A' for Active; 'I' for Inactive)
REMARK    1  A    between atoms: N_1  and  CA_2 
REMARK    2  A    between atoms: CA_2  and  C_3 
REMARK    3  A    between atoms: CA_2  and  CB_5 
REMARK    4  A    between atoms: CB_5  and  CG_6 
REMARK    5  A    between atoms: CG_6  and  CD1_7 
REMARK    6  A    between atoms: CG_6  and  CD2_8 
ROOT
ATOM      1  CB  LEU d          34.571  -0.980  39.511  0.00  0.00    -0.026 C 
ATOM      2  H5  LEU d          34.734  -0.858  40.592  0.00  0.00     0.037 H 
ATOM      3  H6  LEU d          35.192  -0.257  38.963  0.00  0.00     0.037 H 
ENDROOT
BRANCH   1   4
ATOM      4  CA  LEU d          33.118  -0.619  39.237  0.00  0.00     0.182 C 
ATOM      5  H4  LEU d          32.642  -0.280  40.169  0.00  0.00     0.101 H 
BRANCH   4   6
ATOM      6  N   LEU d          32.391  -1.787  38.701  0.00  0.00    -0.065 N 
ATOM      7  H1  LEU d          31.845  -2.208  39.436  0.00  0.00     0.275 HD
ATOM      8  H2  LEU d          33.051  -2.460  38.345  0.00  0.00     0.275 HD
ATOM      9  H3  LEU d          31.780  -1.489  37.956  0.00  0.00     0.275 HD
ENDBRANCH   4   6
BRANCH   4  10
ATOM     10  C   LEU d          33.065   0.473  38.210  0.00  0.00     0.204 C 
ATOM     11  O   LEU d          32.073   1.224  38.182  0.00  0.00    -0.646 OA
ATOM     12  OXT LEU d          33.982   0.587  37.391  0.00  0.00    -0.646 OA
ENDBRANCH   4  10
ENDBRANCH   1   4
BRANCH   1  13
ATOM     13  CG  LEU d          35.076  -2.380  39.136  0.00  0.00    -0.059 C 
ATOM     14  H7  LEU d          34.211  -3.058  39.181  0.00  0.00     0.038 H 
BRANCH  13  15
ATOM     15  CD1 LEU d          35.633  -2.436  37.682  0.00  0.00    -0.073 C 
ATOM     16  H8  LEU d          35.836  -1.414  37.328  0.00  0.00     0.028 H 
ATOM     17  H9  LEU d          34.892  -2.911  37.022  0.00  0.00     0.028 H 
ATOM     18  H10 LEU d          36.565  -3.021  37.670  0.00  0.00     0.028 H 
ENDBRANCH  13  15
BRANCH  13  19
ATOM     19  CD2 LEU d          36.091  -2.887  40.105  0.00  0.00    -0.073 C 
ATOM     20  H11 LEU d          37.099  -2.753  39.683  0.00  0.00     0.028 H 
ATOM     21  H12 LEU d          35.913  -3.955  40.297  0.00  0.00     0.028 H 
ATOM     22  H13 LEU d          36.010  -2.326  41.047  0.00  0.00     0.028 H 
ENDBRANCH  13  19
ENDBRANCH   1  13
TORSDOF 6
ENDMDL
MODEL 8
REMARK VINA RESULT:      -3.1      1.464      2.026
REMARK  6 active torsions:
REMARK  status: ('A' for Active; 'I' for Inactive)
REMARK    1  A    between atoms: N_1  and  CA_2 
REMARK    2  A    between atoms: CA_2  and  C_3 
REMARK    3  A    between atoms: CA_2  and  CB_5 
REMARK    4  A    between atoms: CB_5  and  CG_6 
REMARK    5  A    between atoms: CG_6  and  CD1_7 
REMARK    6  A    between atoms: CG_6  and  CD2_8 
ROOT
ATOM      1  CB  LEU d          34.775  -1.002  37.458  0.00  0.00    -0.026 C 
ATOM      2  H5  LEU d          34.173  -1.784  36.972  0.00  0.00     0.037 H 
ATOM      3  H6  LEU d          35.423  -0.520  36.711  0.00  0.00     0.037 H 
ENDROOT
BRANCH   1   4
ATOM      4  CA  LEU d          35.687  -1.699  38.457  0.00  0.00     0.182 C 
ATOM      5  H4  LEU d          35.883  -1.027  39.306  0.00  0.00     0.101 H 
BRANCH   4   6
ATOM      6  N   LEU d          36.962  -2.074  37.813  0.00  0.00    -0.065 N 
ATOM      7  H1  LEU d          36.989  -1.699  36.878  0.00  0.00     0.275 HD
ATOM      8  H2  LEU d          37.036  -3.079  37.774  0.00  0.00     0.275 HD
ATOM      9  H3  LEU d          37.731  -1.701  38.347  0.00  0.00     0.275 HD
ENDBRANCH   4   6
BRANCH   4  10
ATOM     10  C   LEU d          35.024  -2.954  38.941  0.00  0.00     0.204 C 
ATOM     11  O   LEU d          34.354  -3.629  38.137  0.00  0.00    -0.646 OA
ATOM     12  OXT LEU d          35.121  -3.278  40.128  0.00  0.00    -0.646 OA
ENDBRANCH   4  10
ENDBRANCH   1   4
BRANCH   1  13
ATOM     13  CG  LEU d          33.797   0.069  37.961  0.00  0.00    -0.059 C 
ATOM     14  H7  LEU d          34.266   0.551  38.831  0.00  0.00     0.038 H 
BRANCH  13  15
ATOM     15  CD1 LEU d          33.539   1.178  36.898  0.00  0.00    -0.073 C 
ATOM     16  H8  LEU d          33.370   0.713  35.916  0.00  0.00     0.028 H 
ATOM     17  H9  LEU d          34.415   1.843  36.842  0.00  0.00     0.028 H 
ATOM     18  H10 LEU d          32.652   1.762  37.186  0.00  0.00     0.028 H 
ENDBRANCH  13  15
BRANCH  13  19
ATOM     19  CD2 LEU d          32.507  -0.524  38.421  0.00  0.00    -0.073 C 
ATOM     20  H11 LEU d          31.929  -0.865  37.549  0.00  0.00     0.028 H 
ATOM     21  H12 LEU d          31.929   0.235  38.968  0.00  0.00     0.028 H 
ATOM     22  H13 LEU d          32.711  -1.378  39.083  0.00  0.00     0.028 H 
ENDBRANCH  13  19
ENDBRANCH   1  13
TORSDOF 6
ENDMDL
MODEL 9
REMARK VINA RESULT:      -2.9      1.507      1.739
REMARK  6 active torsions:
REMARK  status: ('A' for Active; 'I' for Inactive)
REMARK    1  A    between atoms: N_1  and  CA_2 
REMARK    2  A    between atoms: CA_2  and  C_3 
REMARK    3  A    between atoms: CA_2  and  CB_5 
REMARK    4  A    between atoms: CB_5  and  CG_6 
REMARK    5  A    between atoms: CG_6  and  CD1_7 
REMARK    6  A    between atoms: CG_6  and  CD2_8 
ROOT
ATOM      1  CB  LEU d          33.143  -0.188  37.769  0.00  0.00    -0.026 C 
ATOM      2  H5  LEU d          32.669  -0.781  36.973  0.00  0.00     0.037 H 
ATOM      3  H6  LEU d          32.723   0.829  37.768  0.00  0.00     0.037 H 
ENDROOT
BRANCH   1   4
ATOM      4  CA  LEU d          34.617  -0.062  37.410  0.00  0.00     0.182 C 
ATOM      5  H4  LEU d          35.185   0.251  38.298  0.00  0.00     0.101 H 
BRANCH   4   6
ATOM      6  N   LEU d          34.799   0.926  36.328  0.00  0.00    -0.065 N 
ATOM      7  H1  LEU d          35.615   1.487  36.519  0.00  0.00     0.275 HD
ATOM      8  H2  LEU d          33.987   1.521  36.275  0.00  0.00     0.275 HD
ATOM      9  H3  LEU d          34.920   0.445  35.450  0.00  0.00     0.275 HD
ENDBRANCH   4   6
BRANCH   4  10
ATOM     10  C   LEU d          35.122  -1.386  36.920  0.00  0.00     0.204 C 
ATOM     11  O   LEU d          36.347  -1.606  36.939  0.00  0.00    -0.646 OA
ATOM     12  OXT LEU d          34.326  -2.218  36.476  0.00  0.00    -0.646 OA
ENDBRANCH   4  10
ENDBRANCH   1   4
BRANCH   1  13
ATOM     13  CG  LEU d          32.752  -0.833  39.105  0.00  0.00    -0.059 C 
ATOM     14  H7  LEU d          32.012  -0.172  39.578  0.00  0.00     0.038 H 
BRANCH  13  15
ATOM     15  CD1 LEU d          32.077  -2.224  38.913  0.00  0.00    -0.073 C 
ATOM     16  H8  LEU d          31.676  -2.298  37.891  0.00  0.00     0.028 H 
ATOM     17  H9  LEU d          31.257  -2.337  39.637  0.00  0.00     0.028 H 
ATOM     18  H10 LEU d          32.822  -3.018  39.074  0.00  0.00     0.028 H 
ENDBRANCH  13  15
BRANCH  13  19
ATOM     19  CD2 LEU d          33.914  -0.940  40.035  0.00  0.00    -0.073 C 
ATOM     20  H11 LEU d          34.706  -0.247  39.713  0.00  0.00     0.028 H 
ATOM     21  H12 LEU d          34.301  -1.970  40.021  0.00  0.00     0.028 H 
ATOM     22  H13 LEU d          33.593  -0.683  41.055  0.00  0.00     0.028 H 
ENDBRANCH  13  19
ENDBRANCH   1  13
TORSDOF 6
ENDMDL
MODEL 10
REMARK VINA RESULT:      -2.4      2.118      2.451
REMARK  6 active torsions:
REMARK  status: ('A' for Active; 'I' for Inactive)
REMARK    1  A    between atoms: N_1  and  CA_2 
REMARK    2  A    between atoms: CA_2  and  C_3 
REMARK    3  A    between atoms: CA_2  and  CB_5 
REMARK    4  A    between atoms: CB_5  and  CG_6 
REMARK    5  A    between atoms: CG_6  and  CD1_7 
REMARK    6  A    between atoms: CG_6  and  CD2_8 
ROOT
ATOM      1  CB  LEU d          32.913  -1.881  37.797  0.00  0.00    -0.026 C 
ATOM      2  H5  LEU d          32.185  -2.659  37.523  0.00  0.00     0.037 H 
ATOM      3  H6  LEU d          32.587  -0.914  37.386  0.00  0.00     0.037 H 
ENDROOT
BRANCH   1   4
ATOM      4  CA  LEU d          34.224  -2.237  37.111  0.00  0.00     0.182 C 
ATOM      5  H4  LEU d          34.014  -2.706  36.139  0.00  0.00     0.101 H 
BRANCH   4   6
ATOM      6  N   LEU d          35.009  -3.163  37.953  0.00  0.00    -0.065 N 
ATOM      7  H1  LEU d          34.896  -2.912  38.922  0.00  0.00     0.275 HD
ATOM      8  H2  LEU d          35.983  -3.102  37.701  0.00  0.00     0.275 HD
ATOM      9  H3  LEU d          34.683  -4.106  37.809  0.00  0.00     0.275 HD
ENDBRANCH   4   6
BRANCH   4  10
ATOM     10  C   LEU d          35.034  -0.990  36.913  0.00  0.00     0.204 C 
ATOM     11  O   LEU d          34.441   0.085  36.705  0.00  0.00    -0.646 OA
ATOM     12  OXT LEU d          36.267  -1.054  36.923  0.00  0.00    -0.646 OA
ENDBRANCH   4  10
ENDBRANCH   1   4
BRANCH   1  13
ATOM     13  CG  LEU d          32.880  -1.753  39.326  0.00  0.00    -0.059 C 
ATOM     14  H7  LEU d          31.842  -1.930  39.642  0.00  0.00     0.038 H 
BRANCH  13  15
ATOM     15  CD1 LEU d          33.769  -2.823  40.026  0.00  0.00    -0.073 C 
ATOM     16  H8  LEU d          33.149  -3.428  40.703  0.00  0.00     0.028 H 
ATOM     17  H9  LEU d          34.560  -2.322  40.604  0.00  0.00     0.028 H 
ATOM     18  H10 LEU d          34.226  -3.475  39.266  0.00  0.00     0.028 H 
ENDBRANCH  13  15
BRANCH  13  19
ATOM     19  CD2 LEU d          33.257  -0.382  39.780  0.00  0.00    -0.073 C 
ATOM     20  H11 LEU d          32.720  -0.144  40.711  0.00  0.00     0.028 H 
ATOM     21  H12 LEU d          32.986   0.348  39.004  0.00  0.00     0.028 H 
ATOM     22  H13 LEU d          34.340  -0.341  39.960  0.00  0.00     0.028 H 
ENDBRANCH  13  19
ENDBRANCH   1  13
TORSDOF 6
ENDMDL
