MODEL 1
REMARK VINA RESULT:     -11.1      0.000      0.000
REMARK  9 active torsions:
REMARK  status: ('A' for Active; 'I' for Inactive)
REMARK    1  A    between atoms: C9_2  and  O37_1 
REMARK    2  A    between atoms: C7_6  and  C6_7 
REMARK    3  A    between atoms: N3_14  and  C25_28 
REMARK    4  A    between atoms: N2_17  and  C21_26 
REMARK    5  A    between atoms: C21_26  and  C26_36 
REMARK    6  A    between atoms: C23_30  and  N4_31 
REMARK    7  A    between atoms: N4_31  and  C28_32 
REMARK    8  A    between atoms: C22_33  and  O6_34 
REMARK    9  A    between atoms: O6_34  and  C27_35 
ROOT
ATOM      1  C21 UCN d           5.747   4.322  13.581  0.00  0.00     0.168 C 
ATOM      2  O4  UCN d           6.149   3.586  14.721  0.00  0.00    -0.333 OA
ATOM      3  C25 UCN d           5.824   3.870  16.087  0.00  0.00     0.115 C 
ATOM      4  C24 UCN d           4.293   4.248  16.195  0.00  0.00     0.005 C 
ATOM      5  C23 UCN d           3.568   4.206  14.819  0.00  0.00     0.134 C 
ATOM      6  C22 UCN d           4.338   5.064  13.745  0.00  0.00     0.113 C 
ATOM      7  H12 UCN d           6.039   2.989  16.710  0.00  0.00     0.118 H 
ATOM      8  H13 UCN d           4.210   5.265  16.606  0.00  0.00     0.042 H 
ATOM      9  H14 UCN d           3.801   3.537  16.875  0.00  0.00     0.042 H 
ATOM     10  H15 UCN d           3.530   3.167  14.460  0.00  0.00     0.088 H 
ATOM     11  H21 UCN d           3.798   5.123  12.789  0.00  0.00     0.094 H 
ENDROOT
BRANCH   5  12
ATOM     12  N4  UCN d           2.092   4.711  15.082  0.00  0.00    -0.072 N 
ATOM     13  H16 UCN d           1.588   4.724  14.209  0.00  0.00     0.277 HD
ATOM     14  H17 UCN d           2.125   5.642  15.465  0.00  0.00     0.277 HD
BRANCH  12  15
ATOM     15  C28 UCN d           1.382   3.808  16.046  0.00  0.00     0.065 C 
ATOM     16  H18 UCN d           1.150   4.363  16.966  0.00  0.00     0.067 H 
ATOM     17  H19 UCN d           2.027   2.950  16.288  0.00  0.00     0.067 H 
ATOM     18  H20 UCN d           0.448   3.447  15.591  0.00  0.00     0.067 H 
ENDBRANCH  12  15
ENDBRANCH   5  12
BRANCH   6  19
ATOM     19  O6  UCN d           4.521   6.383  14.328  0.00  0.00    -0.384 OA
BRANCH  19  20
ATOM     20  C27 UCN d           5.128   7.295  13.425  0.00  0.00     0.005 C 
ATOM     21  H22 UCN d           4.651   7.206  12.438  0.00  0.00     0.066 H 
ATOM     22  H23 UCN d           6.201   7.065  13.338  0.00  0.00     0.066 H 
ATOM     23  H24 UCN d           5.002   8.321  13.801  0.00  0.00     0.066 H 
ENDBRANCH  19  20
ENDBRANCH   6  19
BRANCH   3  24
ATOM     24  N3  UCN d           6.613   5.030  16.562  0.00  0.00    -0.316 N 
ATOM     25  C20 UCN d           7.904   5.272  16.184  0.00  0.00     0.048 A 
ATOM     26  C5  UCN d           8.255   6.624  16.572  0.00  0.00     0.004 A 
ATOM     27  C1  UCN d           8.836   4.406  15.512  0.00  0.00    -0.056 A 
ATOM     28  C6  UCN d           7.117   7.175  17.206  0.00  0.00     0.022 A 
ATOM     29  C4  UCN d           9.558   7.072  16.264  0.00  0.00    -0.070 A 
ATOM     30  C19 UCN d           6.062   6.181  17.215  0.00  0.00     0.077 A 
ATOM     31  C18 UCN d           4.822   6.418  17.786  0.00  0.00     0.077 A 
ATOM     32  N2  UCN d           3.640   5.600  17.946  0.00  0.00    -0.308 N 
ATOM     33  C11 UCN d           4.499   7.704  18.411  0.00  0.00     0.017 A 
ATOM     34  C17 UCN d           2.615   6.331  18.624  0.00  0.00     0.049 A 
ATOM     35  C12 UCN d           3.165   7.644  18.909  0.00  0.00     0.004 A 
ATOM     36  C16 UCN d           1.310   6.031  19.034  0.00  0.00    -0.056 A 
ATOM     37  C13 UCN d           2.359   8.581  19.591  0.00  0.00    -0.070 A 
ATOM     38  C14 UCN d           1.051   8.288  19.998  0.00  0.00    -0.082 A 
ATOM     39  H8  UCN d           2.767   9.563  19.808  0.00  0.00     0.084 H 
ATOM     40  C15 UCN d           0.533   6.969  19.701  0.00  0.00    -0.081 A 
ATOM     41  H9  UCN d           0.447   9.023  20.517  0.00  0.00     0.083 H 
ATOM     42  H10 UCN d          -0.475   6.710  20.004  0.00  0.00     0.083 H 
ATOM     43  H11 UCN d           0.898   5.050  18.827  0.00  0.00     0.087 H 
ATOM     44  C10 UCN d           5.546   8.700  18.396  0.00  0.00     0.020 A 
ATOM     45  C9  UCN d           5.477  10.116  18.983  0.00  0.00     0.131 A 
ATOM     46  C7  UCN d           6.744   8.478  17.859  0.00  0.00     0.057 A 
ATOM     47  N1  UCN d           6.817  10.555  18.661  0.00  0.00    -0.326 N 
ATOM     48  H2  UCN d           4.706  10.735  18.501  0.00  0.00     0.126 H 
ATOM     49  C8  UCN d           7.613   9.683  18.019  0.00  0.00     0.255 A 
ATOM     50  H3  UCN d           7.139  11.470  18.907  0.00  0.00     0.165 HD
ATOM     51  O5  UCN d           8.771   9.844  17.661  0.00  0.00    -0.268 OA
ATOM     52  C3  UCN d          10.469   6.253  15.617  0.00  0.00    -0.082 A 
ATOM     53  H7  UCN d           9.853   8.078  16.539  0.00  0.00     0.084 H 
ATOM     54  C2  UCN d          10.116   4.909  15.234  0.00  0.00    -0.081 A 
ATOM     55  H6  UCN d          11.461   6.628  15.394  0.00  0.00     0.083 H 
ATOM     56  H5  UCN d          10.844   4.284  14.730  0.00  0.00     0.083 H 
ATOM     57  H4  UCN d           8.559   3.398  15.229  0.00  0.00     0.087 H 
BRANCH  45  58
ATOM     58  O37 UCN d           5.264  10.074  20.389  0.00  0.00    -0.372 OA
ATOM     59  H1  UCN d           5.504  10.910  20.771  0.00  0.00     0.212 HD
ENDBRANCH  45  58
ENDBRANCH   3  24
BRANCH   1  60
ATOM     60  C26 UCN d           5.610   3.265  12.490  0.00  0.00    -0.028 C 
ATOM     61  H25 UCN d           4.771   2.596  12.732  0.00  0.00     0.034 H 
ATOM     62  H26 UCN d           6.540   2.679  12.428  0.00  0.00     0.034 H 
ATOM     63  H27 UCN d           5.421   3.757  11.525  0.00  0.00     0.034 H 
ENDBRANCH   1  60
TORSDOF 9
ENDMDL
MODEL 2
REMARK VINA RESULT:     -10.8      1.056      5.293
REMARK  9 active torsions:
REMARK  status: ('A' for Active; 'I' for Inactive)
REMARK    1  A    between atoms: C9_2  and  O37_1 
REMARK    2  A    between atoms: C7_6  and  C6_7 
REMARK    3  A    between atoms: N3_14  and  C25_28 
REMARK    4  A    between atoms: N2_17  and  C21_26 
REMARK    5  A    between atoms: C21_26  and  C26_36 
REMARK    6  A    between atoms: C23_30  and  N4_31 
REMARK    7  A    between atoms: N4_31  and  C28_32 
REMARK    8  A    between atoms: C22_33  and  O6_34 
REMARK    9  A    between atoms: O6_34  and  C27_35 
ROOT
ATOM      1  C21 UCN d           4.652   4.174  14.688  0.00  0.00     0.168 C 
ATOM      2  O4  UCN d           4.954   3.826  16.026  0.00  0.00    -0.333 OA
ATOM      3  C25 UCN d           4.126   4.030  17.177  0.00  0.00     0.115 C 
ATOM      4  C24 UCN d           2.638   3.624  16.831  0.00  0.00     0.005 C 
ATOM      5  C23 UCN d           2.480   3.118  15.369  0.00  0.00     0.134 C 
ATOM      6  C22 UCN d           3.089   4.148  14.343  0.00  0.00     0.113 C 
ATOM      7  H12 UCN d           4.498   3.421  18.014  0.00  0.00     0.118 H 
ATOM      8  H13 UCN d           1.992   4.503  16.972  0.00  0.00     0.042 H 
ATOM      9  H14 UCN d           2.323   2.824  17.518  0.00  0.00     0.042 H 
ATOM     10  H15 UCN d           3.018   2.166  15.253  0.00  0.00     0.088 H 
ATOM     11  H21 UCN d           2.910   3.855  13.298  0.00  0.00     0.094 H 
ENDROOT
BRANCH   5  12
ATOM     12  N4  UCN d           0.934   2.862  15.155  0.00  0.00    -0.072 N 
ATOM     13  H16 UCN d           0.786   2.491  14.229  0.00  0.00     0.277 HD
ATOM     14  H17 UCN d           0.438   3.734  15.250  0.00  0.00     0.277 HD
BRANCH  12  15
ATOM     15  C28 UCN d           0.409   1.885  16.165  0.00  0.00     0.065 C 
ATOM     16  H18 UCN d           0.772   0.876  15.923  0.00  0.00     0.067 H 
ATOM     17  H19 UCN d          -0.691   1.894  16.146  0.00  0.00     0.067 H 
ATOM     18  H20 UCN d           0.760   2.170  17.168  0.00  0.00     0.067 H 
ENDBRANCH  12  15
ENDBRANCH   5  12
BRANCH   6  19
ATOM     19  O6  UCN d           2.479   5.433  14.641  0.00  0.00    -0.384 OA
BRANCH  19  20
ATOM     20  C27 UCN d           3.374   6.517  14.444  0.00  0.00     0.005 C 
ATOM     21  H22 UCN d           3.325   7.195  15.309  0.00  0.00     0.066 H 
ATOM     22  H23 UCN d           3.092   7.064  13.532  0.00  0.00     0.066 H 
ATOM     23  H24 UCN d           4.399   6.132  14.339  0.00  0.00     0.066 H 
ENDBRANCH  19  20
ENDBRANCH   6  19
BRANCH   3  24
ATOM     24  N3  UCN d           4.130   5.463  17.552  0.00  0.00    -0.316 N 
ATOM     25  C20 UCN d           3.092   6.082  18.189  0.00  0.00     0.048 A 
ATOM     26  C5  UCN d           3.547   7.370  18.675  0.00  0.00     0.004 A 
ATOM     27  C1  UCN d           1.744   5.621  18.399  0.00  0.00    -0.056 A 
ATOM     28  C6  UCN d           4.902   7.494  18.290  0.00  0.00     0.022 A 
ATOM     29  C4  UCN d           2.614   8.169  19.372  0.00  0.00    -0.070 A 
ATOM     30  C19 UCN d           5.295   6.299  17.573  0.00  0.00     0.077 A 
ATOM     31  C18 UCN d           6.567   6.129  17.050  0.00  0.00     0.077 A 
ATOM     32  N2  UCN d           7.184   5.065  16.288  0.00  0.00    -0.308 N 
ATOM     33  C11 UCN d           7.602   7.155  17.204  0.00  0.00     0.017 A 
ATOM     34  C17 UCN d           8.543   5.392  15.984  0.00  0.00     0.049 A 
ATOM     35  C12 UCN d           8.791   6.701  16.563  0.00  0.00     0.004 A 
ATOM     36  C16 UCN d           9.570   4.746  15.286  0.00  0.00    -0.056 A 
ATOM     37  C13 UCN d          10.069   7.279  16.403  0.00  0.00    -0.070 A 
ATOM     38  C14 UCN d          11.101   6.633  15.711  0.00  0.00    -0.082 A 
ATOM     39  H8  UCN d          10.258   8.257  16.832  0.00  0.00     0.084 H 
ATOM     40  C15 UCN d          10.821   5.331  15.144  0.00  0.00    -0.081 A 
ATOM     41  H9  UCN d          12.077   7.093  15.603  0.00  0.00     0.083 H 
ATOM     42  H10 UCN d          11.599   4.806  14.600  0.00  0.00     0.083 H 
ATOM     43  H11 UCN d           9.386   3.771  14.849  0.00  0.00     0.087 H 
ATOM     44  C10 UCN d           7.216   8.346  17.926  0.00  0.00     0.020 A 
ATOM     45  C9  UCN d           8.094   9.569  18.222  0.00  0.00     0.131 A 
ATOM     46  C7  UCN d           5.993   8.522  18.423  0.00  0.00     0.057 A 
ATOM     47  N1  UCN d           7.123  10.373  18.930  0.00  0.00    -0.326 N 
ATOM     48  H2  UCN d           8.967   9.321  18.843  0.00  0.00     0.126 H 
ATOM     49  C8  UCN d           5.894   9.855  19.092  0.00  0.00     0.255 A 
ATOM     50  H3  UCN d           7.357  11.279  19.285  0.00  0.00     0.165 HD
ATOM     51  O5  UCN d           4.931  10.362  19.647  0.00  0.00    -0.268 OA
ATOM     52  C3  UCN d           1.313   7.742  19.583  0.00  0.00    -0.082 A 
ATOM     53  H7  UCN d           2.922   9.138  19.749  0.00  0.00     0.084 H 
ATOM     54  C2  UCN d           0.865   6.461  19.097  0.00  0.00    -0.081 A 
ATOM     55  H6  UCN d           0.623   8.380  20.123  0.00  0.00     0.083 H 
ATOM     56  H5  UCN d          -0.157   6.147  19.273  0.00  0.00     0.083 H 
ATOM     57  H4  UCN d           1.420   4.655  18.029  0.00  0.00     0.087 H 
BRANCH  45  58
ATOM     58  O37 UCN d           8.514  10.196  17.015  0.00  0.00    -0.372 OA
ATOM     59  H1  UCN d           8.712  11.110  17.186  0.00  0.00     0.212 HD
ENDBRANCH  45  58
ENDBRANCH   3  24
BRANCH   1  60
ATOM     60  C26 UCN d           5.345   3.095  13.862  0.00  0.00    -0.028 C 
ATOM     61  H25 UCN d           5.200   3.305  12.792  0.00  0.00     0.034 H 
ATOM     62  H26 UCN d           4.913   2.113  14.104  0.00  0.00     0.034 H 
ATOM     63  H27 UCN d           6.420   3.091  14.093  0.00  0.00     0.034 H 
ENDBRANCH   1  60
TORSDOF 9
ENDMDL
MODEL 3
REMARK VINA RESULT:      -9.1      2.115      5.437
REMARK  9 active torsions:
REMARK  status: ('A' for Active; 'I' for Inactive)
REMARK    1  A    between atoms: C9_2  and  O37_1 
REMARK    2  A    between atoms: C7_6  and  C6_7 
REMARK    3  A    between atoms: N3_14  and  C25_28 
REMARK    4  A    between atoms: N2_17  and  C21_26 
REMARK    5  A    between atoms: C21_26  and  C26_36 
REMARK    6  A    between atoms: C23_30  and  N4_31 
REMARK    7  A    between atoms: N4_31  and  C28_32 
REMARK    8  A    between atoms: C22_33  and  O6_34 
REMARK    9  A    between atoms: O6_34  and  C27_35 
ROOT
ATOM      1  C21 UCN d           6.251   4.719  14.738  0.00  0.00     0.168 C 
ATOM      2  O4  UCN d           6.062   4.067  15.980  0.00  0.00    -0.333 OA
ATOM      3  C25 UCN d           5.007   3.160  16.325  0.00  0.00     0.115 C 
ATOM      4  C24 UCN d           4.776   2.146  15.136  0.00  0.00     0.005 C 
ATOM      5  C23 UCN d           5.740   2.395  13.941  0.00  0.00     0.134 C 
ATOM      6  C22 UCN d           5.695   3.901  13.480  0.00  0.00     0.113 C 
ATOM      7  H12 UCN d           5.273   2.613  17.241  0.00  0.00     0.118 H 
ATOM      8  H13 UCN d           3.741   2.249  14.781  0.00  0.00     0.042 H 
ATOM      9  H14 UCN d           4.935   1.123  15.510  0.00  0.00     0.042 H 
ATOM     10  H15 UCN d           6.771   2.167  14.251  0.00  0.00     0.088 H 
ATOM     11  H21 UCN d           6.300   4.083  12.580  0.00  0.00     0.094 H 
ENDROOT
BRANCH   5  12
ATOM     12  N4  UCN d           5.310   1.381  12.806  0.00  0.00    -0.072 N 
ATOM     13  H16 UCN d           4.372   1.597  12.508  0.00  0.00     0.277 HD
ATOM     14  H17 UCN d           5.337   0.443  13.174  0.00  0.00     0.277 HD
BRANCH  12  15
ATOM     15  C28 UCN d           6.234   1.473  11.628  0.00  0.00     0.065 C 
ATOM     16  H18 UCN d           5.754   2.059  10.831  0.00  0.00     0.067 H 
ATOM     17  H19 UCN d           6.457   0.462  11.256  0.00  0.00     0.067 H 
ATOM     18  H20 UCN d           7.169   1.966  11.933  0.00  0.00     0.067 H 
ENDBRANCH  12  15
ENDBRANCH   5  12
BRANCH   6  19
ATOM     19  O6  UCN d           4.295   4.216  13.244  0.00  0.00    -0.384 OA
BRANCH  19  20
ATOM     20  C27 UCN d           3.987   5.570  13.539  0.00  0.00     0.005 C 
ATOM     21  H22 UCN d           3.633   5.648  14.577  0.00  0.00     0.066 H 
ATOM     22  H23 UCN d           3.200   5.924  12.855  0.00  0.00     0.066 H 
ATOM     23  H24 UCN d           4.888   6.187  13.412  0.00  0.00     0.066 H 
ENDBRANCH  19  20
ENDBRANCH   6  19
BRANCH   3  24
ATOM     24  N3  UCN d           3.747   3.912  16.531  0.00  0.00    -0.316 N 
ATOM     25  C20 UCN d           2.505   3.367  16.363  0.00  0.00     0.048 A 
ATOM     26  C5  UCN d           1.523   4.265  16.941  0.00  0.00     0.004 A 
ATOM     27  C1  UCN d           2.129   2.126  15.739  0.00  0.00    -0.056 A 
ATOM     28  C6  UCN d           2.236   5.373  17.453  0.00  0.00     0.022 A 
ATOM     29  C4  UCN d           0.167   3.876  16.873  0.00  0.00    -0.070 A 
ATOM     30  C19 UCN d           3.649   5.175  17.202  0.00  0.00     0.077 A 
ATOM     31  C18 UCN d           4.608   6.104  17.574  0.00  0.00     0.077 A 
ATOM     32  N2  UCN d           6.045   6.152  17.415  0.00  0.00    -0.308 N 
ATOM     33  C11 UCN d           4.245   7.348  18.259  0.00  0.00     0.017 A 
ATOM     34  C17 UCN d           6.569   7.356  17.981  0.00  0.00     0.049 A 
ATOM     35  C12 UCN d           5.434   8.094  18.505  0.00  0.00     0.004 A 
ATOM     36  C16 UCN d           7.854   7.903  18.095  0.00  0.00    -0.056 A 
ATOM     37  C13 UCN d           5.665   9.344  19.118  0.00  0.00    -0.070 A 
ATOM     38  C14 UCN d           6.949   9.892  19.241  0.00  0.00    -0.082 A 
ATOM     39  H8  UCN d           4.820   9.900  19.509  0.00  0.00     0.084 H 
ATOM     40  C15 UCN d           8.059   9.133  18.706  0.00  0.00    -0.081 A 
ATOM     41  H9  UCN d           7.106  10.852  19.719  0.00  0.00     0.083 H 
ATOM     42  H10 UCN d           9.065   9.530  18.783  0.00  0.00     0.083 H 
ATOM     43  H11 UCN d           8.703   7.356  17.701  0.00  0.00     0.087 H 
ATOM     44  C10 UCN d           2.837   7.545  18.518  0.00  0.00     0.020 A 
ATOM     45  C9  UCN d           2.188   8.752  19.207  0.00  0.00     0.131 A 
ATOM     46  C7  UCN d           1.908   6.663  18.156  0.00  0.00     0.057 A 
ATOM     47  N1  UCN d           0.805   8.338  19.124  0.00  0.00    -0.326 N 
ATOM     48  H2  UCN d           2.527   8.878  20.246  0.00  0.00     0.126 H 
ATOM     49  C8  UCN d           0.550   7.157  18.538  0.00  0.00     0.255 A 
ATOM     50  H3  UCN d           0.068   8.908  19.489  0.00  0.00     0.165 HD
ATOM     51  O5  UCN d          -0.536   6.625  18.359  0.00  0.00    -0.268 OA
ATOM     52  C3  UCN d          -0.213   2.685  16.277  0.00  0.00    -0.082 A 
ATOM     53  H7  UCN d          -0.593   4.524  17.296  0.00  0.00     0.084 H 
ATOM     54  C2  UCN d           0.766   1.797  15.702  0.00  0.00    -0.081 A 
ATOM     55  H6  UCN d          -1.263   2.416  16.241  0.00  0.00     0.083 H 
ATOM     56  H5  UCN d           0.447   0.870  15.240  0.00  0.00     0.083 H 
ATOM     57  H4  UCN d           2.875   1.467  15.312  0.00  0.00     0.087 H 
BRANCH  45  58
ATOM     58  O37 UCN d           2.423   9.946  18.468  0.00  0.00    -0.372 OA
ATOM     59  H1  UCN d           2.682  10.640  19.062  0.00  0.00     0.212 HD
ENDBRANCH  45  58
ENDBRANCH   3  24
BRANCH   1  60
ATOM     60  C26 UCN d           7.766   4.830  14.608  0.00  0.00    -0.028 C 
ATOM     61  H25 UCN d           8.172   5.350  15.489  0.00  0.00     0.034 H 
ATOM     62  H26 UCN d           8.016   5.399  13.700  0.00  0.00     0.034 H 
ATOM     63  H27 UCN d           8.204   3.823  14.542  0.00  0.00     0.034 H 
ENDBRANCH   1  60
TORSDOF 9
ENDMDL
MODEL 4
REMARK VINA RESULT:      -9.0      1.649      5.437
REMARK  9 active torsions:
REMARK  status: ('A' for Active; 'I' for Inactive)
REMARK    1  A    between atoms: C9_2  and  O37_1 
REMARK    2  A    between atoms: C7_6  and  C6_7 
REMARK    3  A    between atoms: N3_14  and  C25_28 
REMARK    4  A    between atoms: N2_17  and  C21_26 
REMARK    5  A    between atoms: C21_26  and  C26_36 
REMARK    6  A    between atoms: C23_30  and  N4_31 
REMARK    7  A    between atoms: N4_31  and  C28_32 
REMARK    8  A    between atoms: C22_33  and  O6_34 
REMARK    9  A    between atoms: O6_34  and  C27_35 
ROOT
ATOM      1  C21 UCN d           5.200   3.460  13.290  0.00  0.00     0.168 C 
ATOM      2  O4  UCN d           5.360   2.902  14.581  0.00  0.00    -0.333 OA
ATOM      3  C25 UCN d           4.341   2.720  15.572  0.00  0.00     0.115 C 
ATOM      4  C24 UCN d           3.039   2.144  14.887  0.00  0.00     0.005 C 
ATOM      5  C23 UCN d           3.213   1.930  13.356  0.00  0.00     0.134 C 
ATOM      6  C22 UCN d           3.748   3.237  12.657  0.00  0.00     0.113 C 
ATOM      7  H12 UCN d           4.698   2.025  16.347  0.00  0.00     0.118 H 
ATOM      8  H13 UCN d           2.213   2.851  15.052  0.00  0.00     0.042 H 
ATOM      9  H14 UCN d           2.793   1.178  15.353  0.00  0.00     0.042 H 
ATOM     10  H15 UCN d           3.947   1.128  13.182  0.00  0.00     0.088 H 
ATOM     11  H21 UCN d           3.794   3.139  11.562  0.00  0.00     0.094 H 
ENDROOT
BRANCH   5  12
ATOM     12  N4  UCN d           1.804   1.461  12.812  0.00  0.00    -0.072 N 
ATOM     13  H16 UCN d           1.899   0.551  12.390  0.00  0.00     0.277 HD
ATOM     14  H17 UCN d           1.481   2.120  12.121  0.00  0.00     0.277 HD
BRANCH  12  15
ATOM     15  C28 UCN d           0.800   1.384  13.924  0.00  0.00     0.065 C 
ATOM     16  H18 UCN d           0.098   0.560  13.728  0.00  0.00     0.067 H 
ATOM     17  H19 UCN d           0.246   2.332  13.985  0.00  0.00     0.067 H 
ATOM     18  H20 UCN d           1.321   1.203  14.876  0.00  0.00     0.067 H 
ENDBRANCH  12  15
ENDBRANCH   5  12
BRANCH   6  19
ATOM     19  O6  UCN d           2.849   4.310  13.051  0.00  0.00    -0.384 OA
BRANCH  19  20
ATOM     20  C27 UCN d           3.539   5.512  13.353  0.00  0.00     0.005 C 
ATOM     21  H22 UCN d           4.353   5.660  12.627  0.00  0.00     0.066 H 
ATOM     22  H23 UCN d           3.961   5.448  14.368  0.00  0.00     0.066 H 
ATOM     23  H24 UCN d           2.841   6.360  13.299  0.00  0.00     0.066 H 
ENDBRANCH  19  20
ENDBRANCH   6  19
BRANCH   3  24
ATOM     24  N3  UCN d           3.994   4.025  16.182  0.00  0.00    -0.316 N 
ATOM     25  C20 UCN d           2.755   4.325  16.673  0.00  0.00     0.048 A 
ATOM     26  C5  UCN d           2.850   5.537  17.463  0.00  0.00     0.004 A 
ATOM     27  C1  UCN d           1.509   3.625  16.498  0.00  0.00    -0.056 A 
ATOM     28  C6  UCN d           4.201   5.950  17.414  0.00  0.00     0.022 A 
ATOM     29  C4  UCN d           1.666   6.015  18.066  0.00  0.00    -0.070 A 
ATOM     30  C19 UCN d           4.948   5.009  16.604  0.00  0.00     0.077 A 
ATOM     31  C18 UCN d           6.303   5.154  16.353  0.00  0.00     0.077 A 
ATOM     32  N2  UCN d           7.247   4.385  15.572  0.00  0.00    -0.308 N 
ATOM     33  C11 UCN d           7.069   6.274  16.907  0.00  0.00     0.017 A 
ATOM     34  C17 UCN d           8.547   4.977  15.636  0.00  0.00     0.049 A 
ATOM     35  C12 UCN d           8.422   6.157  16.473  0.00  0.00     0.004 A 
ATOM     36  C16 UCN d           9.793   4.661  15.079  0.00  0.00    -0.056 A 
ATOM     37  C13 UCN d           9.568   6.948  16.702  0.00  0.00    -0.070 A 
ATOM     38  C14 UCN d          10.817   6.633  16.152  0.00  0.00    -0.082 A 
ATOM     39  H8  UCN d           9.479   7.831  17.325  0.00  0.00     0.084 H 
ATOM     40  C15 UCN d          10.908   5.452  15.319  0.00  0.00    -0.081 A 
ATOM     41  H9  UCN d          11.687   7.252  16.343  0.00  0.00     0.083 H 
ATOM     42  H10 UCN d          11.861   5.181  14.878  0.00  0.00     0.083 H 
ATOM     43  H11 UCN d           9.888   3.783  14.450  0.00  0.00     0.087 H 
ATOM     44  C10 UCN d           6.330   7.210  17.722  0.00  0.00     0.020 A 
ATOM     45  C9  UCN d           6.880   8.465  18.411  0.00  0.00     0.131 A 
ATOM     46  C7  UCN d           5.026   7.084  17.961  0.00  0.00     0.057 A 
ATOM     47  N1  UCN d           5.656   8.941  19.018  0.00  0.00    -0.326 N 
ATOM     48  H2  UCN d           7.655   8.232  19.157  0.00  0.00     0.126 H 
ATOM     49  C8  UCN d           4.545   8.214  18.812  0.00  0.00     0.255 A 
ATOM     50  H3  UCN d           5.638   9.776  19.567  0.00  0.00     0.165 HD
ATOM     51  O5  UCN d           3.415   8.436  19.222  0.00  0.00    -0.268 OA
ATOM     52  C3  UCN d           0.458   5.354  17.909  0.00  0.00    -0.082 A 
ATOM     53  H7  UCN d           1.702   6.918  18.664  0.00  0.00     0.084 H 
ATOM     54  C2  UCN d           0.368   4.151  17.121  0.00  0.00    -0.081 A 
ATOM     55  H6  UCN d          -0.432   5.748  18.385  0.00  0.00     0.083 H 
ATOM     56  H5  UCN d          -0.587   3.650  17.010  0.00  0.00     0.083 H 
ATOM     57  H4  UCN d           1.455   2.720  15.904  0.00  0.00     0.087 H 
BRANCH  45  58
ATOM     58  O37 UCN d           7.385   9.391  17.455  0.00  0.00    -0.372 OA
ATOM     59  H1  UCN d           8.322   9.492  17.577  0.00  0.00     0.212 HD
ENDBRANCH  45  58
ENDBRANCH   3  24
BRANCH   1  60
ATOM     60  C26 UCN d           6.218   2.710  12.437  0.00  0.00    -0.028 C 
ATOM     61  H25 UCN d           6.937   3.425  12.012  0.00  0.00     0.034 H 
ATOM     62  H26 UCN d           5.697   2.185  11.622  0.00  0.00     0.034 H 
ATOM     63  H27 UCN d           6.752   1.979  13.062  0.00  0.00     0.034 H 
ENDBRANCH   1  60
TORSDOF 9
ENDMDL
