MODEL 1
REMARK VINA RESULT:     -12.1      0.000      0.000
REMARK  3 active torsions:
REMARK  status: ('A' for Active; 'I' for Inactive)
REMARK    1  A    between atoms: C14_16  and  N2_2 
REMARK    2  A    between atoms: C8_10  and  C18_20 
REMARK    3  A    between atoms: C18_20  and  C10_12 
ROOT
ATOM      1  N1  HUX d           5.748  69.742  65.241  0.00  0.00    -0.252 NA
ATOM      2  C1  HUX d           6.571  70.860  68.685  0.00  0.00     0.036 A 
ATOM      3  C2  HUX d           6.689  70.519  67.244  0.00  0.00    -0.033 A 
ATOM      4  C3  HUX d           5.524  70.085  66.642  0.00  0.00     0.071 A 
ATOM      5  C4  HUX d           4.693  69.262  64.551  0.00  0.00     0.044 A 
ATOM      6  C5  HUX d           5.055  68.888  63.013  0.00  0.00    -0.018 C 
ATOM      7  C6  HUX d           4.054  67.889  62.408  0.00  0.00    -0.032 C 
ATOM      8  C7  HUX d           4.058  66.404  63.178  0.00  0.00    -0.096 C 
ATOM      9  C8  HUX d           3.248  66.006  64.162  0.00  0.00    -0.083 C 
ATOM     10  C9  HUX d           2.202  67.002  64.610  0.00  0.00    -0.037 C 
ATOM     11  C11 HUX d           2.319  68.443  64.134  0.00  0.00    -0.020 C 
ATOM     12  C12 HUX d           2.651  68.435  62.578  0.00  0.00    -0.051 C 
ATOM     13  C13 HUX d           3.410  69.051  65.024  0.00  0.00    -0.002 A 
ATOM     14  C14 HUX d           3.184  69.426  66.463  0.00  0.00     0.047 A 
ATOM     15  C15 HUX d           4.281  69.927  67.205  0.00  0.00     0.019 A 
ATOM     16  C16 HUX d           4.119  70.297  68.659  0.00  0.00    -0.067 A 
ATOM     17  C17 HUX d           5.211  70.725  69.317  0.00  0.00    -0.061 A 
ATOM     18 CL1  HUX d           7.863  71.339  69.618  0.00  0.00    -0.084 Cl
ATOM     19  H3  HUX d           7.625  70.605  66.703  0.00  0.00     0.089 H 
ATOM     20  H4  HUX d           6.061  68.443  62.983  0.00  0.00     0.043 H 
ATOM     21  H5  HUX d           5.043  69.809  62.411  0.00  0.00     0.043 H 
ATOM     22  H6  HUX d           4.286  67.752  61.342  0.00  0.00     0.046 H 
ATOM     23  H7  HUX d           4.802  65.684  62.840  0.00  0.00     0.077 H 
ATOM     24  H8  HUX d           2.222  67.020  65.709  0.00  0.00     0.040 H 
ATOM     25  H9  HUX d           1.227  66.625  64.266  0.00  0.00     0.040 H 
ATOM     26  H13 HUX d           1.375  68.985  64.291  0.00  0.00     0.048 H 
ATOM     27  H14 HUX d           1.933  67.794  62.046  0.00  0.00     0.035 H 
ATOM     28  H15 HUX d           2.596  69.458  62.178  0.00  0.00     0.035 H 
ATOM     29  H16 HUX d           3.158  70.222  69.154  0.00  0.00     0.085 H 
ATOM     30  H17 HUX d           5.106  70.987  70.364  0.00  0.00     0.086 H 
ENDROOT
BRANCH   9  31
ATOM     31  C18 HUX d           3.447  64.562  64.769  0.00  0.00    -0.048 C 
ATOM     32  H18 HUX d           2.471  64.058  64.709  0.00  0.00     0.039 H 
ATOM     33  H19 HUX d           3.725  64.700  65.824  0.00  0.00     0.039 H 
BRANCH  31  34
ATOM     34  C10 HUX d           4.484  63.590  64.162  0.00  0.00    -0.073 C 
ATOM     35  H10 HUX d           4.470  62.642  64.721  0.00  0.00     0.028 H 
ATOM     36  H11 HUX d           5.487  64.038  64.223  0.00  0.00     0.028 H 
ATOM     37  H12 HUX d           4.232  63.396  63.108  0.00  0.00     0.028 H 
ENDBRANCH  31  34
ENDBRANCH   9  31
BRANCH  14  38
ATOM     38  N2  HUX d           1.916  69.223  66.976  0.00  0.00    -0.398 N 
ATOM     39  H1  HUX d           1.169  68.854  66.370  0.00  0.00     0.156 HD
ATOM     40  H2  HUX d           1.719  69.439  67.964  0.00  0.00     0.156 HD
ENDBRANCH  14  38
TORSDOF 3
ENDMDL
