MODEL 1
REMARK VINA RESULT:     -11.7      0.000      0.000
REMARK  3 active torsions:
REMARK  status: ('A' for Active; 'I' for Inactive)
REMARK    1  A    between atoms: C14_16  and  N2_2 
REMARK    2  A    between atoms: C8_10  and  C18_20 
REMARK    3  A    between atoms: C18_20  and  C10_12 
ROOT
ATOM      1  N1  HUX d           5.551  69.766  65.233  0.00  0.00    -0.252 NA
ATOM      2  C1  HUX d           6.209  70.777  68.744  0.00  0.00     0.036 A 
ATOM      3  C2  HUX d           6.392  70.492  67.299  0.00  0.00    -0.033 A 
ATOM      4  C3  HUX d           5.264  70.051  66.635  0.00  0.00     0.071 A 
ATOM      5  C4  HUX d           4.537  69.285  64.484  0.00  0.00     0.044 A 
ATOM      6  C5  HUX d           4.969  68.977  62.949  0.00  0.00    -0.018 C 
ATOM      7  C6  HUX d           4.019  67.976  62.270  0.00  0.00    -0.032 C 
ATOM      8  C7  HUX d           4.033  66.464  62.986  0.00  0.00    -0.096 C 
ATOM      9  C8  HUX d           3.196  66.009  63.921  0.00  0.00    -0.083 C 
ATOM     10  C9  HUX d           2.108  66.961  64.362  0.00  0.00    -0.037 C 
ATOM     11  C11 HUX d           2.205  68.422  63.944  0.00  0.00    -0.020 C 
ATOM     12  C12 HUX d           2.596  68.479  62.403  0.00  0.00    -0.051 C 
ATOM     13  C13 HUX d           3.242  69.024  64.898  0.00  0.00    -0.002 A 
ATOM     14  C14 HUX d           2.951  69.340  66.339  0.00  0.00     0.047 A 
ATOM     15  C15 HUX d           4.004  69.841  67.142  0.00  0.00     0.019 A 
ATOM     16  C16 HUX d           3.775  70.153  68.600  0.00  0.00    -0.067 A 
ATOM     17  C17 HUX d           4.829  70.584  69.317  0.00  0.00    -0.061 A 
ATOM     18 CL1  HUX d           7.450  71.254  69.745  0.00  0.00    -0.084 Cl
ATOM     19  H3  HUX d           7.346  70.621  66.799  0.00  0.00     0.089 H 
ATOM     20  H4  HUX d           5.987  68.559  62.944  0.00  0.00     0.043 H 
ATOM     21  H5  HUX d           4.956  69.919  62.381  0.00  0.00     0.043 H 
ATOM     22  H6  HUX d           4.297  67.884  61.209  0.00  0.00     0.046 H 
ATOM     23  H7  HUX d           4.809  65.776  62.653  0.00  0.00     0.077 H 
ATOM     24  H8  HUX d           2.084  66.939  65.462  0.00  0.00     0.040 H 
ATOM     25  H9  HUX d           1.157  66.572  63.967  0.00  0.00     0.040 H 
ATOM     26  H13 HUX d           1.240  68.933  64.082  0.00  0.00     0.048 H 
ATOM     27  H14 HUX d           1.917  67.840  61.820  0.00  0.00     0.035 H 
ATOM     28  H15 HUX d           2.530  69.515  62.038  0.00  0.00     0.035 H 
ATOM     29  H16 HUX d           2.798  70.035  69.054  0.00  0.00     0.085 H 
ATOM     30  H17 HUX d           4.677  70.804  70.368  0.00  0.00     0.086 H 
ENDROOT
BRANCH   9  31
ATOM     31  C18 HUX d           3.410  64.550  64.484  0.00  0.00    -0.048 C 
ATOM     32  H18 HUX d           2.572  63.943  64.110  0.00  0.00     0.039 H 
ATOM     33  H19 HUX d           3.351  64.623  65.579  0.00  0.00     0.039 H 
BRANCH  31  34
ATOM     34  C10 HUX d           4.702  63.764  64.162  0.00  0.00    -0.073 C 
ATOM     35  H10 HUX d           5.208  63.491  65.100  0.00  0.00     0.028 H 
ATOM     36  H11 HUX d           5.370  64.391  63.554  0.00  0.00     0.028 H 
ATOM     37  H12 HUX d           4.447  62.851  63.605  0.00  0.00     0.028 H 
ENDBRANCH  31  34
ENDBRANCH   9  31
BRANCH  14  38
ATOM     38  N2  HUX d           1.670  69.085  66.793  0.00  0.00    -0.398 N 
ATOM     39  H1  HUX d           1.513  68.842  67.781  0.00  0.00     0.156 HD
ATOM     40  H2  HUX d           0.872  69.139  66.143  0.00  0.00     0.156 HD
ENDBRANCH  14  38
TORSDOF 3
ENDMDL
