MODEL 1
REMARK VINA RESULT:      -7.4      0.000      0.000
REMARK  3 active torsions:
REMARK  status: ('A' for Active; 'I' for Inactive)
REMARK    1  A    between atoms: C2_2  and  C10_10 
REMARK    2  A    between atoms: C12_12  and  N15_15 
REMARK    3  A    between atoms: N13_13  and  C16_16 
ROOT
ATOM      1  C1  MOL d          -0.405  11.127  -6.134  0.00  0.00    -0.036 A 
ATOM      2  C2  MOL d          -0.908   9.990  -5.450  0.00  0.00    -0.003 A 
ATOM      3  C3  MOL d          -1.939  10.119  -4.463  0.00  0.00    -0.068 A 
ATOM      4  C4  MOL d          -2.509  11.349  -4.114  0.00  0.00    -0.047 A 
ATOM      5  C5  MOL d          -2.036  12.469  -4.769  0.00  0.00     0.105 A 
ATOM      6  C6  MOL d          -0.985  12.355  -5.803  0.00  0.00     0.105 A 
ATOM      7  O7  MOL d          -0.734  13.630  -6.257  0.00  0.00    -0.323 OA
ATOM      8  C8  MOL d          -1.683  14.540  -5.636  0.00  0.00     0.115 C 
ATOM      9  O9  MOL d          -2.374  13.796  -4.624  0.00  0.00    -0.323 OA
ATOM     10  H1  MOL d           0.385  11.048  -6.872  0.00  0.00     0.089 H 
ATOM     11  H2  MOL d          -2.293   9.224  -3.964  0.00  0.00     0.085 H 
ATOM     12  H3  MOL d          -3.288  11.419  -3.364  0.00  0.00     0.087 H 
ATOM     13  H4  MOL d          -2.397  14.911  -6.386  0.00  0.00     0.118 H 
ATOM     14  H5  MOL d          -1.151  15.390  -5.184  0.00  0.00     0.118 H 
ENDROOT
BRANCH   2  15
ATOM     15  C10 MOL d          -0.374   8.624  -5.738  0.00  0.00     0.091 A 
ATOM     16  C11 MOL d          -0.232   8.062  -7.021  0.00  0.00    -0.009 A 
ATOM     17  C12 MOL d           0.304   6.790  -6.822  0.00  0.00     0.119 A 
ATOM     18  H6  MOL d          -0.488   8.525  -7.973  0.00  0.00     0.093 H 
ATOM     19  N13 MOL d           0.501   6.560  -5.526  0.00  0.00    -0.258 N 
ATOM     20  N14 MOL d           0.068   7.703  -4.812  0.00  0.00    -0.171 NA
BRANCH  17  21
ATOM     21  N15 MOL d           0.609   5.884  -7.812  0.00  0.00    -0.384 N 
ATOM     22  H7  MOL d           0.634   6.186  -8.797  0.00  0.00     0.157 HD
ATOM     23  H8  MOL d           0.813   4.904  -7.569  0.00  0.00     0.157 HD
ENDBRANCH  17  21
BRANCH  19  24
ATOM     24  C16 MOL d           1.022   5.403  -4.734  0.00  0.00     0.004 C 
ATOM     25  H9  MOL d           2.023   5.644  -4.348  0.00  0.00     0.059 H 
ATOM     26  H10 MOL d           1.083   4.515  -5.379  0.00  0.00     0.059 H 
ATOM     27  H11 MOL d           0.344   5.200  -3.892  0.00  0.00     0.059 H 
ENDBRANCH  19  24
ENDBRANCH   2  15
TORSDOF 3
ENDMDL
MODEL 2
REMARK VINA RESULT:      -7.3      1.017      1.527
REMARK  3 active torsions:
REMARK  status: ('A' for Active; 'I' for Inactive)
REMARK    1  A    between atoms: C2_2  and  C10_10 
REMARK    2  A    between atoms: C12_12  and  N15_15 
REMARK    3  A    between atoms: N13_13  and  C16_16 
ROOT
ATOM      1  C1  MOL d          -0.349  11.320  -6.324  0.00  0.00    -0.036 A 
ATOM      2  C2  MOL d          -0.809  10.116  -5.727  0.00  0.00    -0.003 A 
ATOM      3  C3  MOL d          -1.774  10.140  -4.669  0.00  0.00    -0.068 A 
ATOM      4  C4  MOL d          -2.320  11.326  -4.163  0.00  0.00    -0.047 A 
ATOM      5  C5  MOL d          -1.889  12.509  -4.731  0.00  0.00     0.105 A 
ATOM      6  C6  MOL d          -0.906  12.504  -5.836  0.00  0.00     0.105 A 
ATOM      7  O7  MOL d          -0.684  13.820  -6.174  0.00  0.00    -0.323 OA
ATOM      8  C8  MOL d          -1.590  14.658  -5.406  0.00  0.00     0.115 C 
ATOM      9  O9  MOL d          -2.216  13.813  -4.432  0.00  0.00    -0.323 OA
ATOM     10  H1  MOL d           0.392  11.319  -7.115  0.00  0.00     0.089 H 
ATOM     11  H2  MOL d          -2.097   9.198  -4.240  0.00  0.00     0.085 H 
ATOM     12  H3  MOL d          -3.050  11.317  -3.361  0.00  0.00     0.087 H 
ATOM     13  H4  MOL d          -2.351  15.098  -6.069  0.00  0.00     0.118 H 
ATOM     14  H5  MOL d          -1.030  15.461  -4.906  0.00  0.00     0.118 H 
ENDROOT
BRANCH   2  15
ATOM     15  C10 MOL d          -0.295   8.790  -6.184  0.00  0.00     0.091 A 
ATOM     16  C11 MOL d          -0.080   7.673  -5.355  0.00  0.00    -0.009 A 
ATOM     17  C12 MOL d           0.392   6.662  -6.194  0.00  0.00     0.119 A 
ATOM     18  H6  MOL d          -0.246   7.610  -4.281  0.00  0.00     0.093 H 
ATOM     19  N13 MOL d           0.461   7.089  -7.453  0.00  0.00    -0.258 N 
ATOM     20  N14 MOL d           0.042   8.442  -7.475  0.00  0.00    -0.171 NA
BRANCH  17  21
ATOM     21  N15 MOL d           0.733   5.388  -5.801  0.00  0.00    -0.384 N 
ATOM     22  H7  MOL d           0.312   4.574  -6.271  0.00  0.00     0.157 HD
ATOM     23  H8  MOL d           1.410   5.248  -5.037  0.00  0.00     0.157 HD
ENDBRANCH  17  21
BRANCH  19  24
ATOM     24  C16 MOL d           0.894   6.475  -8.745  0.00  0.00     0.004 C 
ATOM     25  H9  MOL d           1.072   5.399  -8.599  0.00  0.00     0.059 H 
ATOM     26  H10 MOL d           1.821   6.956  -9.089  0.00  0.00     0.059 H 
ATOM     27  H11 MOL d           0.106   6.616  -9.500  0.00  0.00     0.059 H 
ENDBRANCH  19  24
ENDBRANCH   2  15
TORSDOF 3
ENDMDL
MODEL 3
REMARK VINA RESULT:      -6.8      1.535      2.590
REMARK  3 active torsions:
REMARK  status: ('A' for Active; 'I' for Inactive)
REMARK    1  A    between atoms: C2_2  and  C10_10 
REMARK    2  A    between atoms: C12_12  and  N15_15 
REMARK    3  A    between atoms: N13_13  and  C16_16 
ROOT
ATOM      1  C1  MOL d          -1.148  10.798  -5.858  0.00  0.00    -0.036 A 
ATOM      2  C2  MOL d          -0.115  10.517  -6.790  0.00  0.00    -0.003 A 
ATOM      3  C3  MOL d           0.675  11.570  -7.355  0.00  0.00    -0.068 A 
ATOM      4  C4  MOL d           0.488  12.919  -7.032  0.00  0.00    -0.047 A 
ATOM      5  C5  MOL d          -0.510  13.216  -6.126  0.00  0.00     0.105 A 
ATOM      6  C6  MOL d          -1.326  12.141  -5.518  0.00  0.00     0.105 A 
ATOM      7  O7  MOL d          -2.223  12.754  -4.672  0.00  0.00    -0.323 OA
ATOM      8  C8  MOL d          -1.921  14.175  -4.624  0.00  0.00     0.115 C 
ATOM      9  O9  MOL d          -0.944  14.430  -5.642  0.00  0.00    -0.323 OA
ATOM     10  H1  MOL d          -1.765  10.014  -5.434  0.00  0.00     0.089 H 
ATOM     11  H2  MOL d           1.453  11.310  -8.064  0.00  0.00     0.085 H 
ATOM     12  H3  MOL d           1.100  13.697  -7.475  0.00  0.00     0.087 H 
ATOM     13  H4  MOL d          -1.515  14.442  -3.636  0.00  0.00     0.118 H 
ATOM     14  H5  MOL d          -2.830  14.762  -4.817  0.00  0.00     0.118 H 
ENDROOT
BRANCH   2  15
ATOM     15  C10 MOL d           0.176   9.112  -7.211  0.00  0.00     0.091 A 
ATOM     16  C11 MOL d          -0.225   7.957  -6.514  0.00  0.00    -0.009 A 
ATOM     17  C12 MOL d           0.250   6.879  -7.260  0.00  0.00     0.119 A 
ATOM     18  H6  MOL d          -0.789   7.913  -5.583  0.00  0.00     0.093 H 
ATOM     19  N13 MOL d           0.889   7.304  -8.348  0.00  0.00    -0.258 N 
ATOM     20  N14 MOL d           0.868   8.720  -8.337  0.00  0.00    -0.171 NA
BRANCH  17  21
ATOM     21  N15 MOL d           0.084   5.549  -6.945  0.00  0.00    -0.384 N 
ATOM     22  H7  MOL d           0.701   4.839  -7.364  0.00  0.00     0.157 HD
ATOM     23  H8  MOL d          -0.658   5.264  -6.290  0.00  0.00     0.157 HD
ENDBRANCH  17  21
BRANCH  19  24
ATOM     24  C16 MOL d           1.598   6.629  -9.478  0.00  0.00     0.004 C 
ATOM     25  H9  MOL d           1.270   7.068 -10.432  0.00  0.00     0.059 H 
ATOM     26  H10 MOL d           1.363   5.555  -9.470  0.00  0.00     0.059 H 
ATOM     27  H11 MOL d           2.684   6.768  -9.366  0.00  0.00     0.059 H 
ENDBRANCH  19  24
ENDBRANCH   2  15
TORSDOF 3
ENDMDL
MODEL 4
REMARK VINA RESULT:      -6.8      0.805      1.743
REMARK  3 active torsions:
REMARK  status: ('A' for Active; 'I' for Inactive)
REMARK    1  A    between atoms: C2_2  and  C10_10 
REMARK    2  A    between atoms: C12_12  and  N15_15 
REMARK    3  A    between atoms: N13_13  and  C16_16 
ROOT
ATOM      1  C1  MOL d          -1.429  10.832  -5.297  0.00  0.00    -0.036 A 
ATOM      2  C2  MOL d          -0.367  10.266  -6.050  0.00  0.00    -0.003 A 
ATOM      3  C3  MOL d           0.523  11.094  -6.807  0.00  0.00    -0.068 A 
ATOM      4  C4  MOL d           0.410  12.489  -6.854  0.00  0.00    -0.047 A 
ATOM      5  C5  MOL d          -0.614  13.061  -6.127  0.00  0.00     0.105 A 
ATOM      6  C6  MOL d          -1.533  12.225  -5.325  0.00  0.00     0.105 A 
ATOM      7  O7  MOL d          -2.432  13.081  -4.730  0.00  0.00    -0.323 OA
ATOM      8  C8  MOL d          -2.037  14.449  -5.025  0.00  0.00     0.115 C 
ATOM      9  O9  MOL d          -0.991  14.381  -6.002  0.00  0.00    -0.323 OA
ATOM     10  H1  MOL d          -2.121  10.218  -4.732  0.00  0.00     0.089 H 
ATOM     11  H2  MOL d           1.320  10.620  -7.369  0.00  0.00     0.085 H 
ATOM     12  H3  MOL d           1.098  13.093  -7.436  0.00  0.00     0.087 H 
ATOM     13  H4  MOL d          -1.670  14.941  -4.112  0.00  0.00     0.118 H 
ATOM     14  H5  MOL d          -2.893  15.012  -5.426  0.00  0.00     0.118 H 
ENDROOT
BRANCH   2  15
ATOM     15  C10 MOL d          -0.150   8.787  -6.076  0.00  0.00     0.091 A 
ATOM     16  C11 MOL d          -0.288   7.966  -7.211  0.00  0.00    -0.009 A 
ATOM     17  C12 MOL d           0.012   6.673  -6.784  0.00  0.00     0.119 A 
ATOM     18  H6  MOL d          -0.572   8.277  -8.216  0.00  0.00     0.093 H 
ATOM     19  N13 MOL d           0.328   6.666  -5.491  0.00  0.00    -0.258 N 
ATOM     20  N14 MOL d           0.222   7.994  -5.012  0.00  0.00    -0.171 NA
BRANCH  17  21
ATOM     21  N15 MOL d           0.004   5.545  -7.573  0.00  0.00    -0.384 N 
ATOM     22  H7  MOL d           0.837   4.941  -7.617  0.00  0.00     0.157 HD
ATOM     23  H8  MOL d          -0.836   5.304  -8.118  0.00  0.00     0.157 HD
ENDBRANCH  17  21
BRANCH  19  24
ATOM     24  C16 MOL d           0.714   5.604  -4.512  0.00  0.00     0.004 C 
ATOM     25  H9  MOL d           0.170   4.676  -4.744  0.00  0.00     0.059 H 
ATOM     26  H10 MOL d           0.459   5.932  -3.493  0.00  0.00     0.059 H 
ATOM     27  H11 MOL d           1.796   5.419  -4.577  0.00  0.00     0.059 H 
ENDBRANCH  19  24
ENDBRANCH   2  15
TORSDOF 3
ENDMDL
MODEL 5
REMARK VINA RESULT:      -6.1      3.646      6.063
REMARK  3 active torsions:
REMARK  status: ('A' for Active; 'I' for Inactive)
REMARK    1  A    between atoms: C2_2  and  C10_10 
REMARK    2  A    between atoms: C12_12  and  N15_15 
REMARK    3  A    between atoms: N13_13  and  C16_16 
ROOT
ATOM      1  C1  MOL d           0.210   9.679  -7.456  0.00  0.00    -0.036 A 
ATOM      2  C2  MOL d          -0.434   9.366  -6.230  0.00  0.00    -0.003 A 
ATOM      3  C3  MOL d          -0.442   8.026  -5.723  0.00  0.00    -0.068 A 
ATOM      4  C4  MOL d           0.173   6.957  -6.386  0.00  0.00    -0.047 A 
ATOM      5  C5  MOL d           0.807   7.239  -7.580  0.00  0.00     0.105 A 
ATOM      6  C6  MOL d           0.842   8.619  -8.112  0.00  0.00     0.105 A 
ATOM      7  O7  MOL d           1.536   8.569  -9.300  0.00  0.00    -0.323 OA
ATOM      8  C8  MOL d           2.056   7.223  -9.479  0.00  0.00     0.115 C 
ATOM      9  O9  MOL d           1.464   6.407  -8.459  0.00  0.00    -0.323 OA
ATOM     10  H1  MOL d           0.212  10.685  -7.861  0.00  0.00     0.089 H 
ATOM     11  H2  MOL d          -0.947   7.831  -4.784  0.00  0.00     0.085 H 
ATOM     12  H3  MOL d           0.152   5.952  -5.981  0.00  0.00     0.087 H 
ATOM     13  H4  MOL d           3.151   7.224  -9.373  0.00  0.00     0.118 H 
ATOM     14  H5  MOL d           1.784   6.842 -10.474  0.00  0.00     0.118 H 
ENDROOT
BRANCH   2  15
ATOM     15  C10 MOL d          -1.125  10.426  -5.436  0.00  0.00     0.091 A 
ATOM     16  C11 MOL d          -1.892  10.202  -4.277  0.00  0.00    -0.009 A 
ATOM     17  C12 MOL d          -2.337  11.459  -3.867  0.00  0.00     0.119 A 
ATOM     18  H6  MOL d          -2.096   9.245  -3.799  0.00  0.00     0.093 H 
ATOM     19  N13 MOL d          -1.884  12.408  -4.683  0.00  0.00    -0.258 N 
ATOM     20  N14 MOL d          -1.121  11.780  -5.697  0.00  0.00    -0.171 NA
BRANCH  17  21
ATOM     21  N15 MOL d          -3.124  11.712  -2.766  0.00  0.00    -0.384 N 
ATOM     22  H7  MOL d          -3.946  11.121  -2.574  0.00  0.00     0.157 HD
ATOM     23  H8  MOL d          -2.892  12.492  -2.134  0.00  0.00     0.157 HD
ENDBRANCH  17  21
BRANCH  19  24
ATOM     24  C16 MOL d          -2.040  13.894  -4.751  0.00  0.00     0.004 C 
ATOM     25  H9  MOL d          -3.109  14.152  -4.720  0.00  0.00     0.059 H 
ATOM     26  H10 MOL d          -1.600  14.267  -5.688  0.00  0.00     0.059 H 
ATOM     27  H11 MOL d          -1.527  14.356  -3.895  0.00  0.00     0.059 H 
ENDBRANCH  19  24
ENDBRANCH   2  15
TORSDOF 3
ENDMDL
MODEL 6
REMARK VINA RESULT:      -5.8      3.976      6.264
REMARK  3 active torsions:
REMARK  status: ('A' for Active; 'I' for Inactive)
REMARK    1  A    between atoms: C2_2  and  C10_10 
REMARK    2  A    between atoms: C12_12  and  N15_15 
REMARK    3  A    between atoms: N13_13  and  C16_16 
ROOT
ATOM      1  C1  MOL d          -0.047   8.639  -6.393  0.00  0.00    -0.036 A 
ATOM      2  C2  MOL d          -0.239  10.018  -6.672  0.00  0.00    -0.003 A 
ATOM      3  C3  MOL d           0.294  10.611  -7.862  0.00  0.00    -0.068 A 
ATOM      4  C4  MOL d           1.024   9.887  -8.812  0.00  0.00    -0.047 A 
ATOM      5  C5  MOL d           1.221   8.543  -8.563  0.00  0.00     0.105 A 
ATOM      6  C6  MOL d           0.664   7.908  -7.349  0.00  0.00     0.105 A 
ATOM      7  O7  MOL d           1.031   6.582  -7.390  0.00  0.00    -0.323 OA
ATOM      8  C8  MOL d           1.697   6.323  -8.656  0.00  0.00     0.115 C 
ATOM      9  O9  MOL d           1.910   7.594  -9.285  0.00  0.00    -0.323 OA
ATOM     10  H1  MOL d          -0.431   8.179  -5.490  0.00  0.00     0.089 H 
ATOM     11  H2  MOL d           0.125  11.668  -8.034  0.00  0.00     0.085 H 
ATOM     12  H3  MOL d           1.417  10.360  -9.705  0.00  0.00     0.087 H 
ATOM     13  H4  MOL d           1.063   5.688  -9.294  0.00  0.00     0.118 H 
ATOM     14  H5  MOL d           2.660   5.821  -8.481  0.00  0.00     0.118 H 
ENDROOT
BRANCH   2  15
ATOM     15  C10 MOL d          -1.002  10.891  -5.728  0.00  0.00     0.091 A 
ATOM     16  C11 MOL d          -1.771  10.434  -4.642  0.00  0.00    -0.009 A 
ATOM     17  C12 MOL d          -2.294  11.577  -4.038  0.00  0.00     0.119 A 
ATOM     18  H6  MOL d          -1.927   9.400  -4.336  0.00  0.00     0.093 H 
ATOM     19  N13 MOL d          -1.885  12.674  -4.673  0.00  0.00    -0.258 N 
ATOM     20  N14 MOL d          -1.072  12.267  -5.759  0.00  0.00    -0.171 NA
BRANCH  17  21
ATOM     21  N15 MOL d          -3.111  11.598  -2.930  0.00  0.00    -0.384 N 
ATOM     22  H7  MOL d          -2.755  11.964  -2.035  0.00  0.00     0.157 HD
ATOM     23  H8  MOL d          -4.078  11.249  -2.996  0.00  0.00     0.157 HD
ENDBRANCH  17  21
BRANCH  19  24
ATOM     24  C16 MOL d          -2.126  14.139  -4.496  0.00  0.00     0.004 C 
ATOM     25  H9  MOL d          -1.190  14.688  -4.676  0.00  0.00     0.059 H 
ATOM     26  H10 MOL d          -2.473  14.332  -3.471  0.00  0.00     0.059 H 
ATOM     27  H11 MOL d          -2.891  14.474  -5.212  0.00  0.00     0.059 H 
ENDBRANCH  19  24
ENDBRANCH   2  15
TORSDOF 3
ENDMDL
MODEL 7
REMARK VINA RESULT:      -5.1      3.799      6.208
REMARK  3 active torsions:
REMARK  status: ('A' for Active; 'I' for Inactive)
REMARK    1  A    between atoms: C2_2  and  C10_10 
REMARK    2  A    between atoms: C12_12  and  N15_15 
REMARK    3  A    between atoms: N13_13  and  C16_16 
ROOT
ATOM      1  C1  MOL d           0.736   9.805  -7.952  0.00  0.00    -0.036 A 
ATOM      2  C2  MOL d          -0.092   9.833  -6.799  0.00  0.00    -0.003 A 
ATOM      3  C3  MOL d          -0.513   8.619  -6.165  0.00  0.00    -0.068 A 
ATOM      4  C4  MOL d          -0.143   7.351  -6.627  0.00  0.00    -0.047 A 
ATOM      5  C5  MOL d           0.665   7.300  -7.745  0.00  0.00     0.105 A 
ATOM      6  C6  MOL d           1.124   8.542  -8.405  0.00  0.00     0.105 A 
ATOM      7  O7  MOL d           1.899   8.159  -9.477  0.00  0.00    -0.323 OA
ATOM      8  C8  MOL d           2.054   6.714  -9.446  0.00  0.00     0.115 C 
ATOM      9  O9  MOL d           1.161   6.219  -8.439  0.00  0.00    -0.323 OA
ATOM     10  H1  MOL d           1.050  10.714  -8.453  0.00  0.00     0.089 H 
ATOM     11  H2  MOL d          -1.146   8.687  -5.288  0.00  0.00     0.085 H 
ATOM     12  H3  MOL d          -0.475   6.448  -6.128  0.00  0.00     0.087 H 
ATOM     13  H4  MOL d           3.092   6.450  -9.194  0.00  0.00     0.118 H 
ATOM     14  H5  MOL d           1.794   6.285 -10.425  0.00  0.00     0.118 H 
ENDROOT
BRANCH   2  15
ATOM     15  C10 MOL d          -0.551  11.131  -6.217  0.00  0.00     0.091 A 
ATOM     16  C11 MOL d          -0.221  12.405  -6.714  0.00  0.00    -0.009 A 
ATOM     17  C12 MOL d          -0.864  13.318  -5.878  0.00  0.00     0.119 A 
ATOM     18  H6  MOL d           0.406  12.633  -7.575  0.00  0.00     0.093 H 
ATOM     19  N13 MOL d          -1.557  12.684  -4.934  0.00  0.00    -0.258 N 
ATOM     20  N14 MOL d          -1.367  11.293  -5.117  0.00  0.00    -0.171 NA
BRANCH  17  21
ATOM     21  N15 MOL d          -0.817  14.688  -5.998  0.00  0.00    -0.384 N 
ATOM     22  H7  MOL d          -0.876  15.282  -5.158  0.00  0.00     0.157 HD
ATOM     23  H8  MOL d          -0.721  15.121  -6.928  0.00  0.00     0.157 HD
ENDBRANCH  17  21
BRANCH  19  24
ATOM     24  C16 MOL d          -2.407  13.124  -3.785  0.00  0.00     0.004 C 
ATOM     25  H9  MOL d          -3.402  13.410  -4.153  0.00  0.00     0.059 H 
ATOM     26  H10 MOL d          -1.937  13.986  -3.290  0.00  0.00     0.059 H 
ATOM     27  H11 MOL d          -2.506  12.297  -3.065  0.00  0.00     0.059 H 
ENDBRANCH  19  24
ENDBRANCH   2  15
TORSDOF 3
ENDMDL
