MODEL 1
REMARK VINA RESULT:      -6.3      0.000      0.000
REMARK  4 active torsions:
REMARK  status: ('A' for Active; 'I' for Inactive)
REMARK    1  A    between atoms: S1_4  and  N1_2 
REMARK    2  A    between atoms: C3_7  and  O1_3 
REMARK    3  A    between atoms: O1_3  and  C6_11 
REMARK    4  A    between atoms: C5_10  and  S1_4 
ROOT
ATOM      1  C1  M4S d           4.986  -6.468   6.816  0.00  0.00    -0.058 A 
ATOM      2  C2  M4S d           6.133  -6.871   7.481  0.00  0.00    -0.049 A 
ATOM      3  C3  M4S d           6.159  -6.996   8.865  0.00  0.00     0.068 A 
ATOM      4  C4  M4S d           5.003  -6.744   9.609  0.00  0.00    -0.049 A 
ATOM      5  C5  M4S d           3.828  -6.187   7.540  0.00  0.00     0.079 A 
ATOM      6  C7  M4S d           3.842  -6.326   8.938  0.00  0.00    -0.058 A 
ATOM      7  H1  M4S d           4.990  -6.371   5.736  0.00  0.00     0.086 H 
ATOM      8  H4  M4S d           7.028  -7.094   6.911  0.00  0.00     0.087 H 
ATOM      9  H5  M4S d           5.002  -6.869  10.686  0.00  0.00     0.087 H 
ATOM     10  H9  M4S d           2.945  -6.109   9.506  0.00  0.00     0.086 H 
ENDROOT
BRANCH   5  11
ATOM     11  S1  M4S d           2.494  -5.708   6.767  0.00  0.00     0.256 S 
ATOM     12  O2  M4S d           2.956  -4.618   5.859  0.00  0.00    -0.201 OA
ATOM     13  O3  M4S d           1.790  -6.719   5.927  0.00  0.00    -0.201 OA
BRANCH  11  14
ATOM     14  N1  M4S d           1.597  -5.135   7.803  0.00  0.00    -0.324 N 
ATOM     15  H2  M4S d           1.057  -5.742   8.388  0.00  0.00     0.169 HD
ATOM     16  H3  M4S d           1.531  -4.143   7.916  0.00  0.00     0.169 HD
ENDBRANCH  11  14
ENDBRANCH   5  11
BRANCH   3  17
ATOM     17  O1  M4S d           7.337  -7.380   9.457  0.00  0.00    -0.356 OA
BRANCH  17  18
ATOM     18  C6  M4S d           7.336  -8.087  10.694  0.00  0.00     0.010 C 
ATOM     19  H6  M4S d           7.493  -7.379  11.521  0.00  0.00     0.066 H 
ATOM     20  H7  M4S d           8.144  -8.832  10.691  0.00  0.00     0.066 H 
ATOM     21  H8  M4S d           6.369  -8.594  10.825  0.00  0.00     0.066 H 
ENDBRANCH  17  18
ENDBRANCH   3  17
TORSDOF 4
ENDMDL
MODEL 2
REMARK VINA RESULT:      -6.2      0.927      1.675
REMARK  4 active torsions:
REMARK  status: ('A' for Active; 'I' for Inactive)
REMARK    1  A    between atoms: S1_4  and  N1_2 
REMARK    2  A    between atoms: C3_7  and  O1_3 
REMARK    3  A    between atoms: O1_3  and  C6_11 
REMARK    4  A    between atoms: C5_10  and  S1_4 
ROOT
ATOM      1  C1  M4S d           3.040  -6.337   8.489  0.00  0.00    -0.058 A 
ATOM      2  C2  M4S d           4.111  -6.814   9.227  0.00  0.00    -0.049 A 
ATOM      3  C3  M4S d           5.361  -6.999   8.649  0.00  0.00     0.068 A 
ATOM      4  C4  M4S d           5.563  -6.671   7.305  0.00  0.00    -0.049 A 
ATOM      5  C5  M4S d           3.212  -6.027   7.140  0.00  0.00     0.079 A 
ATOM      6  C7  M4S d           4.477  -6.196   6.553  0.00  0.00    -0.058 A 
ATOM      7  H1  M4S d           2.071  -6.206   8.958  0.00  0.00     0.086 H 
ATOM      8  H4  M4S d           3.971  -7.047  10.277  0.00  0.00     0.087 H 
ATOM      9  H5  M4S d           6.541  -6.781   6.852  0.00  0.00     0.087 H 
ATOM     10  H9  M4S d           4.616  -5.957   5.505  0.00  0.00     0.086 H 
ENDROOT
BRANCH   5  11
ATOM     11  S1  M4S d           1.962  -5.480   6.276  0.00  0.00     0.256 S 
ATOM     12  O2  M4S d           2.578  -4.618   5.227  0.00  0.00    -0.201 OA
ATOM     13  O3  M4S d           1.117  -6.494   5.581  0.00  0.00    -0.201 OA
BRANCH  11  14
ATOM     14  N1  M4S d           1.158  -4.635   7.196  0.00  0.00    -0.324 N 
ATOM     15  H2  M4S d           0.959  -3.685   6.956  0.00  0.00     0.169 HD
ATOM     16  H3  M4S d           0.816  -5.016   8.056  0.00  0.00     0.169 HD
ENDBRANCH  11  14
ENDBRANCH   5  11
BRANCH   3  17
ATOM     17  O1  M4S d           6.370  -7.495   9.437  0.00  0.00    -0.356 OA
BRANCH  17  18
ATOM     18  C6  M4S d           7.527  -8.086   8.855  0.00  0.00     0.010 C 
ATOM     19  H6  M4S d           7.247  -8.604   7.925  0.00  0.00     0.066 H 
ATOM     20  H7  M4S d           7.964  -8.809   9.559  0.00  0.00     0.066 H 
ATOM     21  H8  M4S d           8.266  -7.303   8.630  0.00  0.00     0.066 H 
ENDBRANCH  17  18
ENDBRANCH   3  17
TORSDOF 4
ENDMDL
MODEL 3
REMARK VINA RESULT:      -6.0      1.079      1.892
REMARK  4 active torsions:
REMARK  status: ('A' for Active; 'I' for Inactive)
REMARK    1  A    between atoms: S1_4  and  N1_2 
REMARK    2  A    between atoms: C3_7  and  O1_3 
REMARK    3  A    between atoms: O1_3  and  C6_11 
REMARK    4  A    between atoms: C5_10  and  S1_4 
ROOT
ATOM      1  C1  M4S d           3.460  -6.332   8.699  0.00  0.00    -0.058 A 
ATOM      2  C2  M4S d           4.619  -6.802   9.296  0.00  0.00    -0.049 A 
ATOM      3  C3  M4S d           5.776  -7.017   8.558  0.00  0.00     0.068 A 
ATOM      4  C4  M4S d           5.794  -6.727   7.190  0.00  0.00    -0.049 A 
ATOM      5  C5  M4S d           3.448  -6.060   7.331  0.00  0.00     0.079 A 
ATOM      6  C7  M4S d           4.619  -6.260   6.581  0.00  0.00    -0.058 A 
ATOM      7  H1  M4S d           2.567  -6.178   9.292  0.00  0.00     0.086 H 
ATOM      8  H4  M4S d           4.623  -7.005  10.362  0.00  0.00     0.087 H 
ATOM      9  H5  M4S d           6.700  -6.861   6.610  0.00  0.00     0.087 H 
ATOM     10  H9  M4S d           4.615  -6.051   5.517  0.00  0.00     0.086 H 
ENDROOT
BRANCH   5  11
ATOM     11  S1  M4S d           2.096  -5.523   6.632  0.00  0.00     0.256 S 
ATOM     12  O2  M4S d           1.605  -6.677   5.823  0.00  0.00    -0.201 OA
ATOM     13  O3  M4S d           0.982  -5.103   7.530  0.00  0.00    -0.201 OA
BRANCH  11  14
ATOM     14  N1  M4S d           2.508  -4.425   5.720  0.00  0.00    -0.324 N 
ATOM     15  H2  M4S d           2.226  -3.484   5.911  0.00  0.00     0.169 HD
ATOM     16  H3  M4S d           3.066  -4.626   4.914  0.00  0.00     0.169 HD
ENDBRANCH  11  14
ENDBRANCH   5  11
BRANCH   3  17
ATOM     17  O1  M4S d           6.880  -7.503   9.213  0.00  0.00    -0.356 OA
BRANCH  17  18
ATOM     18  C6  M4S d           6.802  -7.903  10.578  0.00  0.00     0.010 C 
ATOM     19  H6  M4S d           7.327  -8.860  10.711  0.00  0.00     0.066 H 
ATOM     20  H7  M4S d           5.747  -8.020  10.866  0.00  0.00     0.066 H 
ATOM     21  H8  M4S d           7.271  -7.136  11.212  0.00  0.00     0.066 H 
ENDBRANCH  17  18
ENDBRANCH   3  17
TORSDOF 4
ENDMDL
MODEL 4
REMARK VINA RESULT:      -5.9      1.368      2.107
REMARK  4 active torsions:
REMARK  status: ('A' for Active; 'I' for Inactive)
REMARK    1  A    between atoms: S1_4  and  N1_2 
REMARK    2  A    between atoms: C3_7  and  O1_3 
REMARK    3  A    between atoms: O1_3  and  C6_11 
REMARK    4  A    between atoms: C5_10  and  S1_4 
ROOT
ATOM      1  C1  M4S d           3.008  -6.470   8.295  0.00  0.00    -0.058 A 
ATOM      2  C2  M4S d           3.924  -6.793   9.283  0.00  0.00    -0.049 A 
ATOM      3  C3  M4S d           5.274  -6.947   8.994  0.00  0.00     0.068 A 
ATOM      4  C4  M4S d           5.735  -6.743   7.690  0.00  0.00    -0.049 A 
ATOM      5  C5  M4S d           3.442  -6.286   6.982  0.00  0.00     0.079 A 
ATOM      6  C7  M4S d           4.808  -6.425   6.685  0.00  0.00    -0.058 A 
ATOM      7  H1  M4S d           1.958  -6.360   8.541  0.00  0.00     0.086 H 
ATOM      8  H4  M4S d           3.580  -6.928  10.303  0.00  0.00     0.087 H 
ATOM      9  H5  M4S d           6.791  -6.829   7.458  0.00  0.00     0.087 H 
ATOM     10  H9  M4S d           5.151  -6.284   5.666  0.00  0.00     0.086 H 
ENDROOT
BRANCH   5  11
ATOM     11  S1  M4S d           2.375  -5.919   5.828  0.00  0.00     0.256 S 
ATOM     12  O2  M4S d           1.102  -5.658   6.560  0.00  0.00    -0.201 OA
ATOM     13  O3  M4S d           2.660  -4.719   4.989  0.00  0.00    -0.201 OA
BRANCH  11  14
ATOM     14  N1  M4S d           2.222  -7.143   4.999  0.00  0.00    -0.324 N 
ATOM     15  H2  M4S d           2.880  -7.891   5.086  0.00  0.00     0.169 HD
ATOM     16  H3  M4S d           1.461  -7.218   4.354  0.00  0.00     0.169 HD
ENDBRANCH  11  14
ENDBRANCH   5  11
BRANCH   3  17
ATOM     17  O1  M4S d           6.120  -7.289  10.020  0.00  0.00    -0.356 OA
BRANCH  17  18
ATOM     18  C6  M4S d           7.500  -6.940   9.975  0.00  0.00     0.010 C 
ATOM     19  H6  M4S d           7.750  -6.318  10.848  0.00  0.00     0.066 H 
ATOM     20  H7  M4S d           7.707  -6.377   9.053  0.00  0.00     0.066 H 
ATOM     21  H8  M4S d           8.110  -7.855   9.990  0.00  0.00     0.066 H 
ENDBRANCH  17  18
ENDBRANCH   3  17
TORSDOF 4
ENDMDL
MODEL 5
REMARK VINA RESULT:      -5.5      2.753      4.897
REMARK  4 active torsions:
REMARK  status: ('A' for Active; 'I' for Inactive)
REMARK    1  A    between atoms: S1_4  and  N1_2 
REMARK    2  A    between atoms: C3_7  and  O1_3 
REMARK    3  A    between atoms: O1_3  and  C6_11 
REMARK    4  A    between atoms: C5_10  and  S1_4 
ROOT
ATOM      1  C1  M4S d           5.422  -6.570   7.245  0.00  0.00    -0.058 A 
ATOM      2  C2  M4S d           4.267  -6.196   6.577  0.00  0.00    -0.049 A 
ATOM      3  C3  M4S d           3.043  -6.133   7.232  0.00  0.00     0.068 A 
ATOM      4  C4  M4S d           2.969  -6.419   8.599  0.00  0.00    -0.049 A 
ATOM      5  C5  M4S d           5.367  -6.884   8.602  0.00  0.00     0.079 A 
ATOM      6  C7  M4S d           4.136  -6.807   9.275  0.00  0.00    -0.058 A 
ATOM      7  H1  M4S d           6.366  -6.619   6.713  0.00  0.00     0.086 H 
ATOM      8  H4  M4S d           4.319  -5.947   5.523  0.00  0.00     0.087 H 
ATOM      9  H5  M4S d           2.025  -6.342   9.127  0.00  0.00     0.087 H 
ATOM     10  H9  M4S d           4.087  -7.051  10.330  0.00  0.00     0.086 H 
ENDROOT
BRANCH   5  11
ATOM     11  S1  M4S d           6.710  -7.330   9.379  0.00  0.00     0.256 S 
ATOM     12  O2  M4S d           7.398  -6.048   9.708  0.00  0.00    -0.201 OA
ATOM     13  O3  M4S d           6.543  -8.087  10.653  0.00  0.00    -0.201 OA
BRANCH  11  14
ATOM     14  N1  M4S d           7.527  -8.087   8.395  0.00  0.00    -0.324 N 
ATOM     15  H2  M4S d           7.085  -8.720   7.760  0.00  0.00     0.169 HD
ATOM     16  H3  M4S d           8.520  -7.964   8.369  0.00  0.00     0.169 HD
ENDBRANCH  11  14
ENDBRANCH   5  11
BRANCH   3  17
ATOM     17  O1  M4S d           1.937  -5.774   6.502  0.00  0.00    -0.356 OA
BRANCH  17  18
ATOM     18  C6  M4S d           1.555  -6.512   5.345  0.00  0.00     0.010 C 
ATOM     19  H6  M4S d           2.452  -6.934   4.867  0.00  0.00     0.066 H 
ATOM     20  H7  M4S d           1.041  -5.845   4.638  0.00  0.00     0.066 H 
ATOM     21  H8  M4S d           0.878  -7.328   5.638  0.00  0.00     0.066 H 
ENDBRANCH  17  18
ENDBRANCH   3  17
TORSDOF 4
ENDMDL
