REMARK  4 active torsions:
REMARK  status: ('A' for Active; 'I' for Inactive)
REMARK    1  A    between atoms: C9_9  and  O20_18 
REMARK    2  A    between atoms: C10_10  and  O19_17 
REMARK    3  A    between atoms: C15_15  and  O23_21 
REMARK    4  A    between atoms: C16_16  and  O22_20 
ROOT
ATOM      1  C1  REF d          36.299  -4.121  11.346  0.00  0.00     0.042 A 
ATOM      2  C2  REF d          36.762  -3.998  10.051  0.00  0.00     0.030 A 
ATOM      3  C3  REF d          37.036  -5.156   9.373  0.00  0.00     0.030 A 
ATOM      4  C4  REF d          36.854  -6.391   9.987  0.00  0.00     0.126 A 
ATOM      5  O5  REF d          36.408  -6.478  11.213  0.00  0.00    -0.281 OA
ATOM      6  C6  REF d          36.127  -5.396  11.893  0.00  0.00     0.232 A 
ATOM      7  C7  REF d          37.495  -5.030   8.077  0.00  0.00     0.042 A 
ATOM      8  C8  REF d          37.802  -6.167   7.341  0.00  0.00    -0.033 A 
ATOM      9  C9  REF d          37.638  -7.409   7.936  0.00  0.00     0.102 A 
ATOM     10  C10 REF d          37.173  -7.517   9.234  0.00  0.00     0.134 A 
ATOM     11  C11 REF d          36.957  -2.765   9.429  0.00  0.00     0.126 A 
ATOM     12  O12 REF d          37.384  -2.676   8.203  0.00  0.00    -0.281 OA
ATOM     13  C13 REF d          37.650  -3.759   7.528  0.00  0.00     0.232 A 
ATOM     14  C14 REF d          36.020  -2.965  12.064  0.00  0.00    -0.033 A 
ATOM     15  C15 REF d          36.226  -1.726  11.463  0.00  0.00     0.102 A 
ATOM     16  C16 REF d          36.690  -1.618  10.156  0.00  0.00     0.134 A 
ATOM     17  O21 REF d          38.094  -3.672   6.271  0.00  0.00    -0.163 OA
ATOM     18  O24 REF d          35.654  -5.501  13.160  0.00  0.00    -0.163 OA
ATOM     19  H1  REF d          38.163  -6.085   6.322  0.00  0.00     0.089 H 
ATOM     20  H2  REF d          35.647  -3.027  13.080  0.00  0.00     0.089 H 
ENDROOT
BRANCH   9  21
ATOM     21  O20 REF d          37.939  -8.572   7.254  0.00  0.00    -0.358 OA
ATOM     22  H4  REF d          37.160  -9.113   7.193  0.00  0.00     0.217 HD
ENDBRANCH   9  21
BRANCH  10  23
ATOM     23  O19 REF d          37.057  -8.750   9.708  0.00  0.00    -0.356 OA
ATOM     24  H3  REF d          36.733  -8.716  10.600  0.00  0.00     0.218 HD
ENDBRANCH  10  23
BRANCH  16  25
ATOM     25  O22 REF d          36.897  -0.367   9.596  0.00  0.00    -0.356 OA
ATOM     26  H5  REF d          37.212  -0.468   8.705  0.00  0.00     0.218 HD
ENDBRANCH  16  25
BRANCH  15  27
ATOM     27  O23 REF d          35.981  -0.586  12.165  0.00  0.00    -0.358 OA
ATOM     28  H6  REF d          35.672  -0.811  13.034  0.00  0.00     0.217 HD
ENDBRANCH  15  27
TORSDOF 4
