MODEL 1
REMARK VINA RESULT:      -8.9      0.000      0.000
REMARK  4 active torsions:
REMARK  status: ('A' for Active; 'I' for Inactive)
REMARK    1  A    between atoms: C9_9  and  O20_18 
REMARK    2  A    between atoms: C10_10  and  O19_17 
REMARK    3  A    between atoms: C15_15  and  O23_21 
REMARK    4  A    between atoms: C16_16  and  O22_20 
ROOT
ATOM      1  C1  REF d          36.136  -4.540  11.375  0.00  0.00     0.042 A 
ATOM      2  C2  REF d          36.582  -4.160  10.124  0.00  0.00     0.030 A 
ATOM      3  C3  REF d          36.906  -5.161   9.247  0.00  0.00     0.030 A 
ATOM      4  C4  REF d          36.787  -6.494   9.625  0.00  0.00     0.126 A 
ATOM      5  O5  REF d          36.355  -6.825  10.814  0.00  0.00    -0.281 OA
ATOM      6  C6  REF d          36.028  -5.900  11.680  0.00  0.00     0.232 A 
ATOM      7  C7  REF d          37.348  -4.779   7.996  0.00  0.00     0.042 A 
ATOM      8  C8  REF d          37.703  -5.747   7.065  0.00  0.00    -0.033 A 
ATOM      9  C9  REF d          37.603  -7.083   7.424  0.00  0.00     0.102 A 
ATOM     10  C10 REF d          37.153  -7.448   8.679  0.00  0.00     0.134 A 
ATOM     11  C11 REF d          36.714  -2.827   9.738  0.00  0.00     0.126 A 
ATOM     12  O12 REF d          37.127  -2.495   8.549  0.00  0.00    -0.281 OA
ATOM     13  C13 REF d          37.439  -3.423   7.688  0.00  0.00     0.232 A 
ATOM     14  C14 REF d          35.808  -3.549  12.291  0.00  0.00    -0.033 A 
ATOM     15  C15 REF d          35.950  -2.212  11.927  0.00  0.00     0.102 A 
ATOM     16  C16 REF d          36.398  -1.846  10.662  0.00  0.00     0.134 A 
ATOM     17  O21 REF d          37.869  -3.087   6.469  0.00  0.00    -0.163 OA
ATOM     18  O24 REF d          35.571  -6.256  12.906  0.00  0.00    -0.163 OA
ATOM     19  H1  REF d          38.052  -5.463   6.079  0.00  0.00     0.089 H 
ATOM     20  H2  REF d          35.446  -3.813  13.278  0.00  0.00     0.089 H 
ENDROOT
BRANCH   9  21
ATOM     21  O20 REF d          37.953  -8.086   6.541  0.00  0.00    -0.358 OA
ATOM     22  H4  REF d          37.451  -7.992   5.740  0.00  0.00     0.217 HD
ENDBRANCH   9  21
BRANCH  10  23
ATOM     23  O19 REF d          37.100  -8.751   8.920  0.00  0.00    -0.356 OA
ATOM     24  H3  REF d          37.175  -9.226   8.102  0.00  0.00     0.218 HD
ENDBRANCH  10  23
BRANCH  16  25
ATOM     25  O22 REF d          36.542  -0.505  10.340  0.00  0.00    -0.356 OA
ATOM     26  H5  REF d          36.715  -0.421   9.409  0.00  0.00     0.218 HD
ENDBRANCH  16  25
BRANCH  15  27
ATOM     27  O23 REF d          35.657  -1.232  12.825  0.00  0.00    -0.358 OA
ATOM     28  H6  REF d          36.406  -1.088  13.389  0.00  0.00     0.217 HD
ENDBRANCH  15  27
TORSDOF 4
ENDMDL
MODEL 2
REMARK VINA RESULT:      -8.9      0.074      6.135
REMARK  4 active torsions:
REMARK  status: ('A' for Active; 'I' for Inactive)
REMARK    1  A    between atoms: C9_9  and  O20_18 
REMARK    2  A    between atoms: C10_10  and  O19_17 
REMARK    3  A    between atoms: C15_15  and  O23_21 
REMARK    4  A    between atoms: C16_16  and  O22_20 
ROOT
ATOM      1  C1  REF d          37.336  -4.799   8.006  0.00  0.00     0.042 A 
ATOM      2  C2  REF d          36.890  -5.173   9.258  0.00  0.00     0.030 A 
ATOM      3  C3  REF d          36.581  -4.168  10.136  0.00  0.00     0.030 A 
ATOM      4  C4  REF d          36.726  -2.836   9.762  0.00  0.00     0.126 A 
ATOM      5  O5  REF d          37.145  -2.511   8.567  0.00  0.00    -0.281 OA
ATOM      6  C6  REF d          37.443  -3.440   7.695  0.00  0.00     0.232 A 
ATOM      7  C7  REF d          36.132  -4.545  11.386  0.00  0.00     0.042 A 
ATOM      8  C8  REF d          35.814  -3.573  12.326  0.00  0.00    -0.033 A 
ATOM      9  C9  REF d          35.960  -2.239  11.978  0.00  0.00     0.102 A 
ATOM     10  C10 REF d          36.408  -1.879  10.720  0.00  0.00     0.134 A 
ATOM     11  C11 REF d          36.750  -6.505   9.647  0.00  0.00     0.126 A 
ATOM     12  O12 REF d          36.317  -6.831  10.830  0.00  0.00    -0.281 OA
ATOM     13  C13 REF d          36.010  -5.900  11.688  0.00  0.00     0.232 A 
ATOM     14  C14 REF d          37.666  -5.794   7.094  0.00  0.00    -0.033 A 
ATOM     15  C15 REF d          37.548  -7.128   7.473  0.00  0.00     0.102 A 
ATOM     16  C16 REF d          37.094  -7.490   8.737  0.00  0.00     0.134 A 
ATOM     17  O21 REF d          35.571  -6.230  12.906  0.00  0.00    -0.163 OA
ATOM     18  O24 REF d          37.865  -3.089   6.454  0.00  0.00    -0.163 OA
ATOM     19  H1  REF d          35.459  -3.853  13.312  0.00  0.00     0.089 H 
ATOM     20  H2  REF d          38.011  -5.534   6.100  0.00  0.00     0.089 H 
ENDROOT
BRANCH   9  21
ATOM     21  O20 REF d          35.669  -1.231  12.878  0.00  0.00    -0.358 OA
ATOM     22  H4  REF d          35.393  -1.615  13.703  0.00  0.00     0.217 HD
ENDBRANCH   9  21
BRANCH  10  23
ATOM     23  O19 REF d          36.515  -0.577  10.493  0.00  0.00    -0.356 OA
ATOM     24  H3  REF d          35.974  -0.103  11.113  0.00  0.00     0.218 HD
ENDBRANCH  10  23
BRANCH  16  25
ATOM     25  O22 REF d          37.004  -8.829   9.084  0.00  0.00    -0.356 OA
ATOM     26  H5  REF d          37.087  -9.364   8.303  0.00  0.00     0.218 HD
ENDBRANCH  16  25
BRANCH  15  27
ATOM     27  O23 REF d          37.893  -8.112   6.598  0.00  0.00    -0.358 OA
ATOM     28  H6  REF d          37.296  -8.101   5.860  0.00  0.00     0.217 HD
ENDBRANCH  15  27
TORSDOF 4
ENDMDL
MODEL 3
REMARK VINA RESULT:      -8.7      1.335      4.208
REMARK  4 active torsions:
REMARK  status: ('A' for Active; 'I' for Inactive)
REMARK    1  A    between atoms: C9_9  and  O20_18 
REMARK    2  A    between atoms: C10_10  and  O19_17 
REMARK    3  A    between atoms: C15_15  and  O23_21 
REMARK    4  A    between atoms: C16_16  and  O22_20 
ROOT
ATOM      1  C1  REF d          37.411  -4.231   7.841  0.00  0.00     0.042 A 
ATOM      2  C2  REF d          36.936  -3.794   9.061  0.00  0.00     0.030 A 
ATOM      3  C3  REF d          36.669  -4.749  10.006  0.00  0.00     0.030 A 
ATOM      4  C4  REF d          36.869  -6.096   9.721  0.00  0.00     0.126 A 
ATOM      5  O5  REF d          37.326  -6.481   8.558  0.00  0.00    -0.281 OA
ATOM      6  C6  REF d          37.601  -5.600   7.631  0.00  0.00     0.232 A 
ATOM      7  C7  REF d          36.199  -4.309  11.227  0.00  0.00     0.042 A 
ATOM      8  C8  REF d          35.898  -5.229  12.222  0.00  0.00    -0.033 A 
ATOM      9  C9  REF d          36.080  -6.578  11.958  0.00  0.00     0.102 A 
ATOM     10  C10 REF d          36.557  -7.002  10.730  0.00  0.00     0.134 A 
ATOM     11  C11 REF d          36.723  -2.447   9.354  0.00  0.00     0.126 A 
ATOM     12  O12 REF d          36.285  -2.060  10.517  0.00  0.00    -0.281 OA
ATOM     13  C13 REF d          36.025  -2.943  11.440  0.00  0.00     0.232 A 
ATOM     14  C14 REF d          37.683  -3.287   6.858  0.00  0.00    -0.033 A 
ATOM     15  C15 REF d          37.459  -1.940   7.129  0.00  0.00     0.102 A 
ATOM     16  C16 REF d          36.983  -1.515   8.365  0.00  0.00     0.134 A 
ATOM     17  O21 REF d          35.571  -2.550  12.633  0.00  0.00    -0.163 OA
ATOM     18  O24 REF d          38.085  -6.012   6.433  0.00  0.00    -0.163 OA
ATOM     19  H1  REF d          35.528  -4.900  13.187  0.00  0.00     0.089 H 
ATOM     20  H2  REF d          38.065  -3.597   5.892  0.00  0.00     0.089 H 
ENDROOT
BRANCH   9  21
ATOM     21  O20 REF d          35.786  -7.538  12.907  0.00  0.00    -0.358 OA
ATOM     22  H4  REF d          36.577  -7.765  13.382  0.00  0.00     0.217 HD
ENDBRANCH   9  21
BRANCH  10  23
ATOM     23  O19 REF d          36.690  -8.312  10.580  0.00  0.00    -0.356 OA
ATOM     24  H3  REF d          36.843  -8.511   9.664  0.00  0.00     0.218 HD
ENDBRANCH  10  23
BRANCH  16  25
ATOM     25  O22 REF d          36.759  -0.166   8.594  0.00  0.00    -0.356 OA
ATOM     26  H5  REF d          36.297   0.207   7.851  0.00  0.00     0.218 HD
ENDBRANCH  16  25
BRANCH  15  27
ATOM     27  O23 REF d          37.697  -1.009   6.166  0.00  0.00    -0.358 OA
ATOM     28  H6  REF d          38.555  -0.626   6.302  0.00  0.00     0.217 HD
ENDBRANCH  15  27
TORSDOF 4
ENDMDL
MODEL 4
REMARK VINA RESULT:      -8.7      1.333      4.506
REMARK  4 active torsions:
REMARK  status: ('A' for Active; 'I' for Inactive)
REMARK    1  A    between atoms: C9_9  and  O20_18 
REMARK    2  A    between atoms: C10_10  and  O19_17 
REMARK    3  A    between atoms: C15_15  and  O23_21 
REMARK    4  A    between atoms: C16_16  and  O22_20 
ROOT
ATOM      1  C1  REF d          36.163  -4.366  11.317  0.00  0.00     0.042 A 
ATOM      2  C2  REF d          36.611  -4.790  10.082  0.00  0.00     0.030 A 
ATOM      3  C3  REF d          36.869  -3.824   9.146  0.00  0.00     0.030 A 
ATOM      4  C4  REF d          36.673  -2.480   9.449  0.00  0.00     0.126 A 
ATOM      5  O5  REF d          36.254  -2.107  10.630  0.00  0.00    -0.281 OA
ATOM      6  C6  REF d          36.003  -2.998  11.554  0.00  0.00     0.232 A 
ATOM      7  C7  REF d          37.321  -4.250   7.913  0.00  0.00     0.042 A 
ATOM      8  C8  REF d          37.589  -3.319   6.918  0.00  0.00    -0.033 A 
ATOM      9  C9  REF d          37.392  -1.975   7.194  0.00  0.00     0.102 A 
ATOM     10  C10 REF d          36.942  -1.565   8.436  0.00  0.00     0.134 A 
ATOM     11  C11 REF d          36.801  -6.134   9.764  0.00  0.00     0.126 A 
ATOM     12  O12 REF d          37.236  -6.508   8.596  0.00  0.00    -0.281 OA
ATOM     13  C13 REF d          37.495  -5.613   7.684  0.00  0.00     0.232 A 
ATOM     14  C14 REF d          35.883  -5.322  12.286  0.00  0.00    -0.033 A 
ATOM     15  C15 REF d          36.052  -6.669  11.978  0.00  0.00     0.102 A 
ATOM     16  C16 REF d          36.508  -7.081  10.730  0.00  0.00     0.134 A 
ATOM     17  O21 REF d          37.936  -5.992   6.481  0.00  0.00    -0.163 OA
ATOM     18  O24 REF d          35.579  -2.596  12.779  0.00  0.00    -0.163 OA
ATOM     19  H1  REF d          37.945  -3.638   5.944  0.00  0.00     0.089 H 
ATOM     20  H2  REF d          35.538  -5.022  13.268  0.00  0.00     0.089 H 
ENDROOT
BRANCH   9  21
ATOM     21  O20 REF d          37.631  -1.007   6.237  0.00  0.00    -0.358 OA
ATOM     22  H4  REF d          37.625  -1.407   5.375  0.00  0.00     0.217 HD
ENDBRANCH   9  21
BRANCH  10  23
ATOM     23  O19 REF d          36.783  -0.258   8.593  0.00  0.00    -0.356 OA
ATOM     24  H3  REF d          36.111   0.052   7.998  0.00  0.00     0.218 HD
ENDBRANCH  10  23
BRANCH  16  25
ATOM     25  O22 REF d          36.649  -8.432  10.456  0.00  0.00    -0.356 OA
ATOM     26  H5  REF d          36.237  -8.939  11.146  0.00  0.00     0.218 HD
ENDBRANCH  16  25
BRANCH  15  27
ATOM     27  O23 REF d          35.757  -7.616  12.910  0.00  0.00    -0.358 OA
ATOM     28  H6  REF d          35.077  -7.290  13.488  0.00  0.00     0.217 HD
ENDBRANCH  15  27
TORSDOF 4
ENDMDL
MODEL 5
REMARK VINA RESULT:      -8.5      1.302      3.306
REMARK  4 active torsions:
REMARK  status: ('A' for Active; 'I' for Inactive)
REMARK    1  A    between atoms: C9_9  and  O20_18 
REMARK    2  A    between atoms: C10_10  and  O19_17 
REMARK    3  A    between atoms: C15_15  and  O23_21 
REMARK    4  A    between atoms: C16_16  and  O22_20 
ROOT
ATOM      1  C1  REF d          36.424  -2.878  10.334  0.00  0.00     0.042 A 
ATOM      2  C2  REF d          36.781  -3.922   9.505  0.00  0.00     0.030 A 
ATOM      3  C3  REF d          36.636  -5.191  10.001  0.00  0.00     0.030 A 
ATOM      4  C4  REF d          36.155  -5.392  11.291  0.00  0.00     0.126 A 
ATOM      5  O5  REF d          35.818  -4.384  12.052  0.00  0.00    -0.281 OA
ATOM      6  C6  REF d          35.934  -3.156  11.614  0.00  0.00     0.232 A 
ATOM      7  C7  REF d          36.990  -6.234   9.168  0.00  0.00     0.042 A 
ATOM      8  C8  REF d          36.877  -7.543   9.617  0.00  0.00    -0.033 A 
ATOM      9  C9  REF d          36.409  -7.767  10.903  0.00  0.00     0.102 A 
ATOM     10  C10 REF d          36.055  -6.711  11.723  0.00  0.00     0.134 A 
ATOM     11  C11 REF d          37.273  -3.732   8.214  0.00  0.00     0.126 A 
ATOM     12  O12 REF d          37.592  -4.734   7.448  0.00  0.00    -0.281 OA
ATOM     13  C13 REF d          37.462  -5.955   7.887  0.00  0.00     0.232 A 
ATOM     14  C14 REF d          36.567  -1.578   9.864  0.00  0.00    -0.033 A 
ATOM     15  C15 REF d          37.074  -1.371   8.584  0.00  0.00     0.102 A 
ATOM     16  C16 REF d          37.426  -2.434   7.759  0.00  0.00     0.134 A 
ATOM     17  O21 REF d          37.794  -6.986   7.106  0.00  0.00    -0.163 OA
ATOM     18  O24 REF d          35.571  -2.120  12.410  0.00  0.00    -0.163 OA
ATOM     19  H1  REF d          37.150  -8.373   8.975  0.00  0.00     0.089 H 
ATOM     20  H2  REF d          36.288  -0.736  10.487  0.00  0.00     0.089 H 
ENDROOT
BRANCH   9  21
ATOM     21  O20 REF d          36.288  -9.049  11.405  0.00  0.00    -0.358 OA
ATOM     22  H4  REF d          35.420  -9.383  11.212  0.00  0.00     0.217 HD
ENDBRANCH   9  21
BRANCH  10  23
ATOM     23  O19 REF d          35.624  -7.036  12.934  0.00  0.00    -0.356 OA
ATOM     24  H3  REF d          35.799  -6.320  13.533  0.00  0.00     0.218 HD
ENDBRANCH  10  23
BRANCH  16  25
ATOM     25  O22 REF d          37.941  -2.189   6.495  0.00  0.00    -0.356 OA
ATOM     26  H5  REF d          38.007  -3.007   6.017  0.00  0.00     0.218 HD
ENDBRANCH  16  25
BRANCH  15  27
ATOM     27  O23 REF d          37.243  -0.102   8.122  0.00  0.00    -0.358 OA
ATOM     28  H6  REF d          36.421   0.369   8.186  0.00  0.00     0.217 HD
ENDBRANCH  15  27
TORSDOF 4
ENDMDL
MODEL 6
REMARK VINA RESULT:      -8.4      1.297      5.195
REMARK  4 active torsions:
REMARK  status: ('A' for Active; 'I' for Inactive)
REMARK    1  A    between atoms: C9_9  and  O20_18 
REMARK    2  A    between atoms: C10_10  and  O19_17 
REMARK    3  A    between atoms: C15_15  and  O23_21 
REMARK    4  A    between atoms: C16_16  and  O22_20 
ROOT
ATOM      1  C1  REF d          36.888  -6.294   9.046  0.00  0.00     0.042 A 
ATOM      2  C2  REF d          36.557  -5.262   9.902  0.00  0.00     0.030 A 
ATOM      3  C3  REF d          36.697  -3.986   9.425  0.00  0.00     0.030 A 
ATOM      4  C4  REF d          37.161  -3.764   8.132  0.00  0.00     0.126 A 
ATOM      5  O5  REF d          37.460  -4.761   7.341  0.00  0.00    -0.281 OA
ATOM      6  C6  REF d          37.334  -5.996   7.755  0.00  0.00     0.232 A 
ATOM      7  C7  REF d          36.362  -2.956  10.281  0.00  0.00     0.042 A 
ATOM      8  C8  REF d          36.493  -1.639   9.861  0.00  0.00    -0.033 A 
ATOM      9  C9  REF d          36.963  -1.394   8.579  0.00  0.00     0.102 A 
ATOM     10  C10 REF d          37.290  -2.438   7.733  0.00  0.00     0.134 A 
ATOM     11  C11 REF d          36.101  -5.472  11.203  0.00  0.00     0.126 A 
ATOM     12  O12 REF d          35.785  -4.482  11.987  0.00  0.00    -0.281 OA
ATOM     13  C13 REF d          35.902  -3.255  11.562  0.00  0.00     0.232 A 
ATOM     14  C14 REF d          36.766  -7.600   9.503  0.00  0.00    -0.033 A 
ATOM     15  C15 REF d          36.328  -7.826  10.805  0.00  0.00     0.102 A 
ATOM     16  C16 REF d          35.995  -6.776  11.655  0.00  0.00     0.134 A 
ATOM     17  O21 REF d          35.584  -2.236  12.365  0.00  0.00    -0.163 OA
ATOM     18  O24 REF d          37.638  -7.021   6.920  0.00  0.00    -0.163 OA
ATOM     19  H1  REF d          36.233  -0.819  10.521  0.00  0.00     0.089 H 
ATOM     20  H2  REF d          37.009  -8.433   8.854  0.00  0.00     0.089 H 
ENDROOT
BRANCH   9  21
ATOM     21  O20 REF d          37.123  -0.104   8.113  0.00  0.00    -0.358 OA
ATOM     22  H4  REF d          37.138   0.498   8.848  0.00  0.00     0.217 HD
ENDBRANCH   9  21
BRANCH  10  23
ATOM     23  O19 REF d          37.734  -2.093   6.531  0.00  0.00    -0.356 OA
ATOM     24  H3  REF d          38.383  -2.723   6.242  0.00  0.00     0.218 HD
ENDBRANCH  10  23
BRANCH  16  25
ATOM     25  O22 REF d          35.577  -7.039  12.950  0.00  0.00    -0.356 OA
ATOM     26  H5  REF d          35.420  -7.971  13.048  0.00  0.00     0.218 HD
ENDBRANCH  16  25
BRANCH  15  27
ATOM     27  O23 REF d          36.229  -9.100  11.273  0.00  0.00    -0.358 OA
ATOM     28  H6  REF d          35.472  -9.521  10.884  0.00  0.00     0.217 HD
ENDBRANCH  15  27
TORSDOF 4
ENDMDL
MODEL 7
REMARK VINA RESULT:      -7.6      0.930      4.995
REMARK  4 active torsions:
REMARK  status: ('A' for Active; 'I' for Inactive)
REMARK    1  A    between atoms: C9_9  and  O20_18 
REMARK    2  A    between atoms: C10_10  and  O19_17 
REMARK    3  A    between atoms: C15_15  and  O23_21 
REMARK    4  A    between atoms: C16_16  and  O22_20 
ROOT
ATOM      1  C1  REF d          36.729  -6.288  10.121  0.00  0.00     0.042 A 
ATOM      2  C2  REF d          36.980  -5.257   9.239  0.00  0.00     0.030 A 
ATOM      3  C3  REF d          36.792  -3.980   9.699  0.00  0.00     0.030 A 
ATOM      4  C4  REF d          36.358  -3.759  11.002  0.00  0.00     0.126 A 
ATOM      5  O5  REF d          36.134  -4.755  11.819  0.00  0.00    -0.281 OA
ATOM      6  C6  REF d          36.309  -5.989  11.421  0.00  0.00     0.232 A 
ATOM      7  C7  REF d          37.048  -2.951   8.815  0.00  0.00     0.042 A 
ATOM      8  C8  REF d          36.863  -1.635   9.218  0.00  0.00    -0.033 A 
ATOM      9  C9  REF d          36.422  -1.390  10.510  0.00  0.00     0.102 A 
ATOM     10  C10 REF d          36.175  -2.434  11.384  0.00  0.00     0.134 A 
ATOM     11  C11 REF d          37.406  -5.467   7.927  0.00  0.00     0.126 A 
ATOM     12  O12 REF d          37.647  -4.477   7.118  0.00  0.00    -0.281 OA
ATOM     13  C13 REF d          37.482  -3.250   7.526  0.00  0.00     0.232 A 
ATOM     14  C14 REF d          36.903  -7.595   9.683  0.00  0.00    -0.033 A 
ATOM     15  C15 REF d          37.310  -7.822   8.371  0.00  0.00     0.102 A 
ATOM     16  C16 REF d          37.563  -6.772   7.494  0.00  0.00     0.134 A 
ATOM     17  O21 REF d          37.722  -2.231   6.696  0.00  0.00    -0.163 OA
ATOM     18  O24 REF d          36.084  -7.013  12.282  0.00  0.00    -0.163 OA
ATOM     19  H1  REF d          37.060  -0.815   8.537  0.00  0.00     0.089 H 
ATOM     20  H2  REF d          36.722  -8.427  10.353  0.00  0.00     0.089 H 
ENDROOT
BRANCH   9  21
ATOM     21  O20 REF d          36.211  -0.101  10.960  0.00  0.00    -0.358 OA
ATOM     22  H4  REF d          35.647   0.358  10.348  0.00  0.00     0.217 HD
ENDBRANCH   9  21
BRANCH  10  23
ATOM     23  O19 REF d          35.752  -2.090  12.593  0.00  0.00    -0.356 OA
ATOM     24  H3  REF d          35.241  -2.800  12.962  0.00  0.00     0.218 HD
ENDBRANCH  10  23
BRANCH  16  25
ATOM     25  O22 REF d          37.954  -7.038   6.191  0.00  0.00    -0.356 OA
ATOM     26  H5  REF d          38.809  -7.452   6.195  0.00  0.00     0.218 HD
ENDBRANCH  16  25
BRANCH  15  27
ATOM     27  O23 REF d          37.459  -9.098   7.922  0.00  0.00    -0.358 OA
ATOM     28  H6  REF d          37.903  -9.615   8.582  0.00  0.00     0.217 HD
ENDBRANCH  15  27
TORSDOF 4
ENDMDL
MODEL 8
REMARK VINA RESULT:      -7.4      0.969      3.561
REMARK  4 active torsions:
REMARK  status: ('A' for Active; 'I' for Inactive)
REMARK    1  A    between atoms: C9_9  and  O20_18 
REMARK    2  A    between atoms: C10_10  and  O19_17 
REMARK    3  A    between atoms: C15_15  and  O23_21 
REMARK    4  A    between atoms: C16_16  and  O22_20 
ROOT
ATOM      1  C1  REF d          36.922  -3.037   9.172  0.00  0.00     0.042 A 
ATOM      2  C2  REF d          36.712  -4.154   9.956  0.00  0.00     0.030 A 
ATOM      3  C3  REF d          36.945  -5.374   9.381  0.00  0.00     0.030 A 
ATOM      4  C4  REF d          37.369  -5.459   8.058  0.00  0.00     0.126 A 
ATOM      5  O5  REF d          37.566  -4.384   7.340  0.00  0.00    -0.281 OA
ATOM      6  C6  REF d          37.362  -3.199   7.855  0.00  0.00     0.232 A 
ATOM      7  C7  REF d          36.738  -6.489  10.169  0.00  0.00     0.042 A 
ATOM      8  C8  REF d          36.946  -7.756   9.639  0.00  0.00    -0.033 A 
ATOM      9  C9  REF d          37.358  -7.865   8.319  0.00  0.00     0.102 A 
ATOM     10  C10 REF d          37.565  -6.738   7.545  0.00  0.00     0.134 A 
ATOM     11  C11 REF d          36.279  -4.080  11.280  0.00  0.00     0.126 A 
ATOM     12  O12 REF d          36.099  -5.148  12.002  0.00  0.00    -0.281 OA
ATOM     13  C13 REF d          36.316  -6.325  11.486  0.00  0.00     0.232 A 
ATOM     14  C14 REF d          36.686  -1.784   9.724  0.00  0.00    -0.033 A 
ATOM     15  C15 REF d          36.237  -1.695  11.038  0.00  0.00     0.102 A 
ATOM     16  C16 REF d          36.033  -2.829  11.818  0.00  0.00     0.134 A 
ATOM     17  O21 REF d          36.127  -7.423  12.222  0.00  0.00    -0.163 OA
ATOM     18  O24 REF d          37.581  -2.092   7.102  0.00  0.00    -0.163 OA
ATOM     19  H1  REF d          36.788  -8.641  10.245  0.00  0.00     0.089 H 
ATOM     20  H2  REF d          36.850  -0.887   9.137  0.00  0.00     0.089 H 
ENDROOT
BRANCH   9  21
ATOM     21  O20 REF d          37.569  -9.101   7.738  0.00  0.00    -0.358 OA
ATOM     22  H4  REF d          36.948  -9.727   8.094  0.00  0.00     0.217 HD
ENDBRANCH   9  21
BRANCH  10  23
ATOM     23  O19 REF d          37.954  -6.955   6.297  0.00  0.00    -0.356 OA
ATOM     24  H3  REF d          38.873  -7.197   6.290  0.00  0.00     0.218 HD
ENDBRANCH  10  23
BRANCH  16  25
ATOM     25  O22 REF d          35.571  -2.701  13.118  0.00  0.00    -0.356 OA
ATOM     26  H5  REF d          35.785  -3.487  13.608  0.00  0.00     0.218 HD
ENDBRANCH  16  25
BRANCH  15  27
ATOM     27  O23 REF d          35.977  -0.474  11.582  0.00  0.00    -0.358 OA
ATOM     28  H6  REF d          35.333  -0.567  12.273  0.00  0.00     0.217 HD
ENDBRANCH  15  27
TORSDOF 4
ENDMDL
