MODEL 1
REMARK VINA RESULT:      -7.0      0.000      0.000
REMARK  7 active torsions:
REMARK  status: ('A' for Active; 'I' for Inactive)
REMARK    1  A    between atoms: S1_2  and  N1_4 
REMARK    2  A    between atoms: S1_2  and  C3_10 
REMARK    3  A    between atoms: N1_4  and  C2_5 
REMARK    4  A    between atoms: C2_5  and  C10_6 
REMARK    5  A    between atoms: C2_5  and  C1_7 
REMARK    6  A    between atoms: C6_13  and  O5_16 
REMARK    7  A    between atoms: O5_16  and  C7_17 
ROOT
ATOM      1  C3  TBL d          -2.106  -6.025  -6.359  0.00  0.00     0.079 A 
ATOM      2  C4  TBL d          -2.134  -6.116  -7.749  0.00  0.00    -0.058 A 
ATOM      3  C5  TBL d          -3.353  -6.285  -8.431  0.00  0.00    -0.049 A 
ATOM      4  C6  TBL d          -4.571  -6.284  -7.739  0.00  0.00     0.068 A 
ATOM      5  C8  TBL d          -4.582  -6.198  -6.359  0.00  0.00    -0.049 A 
ATOM      6  C9  TBL d          -3.345  -6.075  -5.671  0.00  0.00    -0.058 A 
ATOM      7  H6  TBL d          -1.209  -6.056  -8.310  0.00  0.00     0.086 H 
ATOM      8  H7  TBL d          -3.349  -6.418  -9.506  0.00  0.00     0.087 H 
ATOM      9  H8  TBL d          -5.518  -6.225  -5.812  0.00  0.00     0.087 H 
ATOM     10  H9  TBL d          -3.348  -6.017  -4.589  0.00  0.00     0.086 H 
ENDROOT
BRANCH   1  11
ATOM     11  S1  TBL d          -0.678  -5.794  -5.611  0.00  0.00     0.259 S 
ATOM     12  O4  TBL d          -0.247  -7.086  -5.179  0.00  0.00    -0.201 OA
ATOM     13  O3  TBL d           0.164  -5.182  -6.605  0.00  0.00    -0.201 OA
BRANCH  11  14
ATOM     14  N1  TBL d          -0.763  -4.892  -4.278  0.00  0.00    -0.301 N 
ATOM     15  H1  TBL d          -0.980  -5.313  -3.397  0.00  0.00     0.173 HD
BRANCH  14  16
ATOM     16  C2  TBL d          -0.518  -3.444  -4.369  0.00  0.00     0.100 C 
ATOM     17  H2  TBL d           0.076  -3.243  -5.272  0.00  0.00     0.089 H 
BRANCH  16  18
ATOM     18  C10 TBL d           0.266  -2.971  -3.142  0.00  0.00    -0.048 C 
ATOM     19  H3  TBL d          -0.294  -2.170  -2.636  0.00  0.00     0.030 H 
ATOM     20  H4  TBL d           1.247  -2.588  -3.459  0.00  0.00     0.030 H 
ATOM     21  H5  TBL d           0.407  -3.814  -2.450  0.00  0.00     0.030 H 
ENDBRANCH  16  18
BRANCH  16  22
ATOM     22  C1  TBL d          -1.815  -2.683  -4.464  0.00  0.00     0.196 C 
ATOM     23  O2  TBL d          -2.854  -3.104  -3.994  0.00  0.00    -0.646 OA
ATOM     24  O1  TBL d          -1.827  -1.503  -5.081  0.00  0.00    -0.646 OA
ENDBRANCH  16  22
ENDBRANCH  14  16
ENDBRANCH  11  14
ENDBRANCH   1  11
BRANCH   4  25
ATOM     25  O5  TBL d          -5.736  -6.453  -8.469  0.00  0.00    -0.356 OA
BRANCH  25  26
ATOM     26  C7  TBL d          -5.798  -6.922  -9.808  0.00  0.00     0.010 C 
ATOM     27  H10 TBL d          -6.669  -6.479 -10.312  0.00  0.00     0.066 H 
ATOM     28  H11 TBL d          -5.893  -8.018  -9.808  0.00  0.00     0.066 H 
ATOM     29  H12 TBL d          -4.880  -6.633 -10.341  0.00  0.00     0.066 H 
ENDBRANCH  25  26
ENDBRANCH   4  25
TORSDOF 7
ENDMDL
MODEL 2
REMARK VINA RESULT:      -6.4      1.261      1.862
REMARK  7 active torsions:
REMARK  status: ('A' for Active; 'I' for Inactive)
REMARK    1  A    between atoms: S1_2  and  N1_4 
REMARK    2  A    between atoms: S1_2  and  C3_10 
REMARK    3  A    between atoms: N1_4  and  C2_5 
REMARK    4  A    between atoms: C2_5  and  C10_6 
REMARK    5  A    between atoms: C2_5  and  C1_7 
REMARK    6  A    between atoms: C6_13  and  O5_16 
REMARK    7  A    between atoms: O5_16  and  C7_17 
ROOT
ATOM      1  C3  TBL d          -2.594  -5.672  -6.940  0.00  0.00     0.079 A 
ATOM      2  C4  TBL d          -3.774  -5.913  -6.240  0.00  0.00    -0.058 A 
ATOM      3  C5  TBL d          -4.950  -6.274  -6.922  0.00  0.00    -0.049 A 
ATOM      4  C6  TBL d          -4.944  -6.480  -8.307  0.00  0.00     0.068 A 
ATOM      5  C8  TBL d          -3.792  -6.248  -9.036  0.00  0.00    -0.049 A 
ATOM      6  C9  TBL d          -2.618  -5.838  -8.347  0.00  0.00    -0.058 A 
ATOM      7  H6  TBL d          -3.787  -5.821  -5.160  0.00  0.00     0.086 H 
ATOM      8  H7  TBL d          -5.874  -6.395  -6.368  0.00  0.00     0.087 H 
ATOM      9  H8  TBL d          -3.784  -6.377 -10.112  0.00  0.00     0.087 H 
ATOM     10  H9  TBL d          -1.715  -5.646  -8.915  0.00  0.00     0.086 H 
ENDROOT
BRANCH   1  11
ATOM     11  S1  TBL d          -1.247  -5.291  -6.108  0.00  0.00     0.259 S 
ATOM     12  O4  TBL d          -0.913  -6.454  -5.348  0.00  0.00    -0.201 OA
ATOM     13  O3  TBL d          -0.280  -4.936  -7.115  0.00  0.00    -0.201 OA
BRANCH  11  14
ATOM     14  N1  TBL d          -1.439  -4.105  -5.035  0.00  0.00    -0.301 N 
ATOM     15  H1  TBL d          -2.257  -3.530  -5.061  0.00  0.00     0.173 HD
BRANCH  14  16
ATOM     16  C2  TBL d          -0.402  -3.876  -4.017  0.00  0.00     0.100 C 
ATOM     17  H2  TBL d           0.476  -4.491  -4.263  0.00  0.00     0.089 H 
BRANCH  16  18
ATOM     18  C10 TBL d          -0.926  -4.287  -2.639  0.00  0.00    -0.048 C 
ATOM     19  H3  TBL d          -1.917  -3.839  -2.474  0.00  0.00     0.030 H 
ATOM     20  H4  TBL d          -0.230  -3.935  -1.862  0.00  0.00     0.030 H 
ATOM     21  H5  TBL d          -1.007  -5.383  -2.589  0.00  0.00     0.030 H 
ENDBRANCH  16  18
BRANCH  16  22
ATOM     22  C1  TBL d           0.014  -2.429  -3.988  0.00  0.00     0.196 C 
ATOM     23  O2  TBL d          -0.568  -1.570  -4.620  0.00  0.00    -0.646 OA
ATOM     24  O1  TBL d           1.056  -2.071  -3.238  0.00  0.00    -0.646 OA
ENDBRANCH  16  22
ENDBRANCH  14  16
ENDBRANCH  11  14
ENDBRANCH   1  11
BRANCH   4  25
ATOM     25  O5  TBL d          -6.135  -6.837  -8.919  0.00  0.00    -0.356 OA
BRANCH  25  26
ATOM     26  C7  TBL d          -6.246  -7.416 -10.211  0.00  0.00     0.010 C 
ATOM     27  H10 TBL d          -5.264  -7.401 -10.705  0.00  0.00     0.066 H 
ATOM     28  H11 TBL d          -6.967  -6.839 -10.810  0.00  0.00     0.066 H 
ATOM     29  H12 TBL d          -6.594  -8.455 -10.118  0.00  0.00     0.066 H 
ENDBRANCH  25  26
ENDBRANCH   4  25
TORSDOF 7
ENDMDL
MODEL 3
REMARK VINA RESULT:      -5.6      2.017      6.076
REMARK  7 active torsions:
REMARK  status: ('A' for Active; 'I' for Inactive)
REMARK    1  A    between atoms: S1_2  and  N1_4 
REMARK    2  A    between atoms: S1_2  and  C3_10 
REMARK    3  A    between atoms: N1_4  and  C2_5 
REMARK    4  A    between atoms: C2_5  and  C10_6 
REMARK    5  A    between atoms: C2_5  and  C1_7 
REMARK    6  A    between atoms: C6_13  and  O5_16 
REMARK    7  A    between atoms: O5_16  and  C7_17 
ROOT
ATOM      1  C3  TBL d          -1.749  -4.851  -4.857  0.00  0.00     0.079 A 
ATOM      2  C4  TBL d          -0.392  -4.854  -4.545  0.00  0.00    -0.058 A 
ATOM      3  C5  TBL d           0.169  -3.820  -3.774  0.00  0.00    -0.049 A 
ATOM      4  C6  TBL d          -0.635  -2.809  -3.233  0.00  0.00     0.068 A 
ATOM      5  C8  TBL d          -1.987  -2.771  -3.523  0.00  0.00    -0.049 A 
ATOM      6  C9  TBL d          -2.540  -3.793  -4.342  0.00  0.00    -0.058 A 
ATOM      7  H6  TBL d           0.239  -5.662  -4.900  0.00  0.00     0.086 H 
ATOM      8  H7  TBL d           1.238  -3.806  -3.595  0.00  0.00     0.087 H 
ATOM      9  H8  TBL d          -2.613  -1.976  -3.133  0.00  0.00     0.087 H 
ATOM     10  H9  TBL d          -3.597  -3.762  -4.580  0.00  0.00     0.086 H 
ENDROOT
BRANCH   1  11
ATOM     11  S1  TBL d          -2.365  -6.086  -5.722  0.00  0.00     0.259 S 
ATOM     12  O4  TBL d          -1.340  -6.470  -6.641  0.00  0.00    -0.201 OA
ATOM     13  O3  TBL d          -2.702  -7.089  -4.745  0.00  0.00    -0.201 OA
BRANCH  11  14
ATOM     14  N1  TBL d          -3.641  -5.695  -6.626  0.00  0.00    -0.301 N 
ATOM     15  H1  TBL d          -4.295  -5.010  -6.304  0.00  0.00     0.173 HD
BRANCH  14  16
ATOM     16  C2  TBL d          -3.834  -6.354  -7.927  0.00  0.00     0.100 C 
ATOM     17  H2  TBL d          -3.323  -7.327  -7.908  0.00  0.00     0.089 H 
BRANCH  16  18
ATOM     18  C10 TBL d          -3.228  -5.496  -9.040  0.00  0.00    -0.048 C 
ATOM     19  H3  TBL d          -3.160  -6.088  -9.964  0.00  0.00     0.030 H 
ATOM     20  H4  TBL d          -2.221  -5.166  -8.742  0.00  0.00     0.030 H 
ATOM     21  H5  TBL d          -3.866  -4.617  -9.214  0.00  0.00     0.030 H 
ENDBRANCH  16  18
BRANCH  16  22
ATOM     22  C1  TBL d          -5.297  -6.580  -8.204  0.00  0.00     0.196 C 
ATOM     23  O2  TBL d          -5.731  -6.751  -9.326  0.00  0.00    -0.646 OA
ATOM     24  O1  TBL d          -6.152  -6.599  -7.181  0.00  0.00    -0.646 OA
ENDBRANCH  16  22
ENDBRANCH  14  16
ENDBRANCH  11  14
ENDBRANCH   1  11
BRANCH   4  25
ATOM     25  O5  TBL d          -0.023  -1.820  -2.481  0.00  0.00    -0.356 OA
BRANCH  25  26
ATOM     26  C7  TBL d           1.378  -1.594  -2.418  0.00  0.00     0.010 C 
ATOM     27  H10 TBL d           1.680  -1.459  -1.369  0.00  0.00     0.066 H 
ATOM     28  H11 TBL d           1.629  -0.690  -2.992  0.00  0.00     0.066 H 
ATOM     29  H12 TBL d           1.908  -2.459  -2.843  0.00  0.00     0.066 H 
ENDBRANCH  25  26
ENDBRANCH   4  25
TORSDOF 7
ENDMDL
MODEL 4
REMARK VINA RESULT:      -5.5      0.933      1.572
REMARK  7 active torsions:
REMARK  status: ('A' for Active; 'I' for Inactive)
REMARK    1  A    between atoms: S1_2  and  N1_4 
REMARK    2  A    between atoms: S1_2  and  C3_10 
REMARK    3  A    between atoms: N1_4  and  C2_5 
REMARK    4  A    between atoms: C2_5  and  C10_6 
REMARK    5  A    between atoms: C2_5  and  C1_7 
REMARK    6  A    between atoms: C6_13  and  O5_16 
REMARK    7  A    between atoms: O5_16  and  C7_17 
ROOT
ATOM      1  C3  TBL d          -1.916  -5.791  -6.087  0.00  0.00     0.079 A 
ATOM      2  C4  TBL d          -3.240  -6.038  -5.731  0.00  0.00    -0.058 A 
ATOM      3  C5  TBL d          -4.226  -6.213  -6.719  0.00  0.00    -0.049 A 
ATOM      4  C6  TBL d          -3.888  -6.224  -8.079  0.00  0.00     0.068 A 
ATOM      5  C8  TBL d          -2.584  -5.980  -8.470  0.00  0.00    -0.049 A 
ATOM      6  C9  TBL d          -1.600  -5.758  -7.468  0.00  0.00    -0.058 A 
ATOM      7  H6  TBL d          -3.513  -6.097  -4.684  0.00  0.00     0.086 H 
ATOM      8  H7  TBL d          -5.261  -6.340  -6.425  0.00  0.00     0.087 H 
ATOM      9  H8  TBL d          -2.318  -5.959  -9.520  0.00  0.00     0.087 H 
ATOM     10  H9  TBL d          -0.579  -5.557  -7.770  0.00  0.00     0.086 H 
ENDROOT
BRANCH   1  11
ATOM     11  S1  TBL d          -0.799  -5.631  -4.912  0.00  0.00     0.259 S 
ATOM     12  O4  TBL d          -1.524  -5.620  -3.681  0.00  0.00    -0.201 OA
ATOM     13  O3  TBL d           0.079  -6.760  -5.081  0.00  0.00    -0.201 OA
BRANCH  11  14
ATOM     14  N1  TBL d           0.017  -4.242  -4.954  0.00  0.00    -0.301 N 
ATOM     15  H1  TBL d           0.761  -4.114  -5.610  0.00  0.00     0.173 HD
BRANCH  14  16
ATOM     16  C2  TBL d          -0.343  -3.164  -4.019  0.00  0.00     0.100 C 
ATOM     17  H2  TBL d           0.376  -2.341  -4.137  0.00  0.00     0.089 H 
BRANCH  16  18
ATOM     18  C10 TBL d          -0.276  -3.680  -2.580  0.00  0.00    -0.048 C 
ATOM     19  H3  TBL d           0.566  -3.202  -2.057  0.00  0.00     0.030 H 
ATOM     20  H4  TBL d          -0.132  -4.770  -2.587  0.00  0.00     0.030 H 
ATOM     21  H5  TBL d          -1.214  -3.437  -2.060  0.00  0.00     0.030 H 
ENDBRANCH  16  18
BRANCH  16  22
ATOM     22  C1  TBL d          -1.727  -2.643  -4.305  0.00  0.00     0.196 C 
ATOM     23  O2  TBL d          -2.660  -2.818  -3.546  0.00  0.00    -0.646 OA
ATOM     24  O1  TBL d          -1.940  -1.961  -5.430  0.00  0.00    -0.646 OA
ENDBRANCH  16  22
ENDBRANCH  14  16
ENDBRANCH  11  14
ENDBRANCH   1  11
BRANCH   4  25
ATOM     25  O5  TBL d          -4.906  -6.402  -9.002  0.00  0.00    -0.356 OA
BRANCH  25  26
ATOM     26  C7  TBL d          -6.244  -6.751  -8.683  0.00  0.00     0.010 C 
ATOM     27  H10 TBL d          -6.319  -6.972  -7.608  0.00  0.00     0.066 H 
ATOM     28  H11 TBL d          -6.540  -7.639  -9.261  0.00  0.00     0.066 H 
ATOM     29  H12 TBL d          -6.912  -5.912  -8.931  0.00  0.00     0.066 H 
ENDBRANCH  25  26
ENDBRANCH   4  25
TORSDOF 7
ENDMDL
MODEL 5
REMARK VINA RESULT:      -4.6      2.223      5.929
REMARK  7 active torsions:
REMARK  status: ('A' for Active; 'I' for Inactive)
REMARK    1  A    between atoms: S1_2  and  N1_4 
REMARK    2  A    between atoms: S1_2  and  C3_10 
REMARK    3  A    between atoms: N1_4  and  C2_5 
REMARK    4  A    between atoms: C2_5  and  C10_6 
REMARK    5  A    between atoms: C2_5  and  C1_7 
REMARK    6  A    between atoms: C6_13  and  O5_16 
REMARK    7  A    between atoms: O5_16  and  C7_17 
ROOT
ATOM      1  C3  TBL d          -1.561  -4.838  -6.302  0.00  0.00     0.079 A 
ATOM      2  C4  TBL d          -0.353  -5.268  -5.757  0.00  0.00    -0.058 A 
ATOM      3  C5  TBL d           0.060  -4.821  -4.489  0.00  0.00    -0.049 A 
ATOM      4  C6  TBL d          -0.766  -4.001  -3.711  0.00  0.00     0.068 A 
ATOM      5  C8  TBL d          -1.971  -3.551  -4.220  0.00  0.00    -0.049 A 
ATOM      6  C9  TBL d          -2.362  -3.968  -5.521  0.00  0.00    -0.058 A 
ATOM      7  H6  TBL d           0.274  -5.954  -6.315  0.00  0.00     0.086 H 
ATOM      8  H7  TBL d           1.031  -5.116  -4.109  0.00  0.00     0.087 H 
ATOM      9  H8  TBL d          -2.605  -2.892  -3.637  0.00  0.00     0.087 H 
ATOM     10  H9  TBL d          -3.301  -3.610  -5.928  0.00  0.00     0.086 H 
ENDROOT
BRANCH   1  11
ATOM     11  S1  TBL d          -2.018  -5.407  -7.758  0.00  0.00     0.259 S 
ATOM     12  O4  TBL d          -2.588  -4.296  -8.452  0.00  0.00    -0.201 OA
ATOM     13  O3  TBL d          -0.812  -5.928  -8.346  0.00  0.00    -0.201 OA
BRANCH  11  14
ATOM     14  N1  TBL d          -3.174  -6.529  -7.700  0.00  0.00    -0.301 N 
ATOM     15  H1  TBL d          -2.935  -7.495  -7.603  0.00  0.00     0.173 HD
BRANCH  14  16
ATOM     16  C2  TBL d          -4.584  -6.118  -7.791  0.00  0.00     0.100 C 
ATOM     17  H2  TBL d          -4.625  -5.051  -8.050  0.00  0.00     0.089 H 
BRANCH  16  18
ATOM     18  C10 TBL d          -5.276  -6.330  -6.443  0.00  0.00    -0.048 C 
ATOM     19  H3  TBL d          -5.663  -7.359  -6.386  0.00  0.00     0.030 H 
ATOM     20  H4  TBL d          -6.110  -5.619  -6.342  0.00  0.00     0.030 H 
ATOM     21  H5  TBL d          -4.553  -6.166  -5.630  0.00  0.00     0.030 H 
ENDBRANCH  16  18
BRANCH  16  22
ATOM     22  C1  TBL d          -5.305  -6.902  -8.857  0.00  0.00     0.196 C 
ATOM     23  O2  TBL d          -6.231  -7.648  -8.605  0.00  0.00    -0.646 OA
ATOM     24  O1  TBL d          -4.919  -6.773 -10.126  0.00  0.00    -0.646 OA
ENDBRANCH  16  22
ENDBRANCH  14  16
ENDBRANCH  11  14
ENDBRANCH   1  11
BRANCH   4  25
ATOM     25  O5  TBL d          -0.302  -3.597  -2.470  0.00  0.00    -0.356 OA
BRANCH  25  26
ATOM     26  C7  TBL d           0.326  -2.352  -2.200  0.00  0.00     0.010 C 
ATOM     27  H10 TBL d           1.332  -2.529  -1.796  0.00  0.00     0.066 H 
ATOM     28  H11 TBL d          -0.272  -1.792  -1.466  0.00  0.00     0.066 H 
ATOM     29  H12 TBL d           0.402  -1.770  -3.131  0.00  0.00     0.066 H 
ENDBRANCH  25  26
ENDBRANCH   4  25
TORSDOF 7
ENDMDL
MODEL 6
REMARK VINA RESULT:      -4.3      2.227      5.705
REMARK  7 active torsions:
REMARK  status: ('A' for Active; 'I' for Inactive)
REMARK    1  A    between atoms: S1_2  and  N1_4 
REMARK    2  A    between atoms: S1_2  and  C3_10 
REMARK    3  A    between atoms: N1_4  and  C2_5 
REMARK    4  A    between atoms: C2_5  and  C10_6 
REMARK    5  A    between atoms: C2_5  and  C1_7 
REMARK    6  A    between atoms: C6_13  and  O5_16 
REMARK    7  A    between atoms: O5_16  and  C7_17 
ROOT
ATOM      1  C3  TBL d          -2.020  -5.145  -4.622  0.00  0.00     0.079 A 
ATOM      2  C4  TBL d          -0.724  -5.310  -4.138  0.00  0.00    -0.058 A 
ATOM      3  C5  TBL d          -0.045  -4.239  -3.530  0.00  0.00    -0.049 A 
ATOM      4  C6  TBL d          -0.680  -3.009  -3.322  0.00  0.00     0.068 A 
ATOM      5  C8  TBL d          -1.966  -2.807  -3.791  0.00  0.00    -0.049 A 
ATOM      6  C9  TBL d          -2.631  -3.878  -4.447  0.00  0.00    -0.058 A 
ATOM      7  H6  TBL d          -0.235  -6.273  -4.231  0.00  0.00     0.086 H 
ATOM      8  H7  TBL d           0.985  -4.368  -3.218  0.00  0.00     0.087 H 
ATOM      9  H8  TBL d          -2.457  -1.849  -3.660  0.00  0.00     0.087 H 
ATOM     10  H9  TBL d          -3.635  -3.721  -4.824  0.00  0.00     0.086 H 
ENDROOT
BRANCH   1  11
ATOM     11  S1  TBL d          -2.784  -6.420  -5.286  0.00  0.00     0.259 S 
ATOM     12  O4  TBL d          -2.428  -7.551  -4.488  0.00  0.00    -0.201 OA
ATOM     13  O3  TBL d          -4.181  -6.075  -5.248  0.00  0.00    -0.201 OA
BRANCH  11  14
ATOM     14  N1  TBL d          -2.308  -6.775  -6.785  0.00  0.00    -0.301 N 
ATOM     15  H1  TBL d          -1.855  -7.645  -6.977  0.00  0.00     0.173 HD
BRANCH  14  16
ATOM     16  C2  TBL d          -2.547  -5.807  -7.867  0.00  0.00     0.100 C 
ATOM     17  H2  TBL d          -3.217  -5.018  -7.493  0.00  0.00     0.089 H 
BRANCH  16  18
ATOM     18  C10 TBL d          -3.216  -6.506  -9.053  0.00  0.00    -0.048 C 
ATOM     19  H3  TBL d          -4.132  -5.964  -9.330  0.00  0.00     0.030 H 
ATOM     20  H4  TBL d          -3.472  -7.539  -8.773  0.00  0.00     0.030 H 
ATOM     21  H5  TBL d          -2.525  -6.519  -9.908  0.00  0.00     0.030 H 
ENDBRANCH  16  18
BRANCH  16  22
ATOM     22  C1  TBL d          -1.257  -5.173  -8.316  0.00  0.00     0.196 C 
ATOM     23  O2  TBL d          -1.101  -4.735  -9.439  0.00  0.00    -0.646 OA
ATOM     24  O1  TBL d          -0.247  -5.083  -7.452  0.00  0.00    -0.646 OA
ENDBRANCH  16  22
ENDBRANCH  14  16
ENDBRANCH  11  14
ENDBRANCH   1  11
BRANCH   4  25
ATOM     25  O5  TBL d           0.043  -1.995  -2.716  0.00  0.00    -0.356 OA
BRANCH  25  26
ATOM     26  C7  TBL d           1.455  -1.856  -2.771  0.00  0.00     0.010 C 
ATOM     27  H10 TBL d           1.830  -2.290  -3.709  0.00  0.00     0.066 H 
ATOM     28  H11 TBL d           1.908  -2.380  -1.917  0.00  0.00     0.066 H 
ATOM     29  H12 TBL d           1.721  -0.789  -2.730  0.00  0.00     0.066 H 
ENDBRANCH  25  26
ENDBRANCH   4  25
TORSDOF 7
ENDMDL
