REMARK  3 active torsions:
REMARK  status: ('A' for Active; 'I' for Inactive)
REMARK    1  A    between atoms: C2_2  and  C22_10 
REMARK    2  A    between atoms: C6_6  and  N1_12 
REMARK    3  A    between atoms: C22_10  and  O22_9 
ROOT
ATOM      1  C1  HNT d          28.136  45.605  18.304  0.00  0.00    -0.012 C 
ATOM      2  C2  HNT d          27.778  44.818  19.566  0.00  0.00     0.126 C 
ATOM      3  C4  HNT d          27.630  42.639  18.479  0.00  0.00     0.106 C 
ATOM      4  C5  HNT d          27.077  42.713  16.032  0.00  0.00    -0.043 A 
ATOM      5  C6  HNT d          26.906  43.366  14.817  0.00  0.00     0.103 A 
ATOM      6  C7  HNT d          27.130  44.738  14.743  0.00  0.00    -0.050 A 
ATOM      7  C8  HNT d          27.527  45.444  15.875  0.00  0.00    -0.074 A 
ATOM      8  C8A HNT d          27.700  44.786  17.087  0.00  0.00    -0.048 A 
ATOM      9  C4A HNT d          27.473  43.415  17.169  0.00  0.00    -0.024 A 
ATOM     10  N41 HNT d          28.327  43.455  19.488  0.00  0.00    -0.065 N 
ATOM     11  H1  HNT d          29.222  45.776  18.268  0.00  0.00     0.043 H 
ATOM     12  H2  HNT d          27.613  46.572  18.308  0.00  0.00     0.043 H 
ATOM     13  H3  HNT d          26.682  44.741  19.624  0.00  0.00     0.088 H 
ATOM     14  H4  HNT d          28.212  41.725  18.290  0.00  0.00     0.083 H 
ATOM     15  H5  HNT d          26.634  42.368  18.859  0.00  0.00     0.083 H 
ATOM     16  H6  HNT d          26.900  41.645  16.096  0.00  0.00     0.088 H 
ATOM     17  H7  HNT d          26.995  45.258  13.801  0.00  0.00     0.087 H 
ATOM     18  H8  HNT d          27.702  46.512  15.811  0.00  0.00     0.084 H 
ATOM     19  H12 HNT d          28.230  43.013  20.389  0.00  0.00     0.278 HD
ATOM     20  H13 HNT d          29.303  43.510  19.244  0.00  0.00     0.278 HD
ENDROOT
BRANCH   2  21
ATOM     21  C22 HNT d          28.266  45.554  20.816  0.00  0.00     0.044 C 
ATOM     22  H10 HNT d          28.037  46.626  20.724  0.00  0.00     0.077 H 
ATOM     23  H11 HNT d          29.353  45.419  20.920  0.00  0.00     0.077 H 
BRANCH  21  24
ATOM     24  O22 HNT d          27.607  45.023  21.968  0.00  0.00    -0.399 OA
ATOM     25  H9  HNT d          27.910  45.480  22.744  0.00  0.00     0.209 HD
ENDBRANCH  21  24
ENDBRANCH   2  21
BRANCH   5  26
ATOM     26  N1  HNT d          26.591  42.680  13.718  0.00  0.00    -0.116 N 
ATOM     27  O2  HNT d          26.351  41.281  13.781  0.00  0.00    -0.532 OA
ATOM     28  O3  HNT d          26.488  43.342  12.465  0.00  0.00    -0.532 OA
ENDBRANCH   5  26
TORSDOF 3
