MODEL 1
REMARK VINA RESULT:      -8.8      0.000      0.000
REMARK  3 active torsions:
REMARK  status: ('A' for Active; 'I' for Inactive)
REMARK    1  A    between atoms: C2_2  and  C22_10 
REMARK    2  A    between atoms: C6_6  and  N1_12 
REMARK    3  A    between atoms: C22_10  and  O22_9 
ROOT
ATOM      1  C1  HNT d          28.068  45.453  18.432  0.00  0.00    -0.012 C 
ATOM      2  C2  HNT d          27.495  44.713  19.642  0.00  0.00     0.126 C 
ATOM      3  C4  HNT d          27.153  42.583  18.504  0.00  0.00     0.106 C 
ATOM      4  C5  HNT d          26.838  42.749  16.019  0.00  0.00    -0.043 A 
ATOM      5  C6  HNT d          26.866  43.428  14.807  0.00  0.00     0.103 A 
ATOM      6  C7  HNT d          27.279  44.757  14.780  0.00  0.00    -0.050 A 
ATOM      7  C8  HNT d          27.664  45.394  15.956  0.00  0.00    -0.074 A 
ATOM      8  C8A HNT d          27.637  44.710  17.165  0.00  0.00    -0.048 A 
ATOM      9  C4A HNT d          27.221  43.382  17.200  0.00  0.00    -0.024 A 
ATOM     10  N41 HNT d          27.860  43.289  19.586  0.00  0.00    -0.065 N 
ATOM     11  H1  HNT d          29.166  45.475  18.495  0.00  0.00     0.043 H 
ATOM     12  H2  HNT d          27.683  46.482  18.408  0.00  0.00     0.043 H 
ATOM     13  H3  HNT d          26.398  44.786  19.601  0.00  0.00     0.088 H 
ATOM     14  H4  HNT d          27.621  41.599  18.349  0.00  0.00     0.083 H 
ATOM     15  H5  HNT d          26.100  42.447  18.789  0.00  0.00     0.083 H 
ATOM     16  H6  HNT d          26.513  41.715  16.047  0.00  0.00     0.088 H 
ATOM     17  H7  HNT d          27.301  45.298  13.840  0.00  0.00     0.087 H 
ATOM     18  H8  HNT d          27.987  46.429  15.928  0.00  0.00     0.084 H 
ATOM     19  H12 HNT d          27.624  42.857  20.466  0.00  0.00     0.278 HD
ATOM     20  H13 HNT d          28.853  43.212  19.430  0.00  0.00     0.278 HD
ENDROOT
BRANCH   2  21
ATOM     21  C22 HNT d          27.964  45.367  20.944  0.00  0.00     0.044 C 
ATOM     22  H10 HNT d          27.994  46.459  20.816  0.00  0.00     0.077 H 
ATOM     23  H11 HNT d          28.969  44.999  21.197  0.00  0.00     0.077 H 
BRANCH  21  24
ATOM     24  O22 HNT d          27.055  45.035  21.996  0.00  0.00    -0.399 OA
ATOM     25  H9  HNT d          26.163  45.144  21.689  0.00  0.00     0.209 HD
ENDBRANCH  21  24
ENDBRANCH   2  21
BRANCH   5  26
ATOM     26  N1  HNT d          26.562  42.799  13.671  0.00  0.00    -0.116 N 
ATOM     27  O2  HNT d          26.657  41.385  13.578  0.00  0.00    -0.532 OA
ATOM     28  O3  HNT d          26.134  43.538  12.536  0.00  0.00    -0.532 OA
ENDBRANCH   5  26
TORSDOF 3
ENDMDL
MODEL 2
REMARK VINA RESULT:      -7.7      1.040      2.111
REMARK  3 active torsions:
REMARK  status: ('A' for Active; 'I' for Inactive)
REMARK    1  A    between atoms: C2_2  and  C22_10 
REMARK    2  A    between atoms: C6_6  and  N1_12 
REMARK    3  A    between atoms: C22_10  and  O22_9 
ROOT
ATOM      1  C1  HNT d          27.075  43.608  19.261  0.00  0.00    -0.012 C 
ATOM      2  C2  HNT d          28.133  44.682  19.522  0.00  0.00     0.126 C 
ATOM      3  C4  HNT d          28.073  45.653  17.285  0.00  0.00     0.106 C 
ATOM      4  C5  HNT d          27.321  44.088  15.472  0.00  0.00    -0.043 A 
ATOM      5  C6  HNT d          26.760  42.905  15.007  0.00  0.00     0.103 A 
ATOM      6  C7  HNT d          26.310  41.958  15.924  0.00  0.00    -0.050 A 
ATOM      7  C8  HNT d          26.418  42.201  17.290  0.00  0.00    -0.074 A 
ATOM      8  C8A HNT d          26.977  43.387  17.750  0.00  0.00    -0.048 A 
ATOM      9  C4A HNT d          27.433  44.336  16.839  0.00  0.00    -0.024 A 
ATOM     10  N41 HNT d          27.846  45.883  18.722  0.00  0.00    -0.065 N 
ATOM     11  H1  HNT d          26.103  43.941  19.652  0.00  0.00     0.043 H 
ATOM     12  H2  HNT d          27.367  42.670  19.755  0.00  0.00     0.043 H 
ATOM     13  H3  HNT d          29.110  44.286  19.205  0.00  0.00     0.088 H 
ATOM     14  H4  HNT d          27.631  46.482  16.713  0.00  0.00     0.083 H 
ATOM     15  H5  HNT d          29.156  45.611  17.092  0.00  0.00     0.083 H 
ATOM     16  H6  HNT d          27.677  44.828  14.762  0.00  0.00     0.088 H 
ATOM     17  H7  HNT d          25.875  41.029  15.572  0.00  0.00     0.087 H 
ATOM     18  H8  HNT d          26.064  41.461  17.999  0.00  0.00     0.084 H 
ATOM     19  H12 HNT d          28.447  46.631  19.031  0.00  0.00     0.278 HD
ATOM     20  H13 HNT d          26.884  46.145  18.861  0.00  0.00     0.278 HD
ENDROOT
BRANCH   2  21
ATOM     21  C22 HNT d          28.217  45.003  21.016  0.00  0.00     0.044 C 
ATOM     22  H10 HNT d          28.767  45.945  21.158  0.00  0.00     0.077 H 
ATOM     23  H11 HNT d          28.742  44.189  21.537  0.00  0.00     0.077 H 
BRANCH  21  24
ATOM     24  O22 HNT d          26.897  45.138  21.548  0.00  0.00    -0.399 OA
ATOM     25  H9  HNT d          26.343  45.576  20.912  0.00  0.00     0.209 HD
ENDBRANCH  21  24
ENDBRANCH   2  21
BRANCH   5  26
ATOM     26  N1  HNT d          26.595  42.701  13.700  0.00  0.00    -0.116 N 
ATOM     27  O2  HNT d          26.365  43.792  12.820  0.00  0.00    -0.532 OA
ATOM     28  O3  HNT d          26.651  41.385  13.168  0.00  0.00    -0.532 OA
ENDBRANCH   5  26
TORSDOF 3
ENDMDL
MODEL 3
REMARK VINA RESULT:      -7.6      1.340      6.004
REMARK  3 active torsions:
REMARK  status: ('A' for Active; 'I' for Inactive)
REMARK    1  A    between atoms: C2_2  and  C22_10 
REMARK    2  A    between atoms: C6_6  and  N1_12 
REMARK    3  A    between atoms: C22_10  and  O22_9 
ROOT
ATOM      1  C1  HNT d          26.769  42.613  15.850  0.00  0.00    -0.012 C 
ATOM      2  C2  HNT d          26.486  43.532  14.660  0.00  0.00     0.126 C 
ATOM      3  C4  HNT d          27.694  45.464  15.531  0.00  0.00     0.106 C 
ATOM      4  C5  HNT d          27.884  45.553  18.032  0.00  0.00    -0.043 A 
ATOM      5  C6  HNT d          27.774  45.007  19.306  0.00  0.00     0.103 A 
ATOM      6  C7  HNT d          27.336  43.694  19.449  0.00  0.00    -0.050 A 
ATOM      7  C8  HNT d          27.017  42.936  18.326  0.00  0.00    -0.074 A 
ATOM      8  C8A HNT d          27.132  43.485  17.054  0.00  0.00    -0.048 A 
ATOM      9  C4A HNT d          27.565  44.799  16.904  0.00  0.00    -0.024 A 
ATOM     10  N41 HNT d          27.610  44.461  14.456  0.00  0.00    -0.065 N 
ATOM     11  H1  HNT d          27.607  41.942  15.610  0.00  0.00     0.043 H 
ATOM     12  H2  HNT d          25.875  42.016  16.079  0.00  0.00     0.043 H 
ATOM     13  H3  HNT d          25.590  44.127  14.890  0.00  0.00     0.088 H 
ATOM     14  H4  HNT d          28.665  45.978  15.469  0.00  0.00     0.083 H 
ATOM     15  H5  HNT d          26.883  46.196  15.407  0.00  0.00     0.083 H 
ATOM     16  H6  HNT d          28.221  46.577  17.915  0.00  0.00     0.088 H 
ATOM     17  H7  HNT d          27.242  43.259  20.438  0.00  0.00     0.087 H 
ATOM     18  H8  HNT d          26.678  41.913  18.443  0.00  0.00     0.084 H 
ATOM     19  H12 HNT d          27.484  44.935  13.576  0.00  0.00     0.278 HD
ATOM     20  H13 HNT d          28.468  43.934  14.434  0.00  0.00     0.278 HD
ENDROOT
BRANCH   2  21
ATOM     21  C22 HNT d          26.197  42.710  13.402  0.00  0.00     0.044 C 
ATOM     22  H10 HNT d          26.681  43.183  12.534  0.00  0.00     0.077 H 
ATOM     23  H11 HNT d          25.110  42.664  13.235  0.00  0.00     0.077 H 
BRANCH  21  24
ATOM     24  O22 HNT d          26.709  41.386  13.570  0.00  0.00    -0.399 OA
ATOM     25  H9  HNT d          26.197  40.931  14.229  0.00  0.00     0.209 HD
ENDBRANCH  21  24
ENDBRANCH   2  21
BRANCH   5  26
ATOM     26  N1  HNT d          28.143  45.709  20.377  0.00  0.00    -0.116 N 
ATOM     27  O2  HNT d          28.967  46.858  20.242  0.00  0.00    -0.532 OA
ATOM     28  O3  HNT d          27.711  45.318  21.674  0.00  0.00    -0.532 OA
ENDBRANCH   5  26
TORSDOF 3
ENDMDL
MODEL 4
REMARK VINA RESULT:      -7.2      1.598      5.639
REMARK  3 active torsions:
REMARK  status: ('A' for Active; 'I' for Inactive)
REMARK    1  A    between atoms: C2_2  and  C22_10 
REMARK    2  A    between atoms: C6_6  and  N1_12 
REMARK    3  A    between atoms: C22_10  and  O22_9 
ROOT
ATOM      1  C1  HNT d          27.021  43.564  15.186  0.00  0.00    -0.012 C 
ATOM      2  C2  HNT d          26.903  42.042  15.283  0.00  0.00     0.126 C 
ATOM      3  C4  HNT d          26.474  41.968  17.684  0.00  0.00     0.106 C 
ATOM      4  C5  HNT d          27.377  43.917  18.981  0.00  0.00    -0.043 A 
ATOM      5  C6  HNT d          27.936  45.186  19.088  0.00  0.00     0.103 A 
ATOM      6  C7  HNT d          28.198  45.915  17.931  0.00  0.00    -0.050 A 
ATOM      7  C8  HNT d          27.896  45.379  16.683  0.00  0.00    -0.074 A 
ATOM      8  C8A HNT d          27.334  44.112  16.581  0.00  0.00    -0.048 A 
ATOM      9  C4A HNT d          27.074  43.375  17.733  0.00  0.00    -0.024 A 
ATOM     10  N41 HNT d          25.948  41.673  16.340  0.00  0.00    -0.065 N 
ATOM     11  H1  HNT d          26.073  43.989  14.824  0.00  0.00     0.043 H 
ATOM     12  H2  HNT d          27.830  43.831  14.492  0.00  0.00     0.043 H 
ATOM     13  H3  HNT d          27.888  41.638  15.558  0.00  0.00     0.088 H 
ATOM     14  H4  HNT d          25.654  41.899  18.414  0.00  0.00     0.083 H 
ATOM     15  H5  HNT d          27.253  41.234  17.936  0.00  0.00     0.083 H 
ATOM     16  H6  HNT d          27.175  43.343  19.878  0.00  0.00     0.088 H 
ATOM     17  H7  HNT d          28.637  46.904  18.003  0.00  0.00     0.087 H 
ATOM     18  H8  HNT d          28.099  45.953  15.786  0.00  0.00     0.084 H 
ATOM     19  H12 HNT d          25.756  40.685  16.274  0.00  0.00     0.278 HD
ATOM     20  H13 HNT d          25.094  42.191  16.204  0.00  0.00     0.278 HD
ENDROOT
BRANCH   2  21
ATOM     21  C22 HNT d          26.508  41.446  13.930  0.00  0.00     0.044 C 
ATOM     22  H10 HNT d          25.416  41.325  13.886  0.00  0.00     0.077 H 
ATOM     23  H11 HNT d          26.991  40.465  13.807  0.00  0.00     0.077 H 
BRANCH  21  24
ATOM     24  O22 HNT d          26.934  42.321  12.883  0.00  0.00    -0.399 OA
ATOM     25  H9  HNT d          27.803  42.650  13.080  0.00  0.00     0.209 HD
ENDBRANCH  21  24
ENDBRANCH   2  21
BRANCH   5  26
ATOM     26  N1  HNT d          28.163  45.726  20.285  0.00  0.00    -0.116 N 
ATOM     27  O2  HNT d          27.637  45.129  21.462  0.00  0.00    -0.532 OA
ATOM     28  O3  HNT d          28.941  46.910  20.400  0.00  0.00    -0.532 OA
ENDBRANCH   5  26
TORSDOF 3
ENDMDL
