MODEL 1
REMARK VINA RESULT:      -7.7      0.000      0.000
REMARK  11 active torsions:
REMARK  status: ('A' for Active; 'I' for Inactive)
REMARK    1  A    between atoms: C2_1  and  C1_2 
REMARK    2  A    between atoms: C1_2  and  C3_3 
REMARK    3  A    between atoms: C3_3  and  C4_4 
REMARK       I    between atoms: C4_4  and  N1_6 
REMARK    4  A    between atoms: N1_6  and  C5_7 
REMARK    5  A    between atoms: C6_8  and  O2_9 
REMARK    6  A    between atoms: C7_10  and  O3_11 
REMARK    7  A    between atoms: C8_12  and  C9_13 
REMARK    8  A    between atoms: C9_13  and  O4_14 
REMARK    9  A    between atoms: N2_17  and  O6_18 
REMARK   10  A    between atoms: O6_18  and  C11_19 
REMARK       I    between atoms: C11_19  and  N3_21 
REMARK   11  A    between atoms: N3_21  and  C12_22 
ROOT
ATOM      1  C5  NP6 d          -8.162 -12.337   8.043  0.00  0.00     0.105 C 
ATOM      2  C6  NP6 d          -8.986 -11.882   9.261  0.00  0.00     0.089 C 
ATOM      3  C7  NP6 d          -8.123 -11.102  10.240  0.00  0.00     0.090 C 
ATOM      4  C8  NP6 d          -7.626  -9.843   9.532  0.00  0.00     0.094 C 
ATOM      5  O5  NP6 d          -6.822 -10.184   8.411  0.00  0.00    -0.324 OA
ATOM      6  C10 NP6 d          -6.930 -11.428   7.839  0.00  0.00     0.194 C 
ATOM      7  N2  NP6 d          -5.897 -11.843   7.107  0.00  0.00    -0.100 NA
ATOM      8  H9  NP6 d          -7.786 -13.347   8.260  0.00  0.00     0.090 H 
ATOM      9  H10 NP6 d          -9.802 -11.232   8.915  0.00  0.00     0.090 H 
ATOM     10  H12 NP6 d          -7.274 -11.719  10.568  0.00  0.00     0.091 H 
ATOM     11  H14 NP6 d          -8.518  -9.306   9.177  0.00  0.00     0.091 H 
ENDROOT
BRANCH   1  12
ATOM     12  N1  NP6 d          -9.013 -12.441   6.819  0.00  0.00    -0.346 N 
ATOM     13  C4  NP6 d          -9.909 -13.405   6.566  0.00  0.00     0.218 C 
ATOM     14  O1  NP6 d         -10.155 -14.350   7.321  0.00  0.00    -0.274 OA
ATOM     15  H8  NP6 d          -8.903 -11.729   6.127  0.00  0.00     0.163 HD
BRANCH  13  16
ATOM     16  C3  NP6 d         -10.634 -13.272   5.208  0.00  0.00     0.009 C 
ATOM     17  H6  NP6 d         -10.070 -13.811   4.433  0.00  0.00     0.047 H 
ATOM     18  H7  NP6 d         -11.646 -13.697   5.286  0.00  0.00     0.047 H 
BRANCH  16  19
ATOM     19  C1  NP6 d         -10.727 -11.800   4.840  0.00  0.00    -0.061 C 
ATOM     20  H4  NP6 d         -11.025 -11.231   5.733  0.00  0.00     0.033 H 
ATOM     21  H5  NP6 d          -9.738 -11.458   4.501  0.00  0.00     0.033 H 
BRANCH  19  22
ATOM     22  C2  NP6 d         -11.741 -11.536   3.734  0.00  0.00    -0.076 C 
ATOM     23  H1  NP6 d         -11.291 -11.777   2.759  0.00  0.00     0.027 H 
ATOM     24  H2  NP6 d         -12.036 -10.477   3.750  0.00  0.00     0.027 H 
ATOM     25  H3  NP6 d         -12.629 -12.166   3.892  0.00  0.00     0.027 H 
ENDBRANCH  19  22
ENDBRANCH  16  19
ENDBRANCH  13  16
ENDBRANCH   1  12
BRANCH   7  26
ATOM     26  O6  NP6 d          -4.794 -11.031   6.985  0.00  0.00    -0.153 OA
BRANCH  26  27
ATOM     27  C11 NP6 d          -3.883 -11.160   8.020  0.00  0.00     0.389 C 
ATOM     28  O7  NP6 d          -3.292 -12.235   8.185  0.00  0.00    -0.236 OA
ATOM     29  N3  NP6 d          -3.671 -10.072   8.799  0.00  0.00    -0.301 N 
ATOM     30  H18 NP6 d          -4.145  -9.242   8.506  0.00  0.00     0.171 HD
BRANCH  29  31
ATOM     31  C12 NP6 d          -2.915  -9.938   9.917  0.00  0.00     0.036 A 
ATOM     32  C13 NP6 d          -3.549 -10.074  11.158  0.00  0.00    -0.057 A 
ATOM     33  C14 NP6 d          -2.837  -9.972  12.358  0.00  0.00    -0.081 A 
ATOM     34  H19 NP6 d          -4.617 -10.262  11.189  0.00  0.00     0.086 H 
ATOM     35  C15 NP6 d          -1.458  -9.737  12.330  0.00  0.00    -0.083 A 
ATOM     36  H20 NP6 d          -3.352 -10.073  13.306  0.00  0.00     0.083 H 
ATOM     37  C16 NP6 d          -0.808  -9.622  11.100  0.00  0.00    -0.081 A 
ATOM     38  H21 NP6 d          -0.899  -9.646  13.255  0.00  0.00     0.083 H 
ATOM     39  C17 NP6 d          -1.530  -9.722   9.903  0.00  0.00    -0.057 A 
ATOM     40  H22 NP6 d           0.263  -9.454  11.070  0.00  0.00     0.083 H 
ATOM     41  H23 NP6 d          -1.011  -9.633   8.955  0.00  0.00     0.086 H 
ENDBRANCH  29  31
ENDBRANCH  26  27
ENDBRANCH   7  26
BRANCH   2  42
ATOM     42  O2  NP6 d          -9.540 -13.017   9.906  0.00  0.00    -0.390 OA
ATOM     43  H11 NP6 d          -8.867 -13.677  10.018  0.00  0.00     0.210 HD
ENDBRANCH   2  42
BRANCH   4  44
ATOM     44  C9  NP6 d          -6.793  -8.854  10.384  0.00  0.00     0.044 C 
ATOM     45  H15 NP6 d          -6.278  -8.148   9.717  0.00  0.00     0.078 H 
ATOM     46  H16 NP6 d          -6.049  -9.417  10.966  0.00  0.00     0.078 H 
BRANCH  44  47
ATOM     47  O4  NP6 d          -7.628  -8.126  11.277  0.00  0.00    -0.398 OA
ATOM     48  H17 NP6 d          -7.336  -8.269  12.170  0.00  0.00     0.209 HD
ENDBRANCH  44  47
ENDBRANCH   4  44
BRANCH   3  49
ATOM     49  O3  NP6 d          -8.898 -10.690  11.375  0.00  0.00    -0.390 OA
ATOM     50  H13 NP6 d          -9.596 -10.113  11.088  0.00  0.00     0.210 HD
ENDBRANCH   3  49
TORSDOF 11
ENDMDL
MODEL 2
REMARK VINA RESULT:      -7.3      2.903      4.429
REMARK  11 active torsions:
REMARK  status: ('A' for Active; 'I' for Inactive)
REMARK    1  A    between atoms: C2_1  and  C1_2 
REMARK    2  A    between atoms: C1_2  and  C3_3 
REMARK    3  A    between atoms: C3_3  and  C4_4 
REMARK       I    between atoms: C4_4  and  N1_6 
REMARK    4  A    between atoms: N1_6  and  C5_7 
REMARK    5  A    between atoms: C6_8  and  O2_9 
REMARK    6  A    between atoms: C7_10  and  O3_11 
REMARK    7  A    between atoms: C8_12  and  C9_13 
REMARK    8  A    between atoms: C9_13  and  O4_14 
REMARK    9  A    between atoms: N2_17  and  O6_18 
REMARK   10  A    between atoms: O6_18  and  C11_19 
REMARK       I    between atoms: C11_19  and  N3_21 
REMARK   11  A    between atoms: N3_21  and  C12_22 
ROOT
ATOM      1  C5  NP6 d          -8.223 -12.074   8.666  0.00  0.00     0.105 C 
ATOM      2  C6  NP6 d          -8.861 -10.842   9.333  0.00  0.00     0.089 C 
ATOM      3  C7  NP6 d          -7.879 -10.166  10.277  0.00  0.00     0.090 C 
ATOM      4  C8  NP6 d          -6.694  -9.672   9.450  0.00  0.00     0.094 C 
ATOM      5  O5  NP6 d          -6.028 -10.763   8.830  0.00  0.00    -0.324 OA
ATOM      6  C10 NP6 d          -6.684 -11.955   8.646  0.00  0.00     0.194 C 
ATOM      7  N2  NP6 d          -5.924 -13.036   8.473  0.00  0.00    -0.100 NA
ATOM      8  H9  NP6 d          -8.471 -12.948   9.285  0.00  0.00     0.090 H 
ATOM      9  H10 NP6 d          -9.150 -10.125   8.551  0.00  0.00     0.090 H 
ATOM     10  H12 NP6 d          -7.544 -10.878  11.044  0.00  0.00     0.091 H 
ATOM     11  H14 NP6 d          -7.104  -9.017   8.668  0.00  0.00     0.091 H 
ENDROOT
BRANCH   1  12
ATOM     12  N1  NP6 d          -8.802 -12.320   7.311  0.00  0.00    -0.346 N 
ATOM     13  C4  NP6 d          -9.667 -13.292   6.991  0.00  0.00     0.218 C 
ATOM     14  O1  NP6 d         -10.110 -14.127   7.787  0.00  0.00    -0.274 OA
ATOM     15  H8  NP6 d          -8.518 -11.705   6.576  0.00  0.00     0.163 HD
BRANCH  13  16
ATOM     16  C3  NP6 d         -10.086 -13.322   5.504  0.00  0.00     0.009 C 
ATOM     17  H6  NP6 d          -9.264 -13.731   4.898  0.00  0.00     0.047 H 
ATOM     18  H7  NP6 d         -10.979 -13.952   5.384  0.00  0.00     0.047 H 
BRANCH  16  19
ATOM     19  C1  NP6 d         -10.398 -11.905   5.050  0.00  0.00    -0.061 C 
ATOM     20  H4  NP6 d         -10.713 -11.316   5.924  0.00  0.00     0.033 H 
ATOM     21  H5  NP6 d          -9.486 -11.464   4.621  0.00  0.00     0.033 H 
BRANCH  19  22
ATOM     22  C2  NP6 d         -11.504 -11.856   4.003  0.00  0.00    -0.076 C 
ATOM     23  H1  NP6 d         -11.079 -12.072   3.012  0.00  0.00     0.027 H 
ATOM     24  H2  NP6 d         -11.959 -10.855   3.997  0.00  0.00     0.027 H 
ATOM     25  H3  NP6 d         -12.271 -12.606   4.245  0.00  0.00     0.027 H 
ENDBRANCH  19  22
ENDBRANCH  16  19
ENDBRANCH  13  16
ENDBRANCH   1  12
BRANCH   7  26
ATOM     26  O6  NP6 d          -4.555 -12.906   8.510  0.00  0.00    -0.153 OA
BRANCH  26  27
ATOM     27  C11 NP6 d          -3.954 -12.929   7.264  0.00  0.00     0.389 C 
ATOM     28  O7  NP6 d          -3.627 -11.866   6.721  0.00  0.00    -0.236 OA
ATOM     29  N3  NP6 d          -3.734 -14.143   6.703  0.00  0.00    -0.301 N 
ATOM     30  H18 NP6 d          -3.964 -14.925   7.282  0.00  0.00     0.171 HD
BRANCH  29  31
ATOM     31  C12 NP6 d          -3.251 -14.459   5.476  0.00  0.00     0.036 A 
ATOM     32  C13 NP6 d          -1.896 -14.216   5.222  0.00  0.00    -0.057 A 
ATOM     33  C14 NP6 d          -1.314 -14.535   3.990  0.00  0.00    -0.081 A 
ATOM     34  H19 NP6 d          -1.283 -13.771   5.998  0.00  0.00     0.086 H 
ATOM     35  C15 NP6 d          -2.092 -15.118   2.984  0.00  0.00    -0.083 A 
ATOM     36  H20 NP6 d          -0.264 -14.329   3.815  0.00  0.00     0.083 H 
ATOM     37  C16 NP6 d          -3.440 -15.387   3.230  0.00  0.00    -0.081 A 
ATOM     38  H21 NP6 d          -1.653 -15.358   2.022  0.00  0.00     0.083 H 
ATOM     39  C17 NP6 d          -4.015 -15.062   4.466  0.00  0.00    -0.057 A 
ATOM     40  H22 NP6 d          -4.046 -15.852   2.460  0.00  0.00     0.083 H 
ATOM     41  H23 NP6 d          -5.062 -15.279   4.644  0.00  0.00     0.086 H 
ENDBRANCH  29  31
ENDBRANCH  26  27
ENDBRANCH   7  26
BRANCH   2  42
ATOM     42  O2  NP6 d         -10.020 -11.240  10.047  0.00  0.00    -0.390 OA
ATOM     43  H11 NP6 d         -10.040 -12.187  10.115  0.00  0.00     0.210 HD
ENDBRANCH   2  42
BRANCH   4  44
ATOM     44  C9  NP6 d          -5.609  -8.870  10.210  0.00  0.00     0.044 C 
ATOM     45  H15 NP6 d          -5.930  -7.822  10.299  0.00  0.00     0.078 H 
ATOM     46  H16 NP6 d          -4.666  -8.917   9.647  0.00  0.00     0.078 H 
BRANCH  44  47
ATOM     47  O4  NP6 d          -5.401  -9.404  11.511  0.00  0.00    -0.398 OA
ATOM     48  H17 NP6 d          -4.880  -8.796  12.023  0.00  0.00     0.209 HD
ENDBRANCH  44  47
ENDBRANCH   4  44
BRANCH   3  49
ATOM     49  O3  NP6 d          -8.487  -9.025  10.899  0.00  0.00    -0.390 OA
ATOM     50  H13 NP6 d          -9.424  -9.162  10.964  0.00  0.00     0.210 HD
ENDBRANCH   3  49
TORSDOF 11
ENDMDL
MODEL 3
REMARK VINA RESULT:      -7.1      1.760      7.374
REMARK  11 active torsions:
REMARK  status: ('A' for Active; 'I' for Inactive)
REMARK    1  A    between atoms: C2_1  and  C1_2 
REMARK    2  A    between atoms: C1_2  and  C3_3 
REMARK    3  A    between atoms: C3_3  and  C4_4 
REMARK       I    between atoms: C4_4  and  N1_6 
REMARK    4  A    between atoms: N1_6  and  C5_7 
REMARK    5  A    between atoms: C6_8  and  O2_9 
REMARK    6  A    between atoms: C7_10  and  O3_11 
REMARK    7  A    between atoms: C8_12  and  C9_13 
REMARK    8  A    between atoms: C9_13  and  O4_14 
REMARK    9  A    between atoms: N2_17  and  O6_18 
REMARK   10  A    between atoms: O6_18  and  C11_19 
REMARK       I    between atoms: C11_19  and  N3_21 
REMARK   11  A    between atoms: N3_21  and  C12_22 
ROOT
ATOM      1  C5  NP6 d          -4.818 -10.048   9.751  0.00  0.00     0.105 C 
ATOM      2  C6  NP6 d          -5.763  -9.070  10.472  0.00  0.00     0.089 C 
ATOM      3  C7  NP6 d          -7.214  -9.494  10.305  0.00  0.00     0.090 C 
ATOM      4  C8  NP6 d          -7.385 -10.861  10.963  0.00  0.00     0.094 C 
ATOM      5  O5  NP6 d          -6.567 -11.830  10.323  0.00  0.00    -0.324 OA
ATOM      6  C10 NP6 d          -5.478 -11.434   9.586  0.00  0.00     0.194 C 
ATOM      7  N2  NP6 d          -5.019 -12.299   8.683  0.00  0.00    -0.100 NA
ATOM      8  H9  NP6 d          -4.644  -9.651   8.740  0.00  0.00     0.090 H 
ATOM      9  H10 NP6 d          -5.518  -9.066  11.544  0.00  0.00     0.090 H 
ATOM     10  H12 NP6 d          -7.469  -9.546   9.236  0.00  0.00     0.091 H 
ATOM     11  H14 NP6 d          -7.056 -10.754  12.007  0.00  0.00     0.091 H 
ENDROOT
BRANCH   1  12
ATOM     12  N1  NP6 d          -3.487 -10.117  10.427  0.00  0.00    -0.346 N 
ATOM     13  C4  NP6 d          -2.295 -10.106   9.816  0.00  0.00     0.218 C 
ATOM     14  O1  NP6 d          -2.133 -10.036   8.594  0.00  0.00    -0.274 OA
ATOM     15  H8  NP6 d          -3.487 -10.178  11.424  0.00  0.00     0.163 HD
BRANCH  13  16
ATOM     16  C3  NP6 d          -1.081 -10.209  10.766  0.00  0.00     0.009 C 
ATOM     17  H6  NP6 d          -1.128 -11.156  11.325  0.00  0.00     0.047 H 
ATOM     18  H7  NP6 d          -0.150 -10.175  10.182  0.00  0.00     0.047 H 
BRANCH  16  19
ATOM     19  C1  NP6 d          -1.115  -9.041  11.739  0.00  0.00    -0.061 C 
ATOM     20  H4  NP6 d          -2.159  -8.722  11.871  0.00  0.00     0.033 H 
ATOM     21  H5  NP6 d          -0.709  -9.375  12.705  0.00  0.00     0.033 H 
BRANCH  19  22
ATOM     22  C2  NP6 d          -0.299  -7.850  11.251  0.00  0.00    -0.076 C 
ATOM     23  H1  NP6 d           0.637  -8.209  10.795  0.00  0.00     0.027 H 
ATOM     24  H2  NP6 d          -0.064  -7.193  12.101  0.00  0.00     0.027 H 
ATOM     25  H3  NP6 d          -0.878  -7.289  10.504  0.00  0.00     0.027 H 
ENDBRANCH  19  22
ENDBRANCH  16  19
ENDBRANCH  13  16
ENDBRANCH   1  12
BRANCH   7  26
ATOM     26  O6  NP6 d          -5.659 -13.506   8.525  0.00  0.00    -0.153 OA
BRANCH  26  27
ATOM     27  C11 NP6 d          -6.587 -13.521   7.498  0.00  0.00     0.389 C 
ATOM     28  O7  NP6 d          -6.394 -14.238   6.509  0.00  0.00    -0.236 OA
ATOM     29  N3  NP6 d          -7.688 -12.745   7.646  0.00  0.00    -0.301 N 
ATOM     30  H18 NP6 d          -7.766 -12.283   8.530  0.00  0.00     0.171 HD
BRANCH  29  31
ATOM     31  C12 NP6 d          -8.702 -12.500   6.779  0.00  0.00     0.036 A 
ATOM     32  C13 NP6 d          -9.010 -11.165   6.492  0.00  0.00    -0.057 A 
ATOM     33  C14 NP6 d         -10.026 -10.827   5.590  0.00  0.00    -0.081 A 
ATOM     34  H19 NP6 d          -8.449 -10.375   6.978  0.00  0.00     0.086 H 
ATOM     35  C15 NP6 d         -10.751 -11.837   4.949  0.00  0.00    -0.083 A 
ATOM     36  H20 NP6 d         -10.251  -9.786   5.390  0.00  0.00     0.083 H 
ATOM     37  C16 NP6 d         -10.440 -13.173   5.208  0.00  0.00    -0.081 A 
ATOM     38  H21 NP6 d         -11.547 -11.585   4.258  0.00  0.00     0.083 H 
ATOM     39  C17 NP6 d          -9.423 -13.502   6.115  0.00  0.00    -0.057 A 
ATOM     40  H22 NP6 d         -10.988 -13.961   4.705  0.00  0.00     0.083 H 
ATOM     41  H23 NP6 d          -9.191 -14.545   6.305  0.00  0.00     0.086 H 
ENDBRANCH  29  31
ENDBRANCH  26  27
ENDBRANCH   7  26
BRANCH   2  42
ATOM     42  O2  NP6 d          -5.579  -7.764   9.950  0.00  0.00    -0.390 OA
ATOM     43  H11 NP6 d          -4.662  -7.525  10.014  0.00  0.00     0.210 HD
ENDBRANCH   2  42
BRANCH   4  44
ATOM     44  C9  NP6 d          -8.820 -11.443  10.983  0.00  0.00     0.044 C 
ATOM     45  H15 NP6 d          -9.331 -11.112  11.899  0.00  0.00     0.078 H 
ATOM     46  H16 NP6 d          -8.764 -12.541  10.971  0.00  0.00     0.078 H 
BRANCH  44  47
ATOM     47  O4  NP6 d          -9.561 -11.003   9.852  0.00  0.00    -0.398 OA
ATOM     48  H17 NP6 d         -10.360 -11.513   9.780  0.00  0.00     0.209 HD
ENDBRANCH  44  47
ENDBRANCH   4  44
BRANCH   3  49
ATOM     49  O3  NP6 d          -8.086  -8.572  10.973  0.00  0.00    -0.390 OA
ATOM     50  H13 NP6 d          -7.623  -7.758  11.132  0.00  0.00     0.210 HD
ENDBRANCH   3  49
TORSDOF 11
ENDMDL
MODEL 4
REMARK VINA RESULT:      -6.9      2.234      3.058
REMARK  11 active torsions:
REMARK  status: ('A' for Active; 'I' for Inactive)
REMARK    1  A    between atoms: C2_1  and  C1_2 
REMARK    2  A    between atoms: C1_2  and  C3_3 
REMARK    3  A    between atoms: C3_3  and  C4_4 
REMARK       I    between atoms: C4_4  and  N1_6 
REMARK    4  A    between atoms: N1_6  and  C5_7 
REMARK    5  A    between atoms: C6_8  and  O2_9 
REMARK    6  A    between atoms: C7_10  and  O3_11 
REMARK    7  A    between atoms: C8_12  and  C9_13 
REMARK    8  A    between atoms: C9_13  and  O4_14 
REMARK    9  A    between atoms: N2_17  and  O6_18 
REMARK   10  A    between atoms: O6_18  and  C11_19 
REMARK       I    between atoms: C11_19  and  N3_21 
REMARK   11  A    between atoms: N3_21  and  C12_22 
ROOT
ATOM      1  C5  NP6 d          -8.010 -12.152   8.076  0.00  0.00     0.105 C 
ATOM      2  C6  NP6 d          -8.894 -11.767   9.276  0.00  0.00     0.089 C 
ATOM      3  C7  NP6 d          -8.112 -10.938  10.283  0.00  0.00     0.090 C 
ATOM      4  C8  NP6 d          -7.685  -9.642   9.597  0.00  0.00     0.094 C 
ATOM      5  O5  NP6 d          -6.832  -9.917   8.495  0.00  0.00    -0.324 OA
ATOM      6  C10 NP6 d          -6.839 -11.159   7.911  0.00  0.00     0.194 C 
ATOM      7  N2  NP6 d          -5.762 -11.495   7.202  0.00  0.00    -0.100 NA
ATOM      8  H9  NP6 d          -7.571 -13.136   8.295  0.00  0.00     0.090 H 
ATOM      9  H10 NP6 d          -9.744 -11.171   8.914  0.00  0.00     0.090 H 
ATOM     10  H12 NP6 d          -7.231 -11.498  10.628  0.00  0.00     0.091 H 
ATOM     11  H14 NP6 d          -8.603  -9.164   9.223  0.00  0.00     0.091 H 
ENDROOT
BRANCH   1  12
ATOM     12  N1  NP6 d          -8.820 -12.304   6.830  0.00  0.00    -0.346 N 
ATOM     13  C4  NP6 d          -9.680 -13.298   6.569  0.00  0.00     0.218 C 
ATOM     14  O1  NP6 d          -9.922 -14.236   7.335  0.00  0.00    -0.274 OA
ATOM     15  H8  NP6 d          -8.711 -11.601   6.128  0.00  0.00     0.163 HD
BRANCH  13  16
ATOM     16  C3  NP6 d         -10.369 -13.211   5.188  0.00  0.00     0.009 C 
ATOM     17  H6  NP6 d          -9.680 -13.569   4.409  0.00  0.00     0.047 H 
ATOM     18  H7  NP6 d         -11.276 -13.832   5.188  0.00  0.00     0.047 H 
BRANCH  16  19
ATOM     19  C1  NP6 d         -10.742 -11.763   4.914  0.00  0.00    -0.061 C 
ATOM     20  H4  NP6 d         -11.232 -11.350   5.807  0.00  0.00     0.033 H 
ATOM     21  H5  NP6 d          -9.824 -11.196   4.703  0.00  0.00     0.033 H 
BRANCH  19  22
ATOM     22  C2  NP6 d         -11.688 -11.618   3.728  0.00  0.00    -0.076 C 
ATOM     23  H1  NP6 d         -11.213 -10.998   2.953  0.00  0.00     0.027 H 
ATOM     24  H2  NP6 d         -12.622 -11.141   4.059  0.00  0.00     0.027 H 
ATOM     25  H3  NP6 d         -11.913 -12.613   3.314  0.00  0.00     0.027 H 
ENDBRANCH  19  22
ENDBRANCH  16  19
ENDBRANCH  13  16
ENDBRANCH   1  12
BRANCH   7  26
ATOM     26  O6  NP6 d          -4.714 -10.608   7.115  0.00  0.00    -0.153 OA
BRANCH  26  27
ATOM     27  C11 NP6 d          -3.467 -11.199   7.217  0.00  0.00     0.389 C 
ATOM     28  O7  NP6 d          -2.474 -10.499   7.448  0.00  0.00    -0.236 OA
ATOM     29  N3  NP6 d          -3.405 -12.545   7.072  0.00  0.00    -0.301 N 
ATOM     30  H18 NP6 d          -4.289 -13.003   6.977  0.00  0.00     0.171 HD
BRANCH  29  31
ATOM     31  C12 NP6 d          -2.326 -13.367   7.036  0.00  0.00     0.036 A 
ATOM     32  C13 NP6 d          -1.928 -13.979   8.230  0.00  0.00    -0.057 A 
ATOM     33  C14 NP6 d          -0.839 -14.857   8.275  0.00  0.00    -0.081 A 
ATOM     34  H19 NP6 d          -2.475 -13.767   9.142  0.00  0.00     0.086 H 
ATOM     35  C15 NP6 d          -0.131 -15.145   7.103  0.00  0.00    -0.083 A 
ATOM     36  H20 NP6 d          -0.546 -15.312   9.213  0.00  0.00     0.083 H 
ATOM     37  C16 NP6 d          -0.530 -14.560   5.900  0.00  0.00    -0.081 A 
ATOM     38  H21 NP6 d           0.721 -15.816   7.129  0.00  0.00     0.083 H 
ATOM     39  C17 NP6 d          -1.620 -13.679   5.866  0.00  0.00    -0.057 A 
ATOM     40  H22 NP6 d           0.006 -14.789   4.986  0.00  0.00     0.083 H 
ATOM     41  H23 NP6 d          -1.919 -13.234   4.924  0.00  0.00     0.086 H 
ENDBRANCH  29  31
ENDBRANCH  26  27
ENDBRANCH   7  26
BRANCH   2  42
ATOM     42  O2  NP6 d          -9.385 -12.943   9.899  0.00  0.00    -0.390 OA
ATOM     43  H11 NP6 d          -8.726 -13.285  10.491  0.00  0.00     0.210 HD
ENDBRANCH   2  42
BRANCH   4  44
ATOM     44  C9  NP6 d          -6.944  -8.605  10.478  0.00  0.00     0.044 C 
ATOM     45  H15 NP6 d          -7.677  -8.067  11.096  0.00  0.00     0.078 H 
ATOM     46  H16 NP6 d          -6.418  -7.891   9.828  0.00  0.00     0.078 H 
BRANCH  44  47
ATOM     47  O4  NP6 d          -5.999  -9.245  11.327  0.00  0.00    -0.398 OA
ATOM     48  H17 NP6 d          -5.871  -8.720  12.108  0.00  0.00     0.209 HD
ENDBRANCH  44  47
ENDBRANCH   4  44
BRANCH   3  49
ATOM     49  O3  NP6 d          -8.942 -10.591  11.400  0.00  0.00    -0.390 OA
ATOM     50  H13 NP6 d          -8.735  -9.708  11.684  0.00  0.00     0.210 HD
ENDBRANCH   3  49
TORSDOF 11
ENDMDL
MODEL 5
REMARK VINA RESULT:      -6.8      2.126      2.796
REMARK  11 active torsions:
REMARK  status: ('A' for Active; 'I' for Inactive)
REMARK    1  A    between atoms: C2_1  and  C1_2 
REMARK    2  A    between atoms: C1_2  and  C3_3 
REMARK    3  A    between atoms: C3_3  and  C4_4 
REMARK       I    between atoms: C4_4  and  N1_6 
REMARK    4  A    between atoms: N1_6  and  C5_7 
REMARK    5  A    between atoms: C6_8  and  O2_9 
REMARK    6  A    between atoms: C7_10  and  O3_11 
REMARK    7  A    between atoms: C8_12  and  C9_13 
REMARK    8  A    between atoms: C9_13  and  O4_14 
REMARK    9  A    between atoms: N2_17  and  O6_18 
REMARK   10  A    between atoms: O6_18  and  C11_19 
REMARK       I    between atoms: C11_19  and  N3_21 
REMARK   11  A    between atoms: N3_21  and  C12_22 
ROOT
ATOM      1  C5  NP6 d          -8.446 -12.495   8.704  0.00  0.00     0.105 C 
ATOM      2  C6  NP6 d          -8.850 -11.196   9.423  0.00  0.00     0.089 C 
ATOM      3  C7  NP6 d          -7.857 -10.852  10.523  0.00  0.00     0.090 C 
ATOM      4  C8  NP6 d          -6.498 -10.608   9.872  0.00  0.00     0.094 C 
ATOM      5  O5  NP6 d          -6.040 -11.782   9.216  0.00  0.00    -0.324 OA
ATOM      6  C10 NP6 d          -6.932 -12.760   8.849  0.00  0.00     0.194 C 
ATOM      7  N2  NP6 d          -6.436 -13.979   8.646  0.00  0.00    -0.100 NA
ATOM      8  H9  NP6 d          -8.969 -13.323   9.205  0.00  0.00     0.090 H 
ATOM      9  H10 NP6 d          -8.863 -10.375   8.691  0.00  0.00     0.090 H 
ATOM     10  H12 NP6 d          -7.796 -11.679  11.245  0.00  0.00     0.091 H 
ATOM     11  H14 NP6 d          -6.642  -9.818   9.121  0.00  0.00     0.091 H 
ENDROOT
BRANCH   1  12
ATOM     12  N1  NP6 d          -8.899 -12.493   7.280  0.00  0.00    -0.346 N 
ATOM     13  C4  NP6 d          -9.777 -13.345   6.734  0.00  0.00     0.218 C 
ATOM     14  O1  NP6 d         -10.338 -14.261   7.343  0.00  0.00    -0.274 OA
ATOM     15  H8  NP6 d          -8.512 -11.792   6.681  0.00  0.00     0.163 HD
BRANCH  13  16
ATOM     16  C3  NP6 d         -10.046 -13.119   5.229  0.00  0.00     0.009 C 
ATOM     17  H6  NP6 d          -9.102 -13.195   4.670  0.00  0.00     0.047 H 
ATOM     18  H7  NP6 d         -10.751 -13.879   4.862  0.00  0.00     0.047 H 
BRANCH  16  19
ATOM     19  C1  NP6 d         -10.643 -11.734   5.036  0.00  0.00    -0.061 C 
ATOM     20  H4  NP6 d         -11.186 -11.454   5.951  0.00  0.00     0.033 H 
ATOM     21  H5  NP6 d          -9.826 -11.019   4.861  0.00  0.00     0.033 H 
BRANCH  19  22
ATOM     22  C2  NP6 d         -11.607 -11.672   3.858  0.00  0.00    -0.076 C 
ATOM     23  H1  NP6 d         -11.862 -12.694   3.538  0.00  0.00     0.027 H 
ATOM     24  H2  NP6 d         -11.134 -11.134   3.024  0.00  0.00     0.027 H 
ATOM     25  H3  NP6 d         -12.524 -11.145   4.161  0.00  0.00     0.027 H 
ENDBRANCH  19  22
ENDBRANCH  16  19
ENDBRANCH  13  16
ENDBRANCH   1  12
BRANCH   7  26
ATOM     26  O6  NP6 d          -5.090 -14.194   8.832  0.00  0.00    -0.153 OA
BRANCH  26  27
ATOM     27  C11 NP6 d          -4.285 -13.569   7.896  0.00  0.00     0.389 C 
ATOM     28  O7  NP6 d          -4.525 -13.708   6.691  0.00  0.00    -0.236 OA
ATOM     29  N3  NP6 d          -3.268 -12.805   8.364  0.00  0.00    -0.301 N 
ATOM     30  H18 NP6 d          -3.236 -12.703   9.358  0.00  0.00     0.171 HD
BRANCH  29  31
ATOM     31  C12 NP6 d          -2.285 -12.158   7.689  0.00  0.00     0.036 A 
ATOM     32  C13 NP6 d          -2.292 -10.758   7.705  0.00  0.00    -0.057 A 
ATOM     33  C14 NP6 d          -1.301 -10.015   7.052  0.00  0.00    -0.081 A 
ATOM     34  H19 NP6 d          -3.083 -10.238   8.233  0.00  0.00     0.086 H 
ATOM     35  C15 NP6 d          -0.270 -10.675   6.375  0.00  0.00    -0.083 A 
ATOM     36  H20 NP6 d          -1.333  -8.932   7.072  0.00  0.00     0.083 H 
ATOM     37  C16 NP6 d          -0.238 -12.071   6.370  0.00  0.00    -0.081 A 
ATOM     38  H21 NP6 d           0.495 -10.108   5.857  0.00  0.00     0.083 H 
ATOM     39  C17 NP6 d          -1.236 -12.807   7.023  0.00  0.00    -0.057 A 
ATOM     40  H22 NP6 d           0.565 -12.589   5.858  0.00  0.00     0.083 H 
ATOM     41  H23 NP6 d          -1.196 -13.890   7.013  0.00  0.00     0.086 H 
ENDBRANCH  29  31
ENDBRANCH  26  27
ENDBRANCH   7  26
BRANCH   2  42
ATOM     42  O2  NP6 d         -10.148 -11.345   9.975  0.00  0.00    -0.390 OA
ATOM     43  H11 NP6 d         -10.617 -12.020   9.501  0.00  0.00     0.210 HD
ENDBRANCH   2  42
BRANCH   4  44
ATOM     44  C9  NP6 d          -5.353 -10.156  10.812  0.00  0.00     0.044 C 
ATOM     45  H15 NP6 d          -5.382  -9.062  10.916  0.00  0.00     0.078 H 
ATOM     46  H16 NP6 d          -4.389 -10.457  10.376  0.00  0.00     0.078 H 
BRANCH  44  47
ATOM     47  O4  NP6 d          -5.488 -10.750  12.097  0.00  0.00    -0.398 OA
ATOM     48  H17 NP6 d          -4.809 -10.416  12.672  0.00  0.00     0.209 HD
ENDBRANCH  44  47
ENDBRANCH   4  44
BRANCH   3  49
ATOM     49  O3  NP6 d          -8.247  -9.645  11.191  0.00  0.00    -0.390 OA
ATOM     50  H13 NP6 d          -7.481  -9.100  11.330  0.00  0.00     0.210 HD
ENDBRANCH   3  49
TORSDOF 11
ENDMDL
MODEL 6
REMARK VINA RESULT:      -6.7      2.058      7.537
REMARK  11 active torsions:
REMARK  status: ('A' for Active; 'I' for Inactive)
REMARK    1  A    between atoms: C2_1  and  C1_2 
REMARK    2  A    between atoms: C1_2  and  C3_3 
REMARK    3  A    between atoms: C3_3  and  C4_4 
REMARK       I    between atoms: C4_4  and  N1_6 
REMARK    4  A    between atoms: N1_6  and  C5_7 
REMARK    5  A    between atoms: C6_8  and  O2_9 
REMARK    6  A    between atoms: C7_10  and  O3_11 
REMARK    7  A    between atoms: C8_12  and  C9_13 
REMARK    8  A    between atoms: C9_13  and  O4_14 
REMARK    9  A    between atoms: N2_17  and  O6_18 
REMARK   10  A    between atoms: O6_18  and  C11_19 
REMARK       I    between atoms: C11_19  and  N3_21 
REMARK   11  A    between atoms: N3_21  and  C12_22 
ROOT
ATOM      1  C5  NP6 d          -4.537 -11.589   9.117  0.00  0.00     0.105 C 
ATOM      2  C6  NP6 d          -4.472 -10.081   9.418  0.00  0.00     0.089 C 
ATOM      3  C7  NP6 d          -5.866  -9.478   9.479  0.00  0.00     0.090 C 
ATOM      4  C8  NP6 d          -6.617 -10.139  10.632  0.00  0.00     0.094 C 
ATOM      5  O5  NP6 d          -6.750 -11.536  10.406  0.00  0.00    -0.324 OA
ATOM      6  C10 NP6 d          -5.901 -12.177   9.538  0.00  0.00     0.194 C 
ATOM      7  N2  NP6 d          -6.319 -13.341   9.041  0.00  0.00    -0.100 NA
ATOM      8  H9  NP6 d          -4.456 -11.709   8.027  0.00  0.00     0.090 H 
ATOM      9  H10 NP6 d          -3.982  -9.934  10.392  0.00  0.00     0.090 H 
ATOM     10  H12 NP6 d          -6.392  -9.649   8.528  0.00  0.00     0.091 H 
ATOM     11  H14 NP6 d          -6.010  -9.984  11.536  0.00  0.00     0.091 H 
ENDROOT
BRANCH   1  12
ATOM     12  N1  NP6 d          -3.381 -12.315   9.723  0.00  0.00    -0.346 N 
ATOM     13  C4  NP6 d          -2.150 -12.406   9.201  0.00  0.00     0.218 C 
ATOM     14  O1  NP6 d          -1.801 -11.894   8.133  0.00  0.00    -0.274 OA
ATOM     15  H8  NP6 d          -3.540 -12.775  10.596  0.00  0.00     0.163 HD
BRANCH  13  16
ATOM     16  C3  NP6 d          -1.154 -13.240  10.038  0.00  0.00     0.009 C 
ATOM     17  H6  NP6 d          -1.187 -14.290   9.713  0.00  0.00     0.047 H 
ATOM     18  H7  NP6 d          -0.136 -12.846   9.901  0.00  0.00     0.047 H 
BRANCH  16  19
ATOM     19  C1  NP6 d          -1.542 -13.147  11.505  0.00  0.00    -0.061 C 
ATOM     20  H4  NP6 d          -0.786 -12.547  12.033  0.00  0.00     0.033 H 
ATOM     21  H5  NP6 d          -2.521 -12.651  11.580  0.00  0.00     0.033 H 
BRANCH  19  22
ATOM     22  C2  NP6 d          -1.635 -14.514  12.173  0.00  0.00    -0.076 C 
ATOM     23  H1  NP6 d          -0.772 -14.654  12.841  0.00  0.00     0.027 H 
ATOM     24  H2  NP6 d          -1.634 -15.299  11.403  0.00  0.00     0.027 H 
ATOM     25  H3  NP6 d          -2.565 -14.574  12.758  0.00  0.00     0.027 H 
ENDBRANCH  19  22
ENDBRANCH  16  19
ENDBRANCH  13  16
ENDBRANCH   1  12
BRANCH   7  26
ATOM     26  O6  NP6 d          -7.560 -13.815   9.397  0.00  0.00    -0.153 OA
BRANCH  26  27
ATOM     27  C11 NP6 d          -8.605 -13.238   8.696  0.00  0.00     0.389 C 
ATOM     28  O7  NP6 d          -9.591 -12.811   9.308  0.00  0.00    -0.236 OA
ATOM     29  N3  NP6 d          -8.477 -13.155   7.349  0.00  0.00    -0.301 N 
ATOM     30  H18 NP6 d          -7.594 -13.455   6.988  0.00  0.00     0.171 HD
BRANCH  29  31
ATOM     31  C12 NP6 d          -9.364 -12.726   6.417  0.00  0.00     0.036 A 
ATOM     32  C13 NP6 d          -9.488 -11.346   6.216  0.00  0.00    -0.057 A 
ATOM     33  C14 NP6 d         -10.364 -10.823   5.258  0.00  0.00    -0.081 A 
ATOM     34  H19 NP6 d          -8.893 -10.668   6.817  0.00  0.00     0.086 H 
ATOM     35  C15 NP6 d         -11.130 -11.688   4.470  0.00  0.00    -0.083 A 
ATOM     36  H20 NP6 d         -10.448  -9.750   5.127  0.00  0.00     0.083 H 
ATOM     37  C16 NP6 d         -11.000 -13.068   4.644  0.00  0.00    -0.081 A 
ATOM     38  H21 NP6 d         -11.819 -11.292   3.733  0.00  0.00     0.083 H 
ATOM     39  C17 NP6 d         -10.123 -13.583   5.608  0.00  0.00    -0.057 A 
ATOM     40  H22 NP6 d         -11.581 -13.745   4.028  0.00  0.00     0.083 H 
ATOM     41  H23 NP6 d         -10.031 -14.656   5.729  0.00  0.00     0.086 H 
ENDBRANCH  29  31
ENDBRANCH  26  27
ENDBRANCH   7  26
BRANCH   2  42
ATOM     42  O2  NP6 d          -3.709  -9.431   8.414  0.00  0.00    -0.390 OA
ATOM     43  H11 NP6 d          -4.029  -8.544   8.300  0.00  0.00     0.210 HD
ENDBRANCH   2  42
BRANCH   4  44
ATOM     44  C9  NP6 d          -8.041  -9.605  10.927  0.00  0.00     0.044 C 
ATOM     45  H15 NP6 d          -8.482  -9.220   9.996  0.00  0.00     0.078 H 
ATOM     46  H16 NP6 d          -7.975  -8.792  11.664  0.00  0.00     0.078 H 
BRANCH  44  47
ATOM     47  O4  NP6 d          -8.872 -10.637  11.444  0.00  0.00    -0.398 OA
ATOM     48  H17 NP6 d          -9.378 -11.019  10.736  0.00  0.00     0.209 HD
ENDBRANCH  44  47
ENDBRANCH   4  44
BRANCH   3  49
ATOM     49  O3  NP6 d          -5.794  -8.071   9.752  0.00  0.00    -0.390 OA
ATOM     50  H13 NP6 d          -5.919  -7.586   8.945  0.00  0.00     0.210 HD
ENDBRANCH   3  49
TORSDOF 11
ENDMDL
MODEL 7
REMARK VINA RESULT:      -6.6      3.098      4.847
REMARK  11 active torsions:
REMARK  status: ('A' for Active; 'I' for Inactive)
REMARK    1  A    between atoms: C2_1  and  C1_2 
REMARK    2  A    between atoms: C1_2  and  C3_3 
REMARK    3  A    between atoms: C3_3  and  C4_4 
REMARK       I    between atoms: C4_4  and  N1_6 
REMARK    4  A    between atoms: N1_6  and  C5_7 
REMARK    5  A    between atoms: C6_8  and  O2_9 
REMARK    6  A    between atoms: C7_10  and  O3_11 
REMARK    7  A    between atoms: C8_12  and  C9_13 
REMARK    8  A    between atoms: C9_13  and  O4_14 
REMARK    9  A    between atoms: N2_17  and  O6_18 
REMARK   10  A    between atoms: O6_18  and  C11_19 
REMARK       I    between atoms: C11_19  and  N3_21 
REMARK   11  A    between atoms: N3_21  and  C12_22 
ROOT
ATOM      1  C5  NP6 d          -8.504 -12.189   9.188  0.00  0.00     0.105 C 
ATOM      2  C6  NP6 d          -7.989 -10.991  10.006  0.00  0.00     0.089 C 
ATOM      3  C7  NP6 d          -6.693 -11.338  10.721  0.00  0.00     0.090 C 
ATOM      4  C8  NP6 d          -5.639 -11.653   9.662  0.00  0.00     0.094 C 
ATOM      5  O5  NP6 d          -6.030 -12.777   8.887  0.00  0.00    -0.324 OA
ATOM      6  C10 NP6 d          -7.350 -13.149   8.829  0.00  0.00     0.194 C 
ATOM      7  N2  NP6 d          -7.604 -14.407   8.468  0.00  0.00    -0.100 NA
ATOM      8  H9  NP6 d          -9.202 -12.748   9.828  0.00  0.00     0.090 H 
ATOM      9  H10 NP6 d          -7.800 -10.150   9.322  0.00  0.00     0.090 H 
ATOM     10  H12 NP6 d          -6.848 -12.205  11.380  0.00  0.00     0.091 H 
ATOM     11  H14 NP6 d          -5.578 -10.774   9.004  0.00  0.00     0.091 H 
ENDROOT
BRANCH   1  12
ATOM     12  N1  NP6 d          -9.277 -11.739   7.991  0.00  0.00    -0.346 N 
ATOM     13  C4  NP6 d          -8.757 -11.225   6.868  0.00  0.00     0.218 C 
ATOM     14  O1  NP6 d          -7.550 -11.052   6.669  0.00  0.00    -0.274 OA
ATOM     15  H8  NP6 d         -10.272 -11.829   8.031  0.00  0.00     0.163 HD
BRANCH  13  16
ATOM     16  C3  NP6 d          -9.796 -10.828   5.797  0.00  0.00     0.009 C 
ATOM     17  H6  NP6 d         -10.542 -10.151   6.239  0.00  0.00     0.047 H 
ATOM     18  H7  NP6 d          -9.291 -10.320   4.962  0.00  0.00     0.047 H 
BRANCH  16  19
ATOM     19  C1  NP6 d         -10.485 -12.084   5.287  0.00  0.00    -0.061 C 
ATOM     20  H4  NP6 d          -9.716 -12.812   4.991  0.00  0.00     0.033 H 
ATOM     21  H5  NP6 d         -11.096 -12.505   6.099  0.00  0.00     0.033 H 
BRANCH  19  22
ATOM     22  C2  NP6 d         -11.387 -11.811   4.089  0.00  0.00    -0.076 C 
ATOM     23  H1  NP6 d         -12.236 -11.185   4.404  0.00  0.00     0.027 H 
ATOM     24  H2  NP6 d         -11.762 -12.764   3.688  0.00  0.00     0.027 H 
ATOM     25  H3  NP6 d         -10.814 -11.286   3.311  0.00  0.00     0.027 H 
ENDBRANCH  19  22
ENDBRANCH  16  19
ENDBRANCH  13  16
ENDBRANCH   1  12
BRANCH   7  26
ATOM     26  O6  NP6 d          -6.552 -15.252   8.203  0.00  0.00    -0.153 OA
BRANCH  26  27
ATOM     27  C11 NP6 d          -5.889 -14.972   7.021  0.00  0.00     0.389 C 
ATOM     28  O7  NP6 d          -6.538 -14.701   6.003  0.00  0.00    -0.236 OA
ATOM     29  N3  NP6 d          -4.534 -14.991   7.050  0.00  0.00    -0.301 N 
ATOM     30  H18 NP6 d          -4.131 -15.137   7.953  0.00  0.00     0.171 HD
BRANCH  29  31
ATOM     31  C12 NP6 d          -3.640 -14.844   6.040  0.00  0.00     0.036 A 
ATOM     32  C13 NP6 d          -3.949 -15.421   4.802  0.00  0.00    -0.057 A 
ATOM     33  C14 NP6 d          -3.092 -15.296   3.703  0.00  0.00    -0.081 A 
ATOM     34  H19 NP6 d          -4.873 -15.978   4.693  0.00  0.00     0.086 H 
ATOM     35  C15 NP6 d          -1.901 -14.573   3.829  0.00  0.00    -0.083 A 
ATOM     36  H20 NP6 d          -3.349 -15.759   2.757  0.00  0.00     0.083 H 
ATOM     37  C16 NP6 d          -1.590 -13.973   5.051  0.00  0.00    -0.081 A 
ATOM     38  H21 NP6 d          -1.225 -14.480   2.986  0.00  0.00     0.083 H 
ATOM     39  C17 NP6 d          -2.454 -14.106   6.147  0.00  0.00    -0.057 A 
ATOM     40  H22 NP6 d          -0.676 -13.399   5.152  0.00  0.00     0.083 H 
ATOM     41  H23 NP6 d          -2.200 -13.632   7.089  0.00  0.00     0.086 H 
ENDBRANCH  29  31
ENDBRANCH  26  27
ENDBRANCH   7  26
BRANCH   2  42
ATOM     42  O2  NP6 d          -8.974 -10.606  10.952  0.00  0.00    -0.390 OA
ATOM     43  H11 NP6 d          -8.561 -10.125  11.658  0.00  0.00     0.210 HD
ENDBRANCH   2  42
BRANCH   4  44
ATOM     44  C9  NP6 d          -4.209 -11.950  10.177  0.00  0.00     0.044 C 
ATOM     45  H15 NP6 d          -4.236 -12.061  11.271  0.00  0.00     0.078 H 
ATOM     46  H16 NP6 d          -3.548 -11.113   9.910  0.00  0.00     0.078 H 
BRANCH  44  47
ATOM     47  O4  NP6 d          -3.702 -13.147   9.601  0.00  0.00    -0.398 OA
ATOM     48  H17 NP6 d          -3.914 -13.883  10.164  0.00  0.00     0.209 HD
ENDBRANCH  44  47
ENDBRANCH   4  44
BRANCH   3  49
ATOM     49  O3  NP6 d          -6.226 -10.218  11.486  0.00  0.00    -0.390 OA
ATOM     50  H13 NP6 d          -6.970  -9.707  11.783  0.00  0.00     0.210 HD
ENDBRANCH   3  49
TORSDOF 11
ENDMDL
MODEL 8
REMARK VINA RESULT:      -6.2      2.658      7.240
REMARK  11 active torsions:
REMARK  status: ('A' for Active; 'I' for Inactive)
REMARK    1  A    between atoms: C2_1  and  C1_2 
REMARK    2  A    between atoms: C1_2  and  C3_3 
REMARK    3  A    between atoms: C3_3  and  C4_4 
REMARK       I    between atoms: C4_4  and  N1_6 
REMARK    4  A    between atoms: N1_6  and  C5_7 
REMARK    5  A    between atoms: C6_8  and  O2_9 
REMARK    6  A    between atoms: C7_10  and  O3_11 
REMARK    7  A    between atoms: C8_12  and  C9_13 
REMARK    8  A    between atoms: C9_13  and  O4_14 
REMARK    9  A    between atoms: N2_17  and  O6_18 
REMARK   10  A    between atoms: O6_18  and  C11_19 
REMARK       I    between atoms: C11_19  and  N3_21 
REMARK   11  A    between atoms: N3_21  and  C12_22 
ROOT
ATOM      1  C5  NP6 d          -3.020 -11.631   8.149  0.00  0.00     0.105 C 
ATOM      2  C6  NP6 d          -1.975 -10.763   8.872  0.00  0.00     0.089 C 
ATOM      3  C7  NP6 d          -2.602 -10.016  10.039  0.00  0.00     0.090 C 
ATOM      4  C8  NP6 d          -3.108 -11.048  11.043  0.00  0.00     0.094 C 
ATOM      5  O5  NP6 d          -4.110 -11.867  10.456  0.00  0.00    -0.324 OA
ATOM      6  C10 NP6 d          -4.194 -11.979   9.090  0.00  0.00     0.194 C 
ATOM      7  N2  NP6 d          -5.363 -12.383   8.593  0.00  0.00    -0.100 NA
ATOM      8  H9  NP6 d          -3.434 -11.029   7.326  0.00  0.00     0.090 H 
ATOM      9  H10 NP6 d          -1.178 -11.415   9.259  0.00  0.00     0.090 H 
ATOM     10  H12 NP6 d          -3.430  -9.387   9.681  0.00  0.00     0.091 H 
ATOM     11  H14 NP6 d          -2.248 -11.679  11.311  0.00  0.00     0.091 H 
ENDROOT
BRANCH   1  12
ATOM     12  N1  NP6 d          -2.393 -12.839   7.534  0.00  0.00    -0.346 N 
ATOM     13  C4  NP6 d          -2.901 -13.559   6.524  0.00  0.00     0.218 C 
ATOM     14  O1  NP6 d          -3.972 -13.317   5.959  0.00  0.00    -0.274 OA
ATOM     15  H8  NP6 d          -1.516 -13.137   7.909  0.00  0.00     0.163 HD
BRANCH  13  16
ATOM     16  C3  NP6 d          -2.044 -14.773   6.101  0.00  0.00     0.009 C 
ATOM     17  H6  NP6 d          -0.980 -14.549   6.265  0.00  0.00     0.047 H 
ATOM     18  H7  NP6 d          -2.329 -15.652   6.698  0.00  0.00     0.047 H 
BRANCH  16  19
ATOM     19  C1  NP6 d          -2.284 -15.058   4.627  0.00  0.00    -0.061 C 
ATOM     20  H4  NP6 d          -2.367 -16.146   4.487  0.00  0.00     0.033 H 
ATOM     21  H5  NP6 d          -3.226 -14.576   4.325  0.00  0.00     0.033 H 
BRANCH  19  22
ATOM     22  C2  NP6 d          -1.161 -14.535   3.740  0.00  0.00    -0.076 C 
ATOM     23  H1  NP6 d          -1.341 -14.847   2.700  0.00  0.00     0.027 H 
ATOM     24  H2  NP6 d          -0.200 -14.944   4.085  0.00  0.00     0.027 H 
ATOM     25  H3  NP6 d          -1.133 -13.437   3.793  0.00  0.00     0.027 H 
ENDBRANCH  19  22
ENDBRANCH  16  19
ENDBRANCH  13  16
ENDBRANCH   1  12
BRANCH   7  26
ATOM     26  O6  NP6 d          -6.405 -12.638   9.453  0.00  0.00    -0.153 OA
BRANCH  26  27
ATOM     27  C11 NP6 d          -7.643 -12.691   8.838  0.00  0.00     0.389 C 
ATOM     28  O7  NP6 d          -8.624 -13.102   9.469  0.00  0.00    -0.236 OA
ATOM     29  N3  NP6 d          -7.717 -12.261   7.554  0.00  0.00    -0.301 N 
ATOM     30  H18 NP6 d          -6.872 -11.871   7.189  0.00  0.00     0.171 HD
BRANCH  29  31
ATOM     31  C12 NP6 d          -8.762 -12.280   6.690  0.00  0.00     0.036 A 
ATOM     32  C13 NP6 d          -9.296 -11.052   6.281  0.00  0.00    -0.057 A 
ATOM     33  C14 NP6 d         -10.360 -10.983   5.374  0.00  0.00    -0.081 A 
ATOM     34  H19 NP6 d          -8.876 -10.133   6.676  0.00  0.00     0.086 H 
ATOM     35  C15 NP6 d         -10.904 -12.161   4.851  0.00  0.00    -0.083 A 
ATOM     36  H20 NP6 d         -10.761 -10.021   5.079  0.00  0.00     0.083 H 
ATOM     37  C16 NP6 d         -10.367 -13.392   5.232  0.00  0.00    -0.081 A 
ATOM     38  H21 NP6 d         -11.736 -12.118   4.156  0.00  0.00     0.083 H 
ATOM     39  C17 NP6 d          -9.304 -13.451   6.144  0.00  0.00    -0.057 A 
ATOM     40  H22 NP6 d         -10.775 -14.308   4.821  0.00  0.00     0.083 H 
ATOM     41  H23 NP6 d          -8.896 -14.415   6.428  0.00  0.00     0.086 H 
ENDBRANCH  29  31
ENDBRANCH  26  27
ENDBRANCH   7  26
BRANCH   2  42
ATOM     42  O2  NP6 d          -1.412  -9.839   7.955  0.00  0.00    -0.390 OA
ATOM     43  H11 NP6 d          -1.529 -10.162   7.070  0.00  0.00     0.210 HD
ENDBRANCH   2  42
BRANCH   4  44
ATOM     44  C9  NP6 d          -3.711 -10.495  12.358  0.00  0.00     0.044 C 
ATOM     45  H15 NP6 d          -2.930 -10.477  13.133  0.00  0.00     0.078 H 
ATOM     46  H16 NP6 d          -4.532 -11.150  12.682  0.00  0.00     0.078 H 
BRANCH  44  47
ATOM     47  O4  NP6 d          -4.211  -9.177  12.172  0.00  0.00    -0.398 OA
ATOM     48  H17 NP6 d          -4.743  -9.150  11.385  0.00  0.00     0.209 HD
ENDBRANCH  44  47
ENDBRANCH   4  44
BRANCH   3  49
ATOM     49  O3  NP6 d          -1.621  -9.204  10.700  0.00  0.00    -0.390 OA
ATOM     50  H13 NP6 d          -0.773  -9.342  10.296  0.00  0.00     0.210 HD
ENDBRANCH   3  49
TORSDOF 11
ENDMDL
MODEL 9
REMARK VINA RESULT:      -6.0      2.256      6.972
REMARK  11 active torsions:
REMARK  status: ('A' for Active; 'I' for Inactive)
REMARK    1  A    between atoms: C2_1  and  C1_2 
REMARK    2  A    between atoms: C1_2  and  C3_3 
REMARK    3  A    between atoms: C3_3  and  C4_4 
REMARK       I    between atoms: C4_4  and  N1_6 
REMARK    4  A    between atoms: N1_6  and  C5_7 
REMARK    5  A    between atoms: C6_8  and  O2_9 
REMARK    6  A    between atoms: C7_10  and  O3_11 
REMARK    7  A    between atoms: C8_12  and  C9_13 
REMARK    8  A    between atoms: C9_13  and  O4_14 
REMARK    9  A    between atoms: N2_17  and  O6_18 
REMARK   10  A    between atoms: O6_18  and  C11_19 
REMARK       I    between atoms: C11_19  and  N3_21 
REMARK   11  A    between atoms: N3_21  and  C12_22 
ROOT
ATOM      1  C5  NP6 d          -3.198 -11.529   7.931  0.00  0.00     0.105 C 
ATOM      2  C6  NP6 d          -1.924 -11.340   8.774  0.00  0.00     0.089 C 
ATOM      3  C7  NP6 d          -2.089 -10.194   9.760  0.00  0.00     0.090 C 
ATOM      4  C8  NP6 d          -3.220 -10.556  10.720  0.00  0.00     0.094 C 
ATOM      5  O5  NP6 d          -4.444 -10.711  10.014  0.00  0.00    -0.324 OA
ATOM      6  C10 NP6 d          -4.434 -10.966   8.665  0.00  0.00     0.194 C 
ATOM      7  N2  NP6 d          -5.548 -10.678   7.992  0.00  0.00    -0.100 NA
ATOM      8  H9  NP6 d          -3.072 -10.939   7.011  0.00  0.00     0.090 H 
ATOM      9  H10 NP6 d          -1.732 -12.265   9.338  0.00  0.00     0.090 H 
ATOM     10  H12 NP6 d          -2.324  -9.265   9.220  0.00  0.00     0.091 H 
ATOM     11  H14 NP6 d          -2.952 -11.520  11.177  0.00  0.00     0.091 H 
ENDROOT
BRANCH   1  12
ATOM     12  N1  NP6 d          -3.370 -12.954   7.516  0.00  0.00    -0.346 N 
ATOM     13  C4  NP6 d          -3.593 -13.989   8.336  0.00  0.00     0.218 C 
ATOM     14  O1  NP6 d          -3.688 -13.903   9.564  0.00  0.00    -0.274 OA
ATOM     15  H8  NP6 d          -3.314 -13.152   6.538  0.00  0.00     0.163 HD
BRANCH  13  16
ATOM     16  C3  NP6 d          -3.713 -15.359   7.630  0.00  0.00     0.009 C 
ATOM     17  H6  NP6 d          -2.797 -15.558   7.054  0.00  0.00     0.047 H 
ATOM     18  H7  NP6 d          -3.853 -16.150   8.381  0.00  0.00     0.047 H 
BRANCH  16  19
ATOM     19  C1  NP6 d          -4.909 -15.328   6.693  0.00  0.00    -0.061 C 
ATOM     20  H4  NP6 d          -4.796 -14.479   6.003  0.00  0.00     0.033 H 
ATOM     21  H5  NP6 d          -4.931 -16.266   6.118  0.00  0.00     0.033 H 
BRANCH  19  22
ATOM     22  C2  NP6 d          -6.231 -15.180   7.436  0.00  0.00    -0.076 C 
ATOM     23  H1  NP6 d          -6.110 -14.461   8.260  0.00  0.00     0.027 H 
ATOM     24  H2  NP6 d          -6.534 -16.156   7.843  0.00  0.00     0.027 H 
ATOM     25  H3  NP6 d          -7.003 -14.817   6.743  0.00  0.00     0.027 H 
ENDBRANCH  19  22
ENDBRANCH  16  19
ENDBRANCH  13  16
ENDBRANCH   1  12
BRANCH   7  26
ATOM     26  O6  NP6 d          -6.615 -10.131   8.666  0.00  0.00    -0.153 OA
BRANCH  26  27
ATOM     27  C11 NP6 d          -7.848 -10.579   8.224  0.00  0.00     0.389 C 
ATOM     28  O7  NP6 d          -8.846 -10.430   8.940  0.00  0.00    -0.236 OA
ATOM     29  N3  NP6 d          -7.897 -11.152   6.997  0.00  0.00    -0.301 N 
ATOM     30  H18 NP6 d          -7.038 -11.132   6.485  0.00  0.00     0.171 HD
BRANCH  29  31
ATOM     31  C12 NP6 d          -8.933 -11.749   6.357  0.00  0.00     0.036 A 
ATOM     32  C13 NP6 d          -9.797 -10.939   5.610  0.00  0.00    -0.057 A 
ATOM     33  C14 NP6 d         -10.876 -11.478   4.902  0.00  0.00    -0.081 A 
ATOM     34  H19 NP6 d          -9.625  -9.868   5.580  0.00  0.00     0.086 H 
ATOM     35  C15 NP6 d         -11.103 -12.859   4.926  0.00  0.00    -0.083 A 
ATOM     36  H20 NP6 d         -11.535 -10.829   4.338  0.00  0.00     0.083 H 
ATOM     37  C16 NP6 d         -10.236 -13.683   5.648  0.00  0.00    -0.081 A 
ATOM     38  H21 NP6 d         -11.943 -13.285   4.389  0.00  0.00     0.083 H 
ATOM     39  C17 NP6 d          -9.160 -13.132   6.357  0.00  0.00    -0.057 A 
ATOM     40  H22 NP6 d         -10.397 -14.754   5.660  0.00  0.00     0.083 H 
ATOM     41  H23 NP6 d          -8.494 -13.785   6.911  0.00  0.00     0.086 H 
ENDBRANCH  29  31
ENDBRANCH  26  27
ENDBRANCH   7  26
BRANCH   2  42
ATOM     42  O2  NP6 d          -0.824 -11.084   7.917  0.00  0.00    -0.390 OA
ATOM     43  H11 NP6 d          -0.840 -11.696   7.192  0.00  0.00     0.210 HD
ENDBRANCH   2  42
BRANCH   4  44
ATOM     44  C9  NP6 d          -3.499  -9.555  11.868  0.00  0.00     0.044 C 
ATOM     45  H15 NP6 d          -2.650  -8.861  11.956  0.00  0.00     0.078 H 
ATOM     46  H16 NP6 d          -3.618 -10.110  12.809  0.00  0.00     0.078 H 
BRANCH  44  47
ATOM     47  O4  NP6 d          -4.684  -8.810  11.614  0.00  0.00    -0.398 OA
ATOM     48  H17 NP6 d          -4.716  -8.571  10.695  0.00  0.00     0.209 HD
ENDBRANCH  44  47
ENDBRANCH   4  44
BRANCH   3  49
ATOM     49  O3  NP6 d          -0.894 -10.022  10.535  0.00  0.00    -0.390 OA
ATOM     50  H13 NP6 d          -1.049  -9.378  11.215  0.00  0.00     0.210 HD
ENDBRANCH   3  49
TORSDOF 11
ENDMDL
MODEL 10
REMARK VINA RESULT:      -5.9      2.191      4.591
REMARK  11 active torsions:
REMARK  status: ('A' for Active; 'I' for Inactive)
REMARK    1  A    between atoms: C2_1  and  C1_2 
REMARK    2  A    between atoms: C1_2  and  C3_3 
REMARK    3  A    between atoms: C3_3  and  C4_4 
REMARK       I    between atoms: C4_4  and  N1_6 
REMARK    4  A    between atoms: N1_6  and  C5_7 
REMARK    5  A    between atoms: C6_8  and  O2_9 
REMARK    6  A    between atoms: C7_10  and  O3_11 
REMARK    7  A    between atoms: C8_12  and  C9_13 
REMARK    8  A    between atoms: C9_13  and  O4_14 
REMARK    9  A    between atoms: N2_17  and  O6_18 
REMARK   10  A    between atoms: O6_18  and  C11_19 
REMARK       I    between atoms: C11_19  and  N3_21 
REMARK   11  A    between atoms: N3_21  and  C12_22 
ROOT
ATOM      1  C5  NP6 d          -8.446 -13.813   8.782  0.00  0.00     0.105 C 
ATOM      2  C6  NP6 d          -9.189 -14.434   7.587  0.00  0.00     0.089 C 
ATOM      3  C7  NP6 d         -10.114 -13.419   6.934  0.00  0.00     0.090 C 
ATOM      4  C8  NP6 d          -9.255 -12.278   6.392  0.00  0.00     0.094 C 
ATOM      5  O5  NP6 d          -8.563 -11.629   7.449  0.00  0.00    -0.324 OA
ATOM      6  C10 NP6 d          -8.361 -12.278   8.642  0.00  0.00     0.194 C 
ATOM      7  N2  NP6 d          -8.111 -11.514   9.705  0.00  0.00    -0.100 NA
ATOM      8  H9  NP6 d          -9.040 -14.023   9.683  0.00  0.00     0.090 H 
ATOM      9  H10 NP6 d          -8.450 -14.767   6.843  0.00  0.00     0.090 H 
ATOM     10  H12 NP6 d         -10.837 -13.040   7.672  0.00  0.00     0.091 H 
ATOM     11  H14 NP6 d          -8.519 -12.731   5.713  0.00  0.00     0.091 H 
ENDROOT
BRANCH   1  12
ATOM     12  N1  NP6 d          -7.109 -14.450   8.983  0.00  0.00    -0.346 N 
ATOM     13  C4  NP6 d          -6.041 -14.302   8.188  0.00  0.00     0.218 C 
ATOM     14  O1  NP6 d          -6.018 -13.609   7.166  0.00  0.00    -0.274 OA
ATOM     15  H8  NP6 d          -7.002 -15.040   9.783  0.00  0.00     0.163 HD
BRANCH  13  16
ATOM     16  C3  NP6 d          -4.792 -15.097   8.629  0.00  0.00     0.009 C 
ATOM     17  H6  NP6 d          -4.995 -15.605   9.583  0.00  0.00     0.047 H 
ATOM     18  H7  NP6 d          -4.540 -15.844   7.863  0.00  0.00     0.047 H 
BRANCH  16  19
ATOM     19  C1  NP6 d          -3.629 -14.132   8.801  0.00  0.00    -0.061 C 
ATOM     20  H4  NP6 d          -2.716 -14.607   8.412  0.00  0.00     0.033 H 
ATOM     21  H5  NP6 d          -3.841 -13.219   8.226  0.00  0.00     0.033 H 
BRANCH  19  22
ATOM     22  C2  NP6 d          -3.398 -13.750  10.258  0.00  0.00    -0.076 C 
ATOM     23  H1  NP6 d          -3.981 -12.848  10.497  0.00  0.00     0.027 H 
ATOM     24  H2  NP6 d          -2.328 -13.549  10.419  0.00  0.00     0.027 H 
ATOM     25  H3  NP6 d          -3.717 -14.577  10.910  0.00  0.00     0.027 H 
ENDBRANCH  19  22
ENDBRANCH  16  19
ENDBRANCH  13  16
ENDBRANCH   1  12
BRANCH   7  26
ATOM     26  O6  NP6 d          -8.091 -10.147   9.558  0.00  0.00    -0.153 OA
BRANCH  26  27
ATOM     27  C11 NP6 d          -6.851  -9.574   9.783  0.00  0.00     0.389 C 
ATOM     28  O7  NP6 d          -6.717  -8.348   9.692  0.00  0.00    -0.236 OA
ATOM     29  N3  NP6 d          -5.835 -10.406  10.116  0.00  0.00    -0.301 N 
ATOM     30  H18 NP6 d          -6.095 -11.364  10.243  0.00  0.00     0.171 HD
BRANCH  29  31
ATOM     31  C12 NP6 d          -4.518 -10.139  10.304  0.00  0.00     0.036 A 
ATOM     32  C13 NP6 d          -4.091  -9.834  11.602  0.00  0.00    -0.057 A 
ATOM     33  C14 NP6 d          -2.746  -9.568  11.884  0.00  0.00    -0.081 A 
ATOM     34  H19 NP6 d          -4.818  -9.802  12.405  0.00  0.00     0.086 H 
ATOM     35  C15 NP6 d          -1.797  -9.615  10.857  0.00  0.00    -0.083 A 
ATOM     36  H20 NP6 d          -2.441  -9.326  12.896  0.00  0.00     0.083 H 
ATOM     37  C16 NP6 d          -2.206  -9.941   9.562  0.00  0.00    -0.081 A 
ATOM     38  H21 NP6 d          -0.755  -9.400  11.064  0.00  0.00     0.083 H 
ATOM     39  C17 NP6 d          -3.555 -10.202   9.288  0.00  0.00    -0.057 A 
ATOM     40  H22 NP6 d          -1.474  -9.992   8.764  0.00  0.00     0.083 H 
ATOM     41  H23 NP6 d          -3.857 -10.456   8.278  0.00  0.00     0.086 H 
ENDBRANCH  29  31
ENDBRANCH  26  27
ENDBRANCH   7  26
BRANCH   2  42
ATOM     42  O2  NP6 d          -9.939 -15.555   8.027  0.00  0.00    -0.390 OA
ATOM     43  H11 NP6 d         -10.830 -15.284   8.216  0.00  0.00     0.210 HD
ENDBRANCH   2  42
BRANCH   4  44
ATOM     44  C9  NP6 d          -9.996 -11.169   5.606  0.00  0.00     0.044 C 
ATOM     45  H15 NP6 d         -11.040 -11.477   5.443  0.00  0.00     0.078 H 
ATOM     46  H16 NP6 d          -9.502 -11.024   4.635  0.00  0.00     0.078 H 
BRANCH  44  47
ATOM     47  O4  NP6 d          -9.980  -9.942   6.325  0.00  0.00    -0.398 OA
ATOM     48  H17 NP6 d         -10.795  -9.476   6.173  0.00  0.00     0.209 HD
ENDBRANCH  44  47
ENDBRANCH   4  44
BRANCH   3  49
ATOM     49  O3  NP6 d         -10.808 -14.010   5.827  0.00  0.00    -0.390 OA
ATOM     50  H13 NP6 d         -11.230 -13.328   5.318  0.00  0.00     0.210 HD
ENDBRANCH   3  49
TORSDOF 11
ENDMDL
