MODEL 1
REMARK VINA RESULT:      -5.7      0.000      0.000
REMARK  4 active torsions:
REMARK  status: ('A' for Active; 'I' for Inactive)
REMARK    1  A    between atoms: C1_7  and  P1_1 
REMARK    2  A    between atoms: N1_10  and  C1_7 
REMARK    3  A    between atoms: C2_8  and  C3_9 
REMARK    4  A    between atoms: C2_8  and  N1_10 
ROOT
ATOM      1  N1  GPJ d          59.910   7.953  29.431  0.00  0.00    -0.053 N 
ATOM      2  H5  GPJ d          60.901   8.140  29.443  0.00  0.00     0.278 HD
ATOM      3  H6  GPJ d          59.753   6.966  29.562  0.00  0.00     0.278 HD
ENDROOT
BRANCH   1   4
ATOM      4  C1  GPJ d          59.434   8.280  28.091  0.00  0.00     0.183 C 
ATOM      5  H1  GPJ d          59.154   7.351  27.574  0.00  0.00     0.097 H 
ATOM      6  H2  GPJ d          58.554   8.934  28.174  0.00  0.00     0.097 H 
BRANCH   4   7
ATOM      7  P1  GPJ d          60.651   9.090  27.173  0.00  0.00     0.285 P 
ATOM      8  O1  GPJ d          61.548   9.820  28.115  0.00  0.00    -0.638 OA
ATOM      9  O2  GPJ d          59.863   9.981  26.280  0.00  0.00    -0.638 OA
ATOM     10  O3  GPJ d          61.408   8.061  26.396  0.00  0.00    -0.638 OA
ENDBRANCH   4   7
ENDBRANCH   1   4
BRANCH   1  11
ATOM     11  C2  GPJ d          59.335   8.634  30.604  0.00  0.00     0.161 C 
ATOM     12  H3  GPJ d          58.843   9.561  30.275  0.00  0.00     0.092 H 
ATOM     13  H4  GPJ d          58.593   7.973  31.076  0.00  0.00     0.092 H 
BRANCH  11  14
ATOM     14  C3  GPJ d          60.410   8.974  31.614  0.00  0.00     0.199 C 
ATOM     15  O4  GPJ d          61.148  10.000  31.416  0.00  0.00    -0.647 OA
ATOM     16  O5  GPJ d          60.505   8.239  32.584  0.00  0.00    -0.647 OA
ENDBRANCH  11  14
ENDBRANCH   1  11
TORSDOF 4
ENDMDL
MODEL 2
REMARK VINA RESULT:      -5.4      0.809      1.852
REMARK  4 active torsions:
REMARK  status: ('A' for Active; 'I' for Inactive)
REMARK    1  A    between atoms: C1_7  and  P1_1 
REMARK    2  A    between atoms: N1_10  and  C1_7 
REMARK    3  A    between atoms: C2_8  and  C3_9 
REMARK    4  A    between atoms: C2_8  and  N1_10 
ROOT
ATOM      1  N1  GPJ d          59.896   8.099  29.471  0.00  0.00    -0.053 N 
ATOM      2  H5  GPJ d          60.901   8.177  29.509  0.00  0.00     0.278 HD
ATOM      3  H6  GPJ d          59.643   7.168  29.178  0.00  0.00     0.278 HD
ENDROOT
BRANCH   1   4
ATOM      4  C1  GPJ d          59.442   9.008  28.424  0.00  0.00     0.183 C 
ATOM      5  H1  GPJ d          58.390   8.786  28.189  0.00  0.00     0.097 H 
ATOM      6  H2  GPJ d          59.526  10.043  28.787  0.00  0.00     0.097 H 
BRANCH   4   7
ATOM      7  P1  GPJ d          60.387   8.837  26.989  0.00  0.00     0.285 P 
ATOM      8  O1  GPJ d          59.465   8.591  25.842  0.00  0.00    -0.638 OA
ATOM      9  O2  GPJ d          61.275   7.686  27.305  0.00  0.00    -0.638 OA
ATOM     10  O3  GPJ d          61.166  10.097  26.794  0.00  0.00    -0.638 OA
ENDBRANCH   4   7
ENDBRANCH   1   4
BRANCH   1  11
ATOM     11  C2  GPJ d          59.404   8.259  30.850  0.00  0.00     0.161 C 
ATOM     12  H3  GPJ d          58.518   8.909  30.842  0.00  0.00     0.092 H 
ATOM     13  H4  GPJ d          59.131   7.272  31.251  0.00  0.00     0.092 H 
BRANCH  11  14
ATOM     14  C3  GPJ d          60.465   8.878  31.735  0.00  0.00     0.199 C 
ATOM     15  O4  GPJ d          60.875   8.233  32.760  0.00  0.00    -0.647 OA
ATOM     16  O5  GPJ d          60.882   9.977  31.405  0.00  0.00    -0.647 OA
ENDBRANCH  11  14
ENDBRANCH   1  11
TORSDOF 4
ENDMDL
MODEL 3
REMARK VINA RESULT:      -3.6      1.667      4.277
REMARK  4 active torsions:
REMARK  status: ('A' for Active; 'I' for Inactive)
REMARK    1  A    between atoms: C1_7  and  P1_1 
REMARK    2  A    between atoms: N1_10  and  C1_7 
REMARK    3  A    between atoms: C2_8  and  C3_9 
REMARK    4  A    between atoms: C2_8  and  N1_10 
ROOT
ATOM      1  N1  GPJ d          59.840   7.652  28.905  0.00  0.00    -0.053 N 
ATOM      2  H5  GPJ d          59.717   6.684  28.652  0.00  0.00     0.278 HD
ATOM      3  H6  GPJ d          60.824   7.871  28.932  0.00  0.00     0.278 HD
ENDROOT
BRANCH   1   4
ATOM      4  C1  GPJ d          59.339   7.799  30.267  0.00  0.00     0.183 C 
ATOM      5  H1  GPJ d          58.290   8.129  30.229  0.00  0.00     0.097 H 
ATOM      6  H2  GPJ d          59.399   6.826  30.777  0.00  0.00     0.097 H 
BRANCH   4   7
ATOM      7  P1  GPJ d          60.261   8.957  31.155  0.00  0.00     0.285 P 
ATOM      8  O1  GPJ d          60.682   8.338  32.446  0.00  0.00    -0.638 OA
ATOM      9  O2  GPJ d          59.314  10.093  31.314  0.00  0.00    -0.638 OA
ATOM     10  O3  GPJ d          61.446   9.339  30.328  0.00  0.00    -0.638 OA
ENDBRANCH   4   7
ENDBRANCH   1   4
BRANCH   1  11
ATOM     11  C2  GPJ d          59.256   8.454  27.816  0.00  0.00     0.161 C 
ATOM     12  H3  GPJ d          58.572   7.822  27.231  0.00  0.00     0.092 H 
ATOM     13  H4  GPJ d          58.698   9.296  28.248  0.00  0.00     0.092 H 
BRANCH  11  14
ATOM     14  C3  GPJ d          60.336   8.992  26.901  0.00  0.00     0.199 C 
ATOM     15  O4  GPJ d          61.421   8.331  26.762  0.00  0.00    -0.647 OA
ATOM     16  O5  GPJ d          60.098  10.046  26.331  0.00  0.00    -0.647 OA
ENDBRANCH  11  14
ENDBRANCH   1  11
TORSDOF 4
ENDMDL
