MODEL 1
REMARK VINA RESULT:      -7.0      0.000      0.000
REMARK  29 active torsions:
REMARK  status: ('A' for Active; 'I' for Inactive)
REMARK    1  A    between atoms: CR1_1  and  OR1_7 
REMARK    2  A    between atoms: CR2_2  and  OR2_8 
REMARK    3  A    between atoms: CR3_3  and  OR3_9 
REMARK    4  A    between atoms: OR4_10  and  CR4_4 
REMARK    5  A    between atoms: CR5_5  and  CR6_6 
REMARK    6  A    between atoms: CR6_6  and  OR6_12 
REMARK    7  A    between atoms: CV1_13  and  OR4_10 
REMARK    8  A    between atoms: CV2_14  and  OV2_19 
REMARK    9  A    between atoms: CV3_15  and  OV3_20 
REMARK   10  A    between atoms: NV4_21  and  CV4_16 
REMARK   11  A    between atoms: CV5_17  and  CV6_18 
REMARK   12  A    between atoms: CY1_45  and  NV4_21 
REMARK   13  A    between atoms: OY4_51  and  CQ1_23 
REMARK   14  A    between atoms: CQ2_24  and  OQ2_29 
REMARK   15  A    between atoms: CQ3_25  and  OQ3_30 
REMARK   16  A    between atoms: CQ4_26  and  OQ4_31 
REMARK   17  A    between atoms: CQ5_27  and  CQ6_28 
REMARK   18  A    between atoms: CQ6_28  and  OQ6_33 
REMARK   19  A    between atoms: OQ4_31  and  CW1_34 
REMARK   20  A    between atoms: CW2_35  and  OW2_40 
REMARK   21  A    between atoms: CW3_36  and  OW3_41 
REMARK   22  A    between atoms: CW4_37  and  OW4_42 
REMARK   23  A    between atoms: CW5_38  and  CW6_39 
REMARK   24  A    between atoms: CW6_39  and  OW6_44 
REMARK   25  A    between atoms: CY2_46  and  OY2_47 
REMARK   26  A    between atoms: CY3_48  and  OY3_49 
REMARK   27  A    between atoms: CY4_50  and  OY4_51 
REMARK   28  A    between atoms: CY5_52  and  CY7_54 
REMARK   29  A    between atoms: CY7_54  and  OY7_55 
ROOT
ATOM      1  CY1 MOL d           8.717  16.293  44.024  0.00  0.00     0.130 C 
ATOM      2  CY2 MOL d           9.003  17.676  43.318  0.00  0.00     0.090 C 
ATOM      3  CY3 MOL d          10.013  17.462  42.105  0.00  0.00     0.087 C 
ATOM      4  CY4 MOL d          11.385  16.777  42.593  0.00  0.00     0.074 C 
ATOM      5  CY5 MOL d          11.156  15.664  43.616  0.00  0.00    -0.004 C 
ATOM      6  CY6 MOL d          10.146  15.839  44.496  0.00  0.00    -0.028 C 
ATOM      7  H45 MOL d           8.073  16.427  44.906  0.00  0.00     0.088 H 
ATOM      8  H46 MOL d           9.466  18.354  44.051  0.00  0.00     0.090 H 
ATOM      9  H48 MOL d           9.533  16.786  41.381  0.00  0.00     0.091 H 
ATOM     10  H50 MOL d          12.042  17.550  43.019  0.00  0.00     0.088 H 
ATOM     11  H51 MOL d          10.876  14.784  43.018  0.00  0.00     0.047 H 
ATOM     12  H52 MOL d          10.012  14.877  45.011  0.00  0.00     0.036 H 
ATOM     13  H53 MOL d          10.491  16.596  45.217  0.00  0.00     0.036 H 
ENDROOT
BRANCH   1  14
ATOM     14  NV4 MOL d           7.982  15.378  43.032  0.00  0.00    -0.059 N 
ATOM     15  H22 MOL d           8.653  15.121  42.326  0.00  0.00     0.278 HD
ATOM     16  H23 MOL d           7.705  14.558  43.547  0.00  0.00     0.278 HD
BRANCH  14  17
ATOM     17  CV4 MOL d           6.777  15.854  42.316  0.00  0.00     0.153 C 
ATOM     18  CV3 MOL d           7.019  15.794  40.790  0.00  0.00     0.094 C 
ATOM     19  CV2 MOL d           5.768  16.294  40.073  0.00  0.00     0.110 C 
ATOM     20  H14 MOL d           7.236  14.758  40.491  0.00  0.00     0.090 H 
ATOM     21  CV1 MOL d           4.533  15.477  40.436  0.00  0.00     0.159 C 
ATOM     22  H13 MOL d           5.598  17.335  40.387  0.00  0.00     0.094 H 
ATOM     23  OV5 MOL d           4.382  15.438  41.880  0.00  0.00    -0.351 OA
ATOM     24  H12 MOL d           3.659  15.992  40.008  0.00  0.00     0.133 H 
ATOM     25  CV5 MOL d           5.549  14.925  42.624  0.00  0.00     0.068 C 
ATOM     26  H16 MOL d           5.773  13.899  42.296  0.00  0.00     0.086 H 
ATOM     27  H15 MOL d           6.554  16.886  42.623  0.00  0.00     0.092 H 
BRANCH  18  28
ATOM     28  OV3 MOL d           8.094  16.628  40.428  0.00  0.00    -0.391 OA
ATOM     29  H21 MOL d           8.138  16.691  39.481  0.00  0.00     0.210 HD
ENDBRANCH  18  28
BRANCH  19  30
ATOM     30  OV2 MOL d           5.922  16.274  38.672  0.00  0.00    -0.388 OA
ATOM     31  H20 MOL d           5.245  15.730  38.288  0.00  0.00     0.210 HD
ENDBRANCH  19  30
BRANCH  21  32
ATOM     32  OR4 MOL d           4.539  14.180  39.937  0.00  0.00    -0.348 OA
BRANCH  32  33
ATOM     33  CR4 MOL d           4.287  14.079  38.536  0.00  0.00     0.096 C 
ATOM     34  CR3 MOL d           5.241  13.014  37.937  0.00  0.00     0.092 C 
ATOM     35  CR2 MOL d           4.964  12.898  36.433  0.00  0.00     0.110 C 
ATOM     36  H3  MOL d           5.075  12.045  38.430  0.00  0.00     0.091 H 
ATOM     37  CR1 MOL d           3.488  12.474  36.203  0.00  0.00     0.156 C 
ATOM     38  H2  MOL d           5.145  13.873  35.958  0.00  0.00     0.094 H 
ATOM     39  OR5 MOL d           2.578  13.459  36.839  0.00  0.00    -0.349 OA
ATOM     40  H1  MOL d           3.298  12.466  35.119  0.00  0.00     0.133 H 
ATOM     41  CR5 MOL d           2.778  13.612  38.285  0.00  0.00     0.089 C 
ATOM     42  H5  MOL d           2.616  12.644  38.782  0.00  0.00     0.090 H 
ATOM     43  H4  MOL d           4.461  15.053  38.056  0.00  0.00     0.091 H 
BRANCH  34  44
ATOM     44  OR3 MOL d           6.583  13.413  38.104  0.00  0.00    -0.390 OA
ATOM     45  H10 MOL d           7.000  13.483  37.254  0.00  0.00     0.210 HD
ENDBRANCH  34  44
BRANCH  35  46
ATOM     46  OR2 MOL d           5.807  11.931  35.847  0.00  0.00    -0.388 OA
ATOM     47  H9  MOL d           6.714  12.191  35.961  0.00  0.00     0.210 HD
ENDBRANCH  35  46
BRANCH  37  48
ATOM     48  OR1 MOL d           3.221  11.176  36.709  0.00  0.00    -0.369 OA
ATOM     49  H8  MOL d           2.333  11.146  37.046  0.00  0.00     0.212 HD
ENDBRANCH  37  48
BRANCH  41  50
ATOM     50  CR6 MOL d           1.832  14.560  38.799  0.00  0.00     0.043 C 
ATOM     51  H6  MOL d           2.337  15.194  39.542  0.00  0.00     0.078 H 
ATOM     52  H7  MOL d           1.011  14.010  39.282  0.00  0.00     0.078 H 
BRANCH  50  53
ATOM     53  OR6 MOL d           1.286  15.393  37.783  0.00  0.00    -0.398 OA
ATOM     54  H11 MOL d           1.355  14.954  36.944  0.00  0.00     0.209 HD
ENDBRANCH  50  53
ENDBRANCH  41  50
ENDBRANCH  32  33
ENDBRANCH  21  32
BRANCH  25  55
ATOM     55  CV6 MOL d           5.251  14.920  44.115  0.00  0.00    -0.050 C 
ATOM     56  H17 MOL d           4.237  15.311  44.289  0.00  0.00     0.031 H 
ATOM     57  H18 MOL d           5.983  15.553  44.638  0.00  0.00     0.031 H 
ATOM     58  H19 MOL d           5.317  13.891  44.499  0.00  0.00     0.031 H 
ENDBRANCH  25  55
ENDBRANCH  14  17
ENDBRANCH   1  14
BRANCH   2  59
ATOM     59  OY2 MOL d           7.828  18.260  42.858  0.00  0.00    -0.391 OA
ATOM     60  H47 MOL d           7.752  19.137  43.214  0.00  0.00     0.210 HD
ENDBRANCH   2  59
BRANCH   3  61
ATOM     61  OY3 MOL d          10.282  18.676  41.456  0.00  0.00    -0.390 OA
ATOM     62  H49 MOL d          10.890  18.524  40.743  0.00  0.00     0.210 HD
ENDBRANCH   3  61
BRANCH   5  63
ATOM     63  CY7 MOL d          12.444  15.275  44.391  0.00  0.00     0.022 C 
ATOM     64  H54 MOL d          12.234  14.404  45.029  0.00  0.00     0.074 H 
ATOM     65  H55 MOL d          12.759  16.122  45.019  0.00  0.00     0.074 H 
BRANCH  63  66
ATOM     66  OY7 MOL d          13.506  14.945  43.467  0.00  0.00    -0.400 OA
ATOM     67  H56 MOL d          14.342  15.202  43.841  0.00  0.00     0.209 HD
ENDBRANCH  63  66
ENDBRANCH   5  63
BRANCH   4  68
ATOM     68  OY4 MOL d          12.015  16.135  41.490  0.00  0.00    -0.350 OA
BRANCH  68  69
ATOM     69  CQ1 MOL d          12.883  16.949  40.735  0.00  0.00     0.159 C 
ATOM     70  CQ2 MOL d          12.394  17.013  39.271  0.00  0.00     0.110 C 
ATOM     71  CQ3 MOL d          12.679  15.695  38.489  0.00  0.00     0.092 C 
ATOM     72  H25 MOL d          12.911  17.842  38.765  0.00  0.00     0.094 H 
ATOM     73  CQ4 MOL d          14.181  15.403  38.528  0.00  0.00     0.096 C 
ATOM     74  H26 MOL d          12.133  14.858  38.949  0.00  0.00     0.091 H 
ATOM     75  CQ5 MOL d          14.529  15.203  40.065  0.00  0.00     0.089 C 
ATOM     76  H27 MOL d          14.754  16.239  38.101  0.00  0.00     0.091 H 
ATOM     77  OQ5 MOL d          14.230  16.415  40.800  0.00  0.00    -0.348 OA
ATOM     78  H28 MOL d          13.917  14.376  40.452  0.00  0.00     0.090 H 
ATOM     79  H24 MOL d          12.880  17.965  41.156  0.00  0.00     0.133 H 
BRANCH  70  80
ATOM     80  OQ2 MOL d          10.998  17.252  39.255  0.00  0.00    -0.388 OA
ATOM     81  H31 MOL d          10.569  16.575  38.744  0.00  0.00     0.210 HD
ENDBRANCH  70  80
BRANCH  71  82
ATOM     82  OQ3 MOL d          12.220  15.889  37.149  0.00  0.00    -0.390 OA
ATOM     83  H32 MOL d          12.311  16.805  36.914  0.00  0.00     0.210 HD
ENDBRANCH  71  82
BRANCH  73  84
ATOM     84  OQ4 MOL d          14.458  14.226  37.824  0.00  0.00    -0.348 OA
BRANCH  84  85
ATOM     85  CW1 MOL d          14.939  14.519  36.504  0.00  0.00     0.159 C 
ATOM     86  CW2 MOL d          14.268  13.651  35.412  0.00  0.00     0.110 C 
ATOM     87  CW3 MOL d          14.645  12.165  35.650  0.00  0.00     0.092 C 
ATOM     88  H35 MOL d          14.622  13.960  34.418  0.00  0.00     0.094 H 
ATOM     89  CW4 MOL d          16.176  12.053  35.538  0.00  0.00     0.090 C 
ATOM     90  H36 MOL d          14.309  11.837  36.644  0.00  0.00     0.091 H 
ATOM     91  CW5 MOL d          16.830  12.955  36.655  0.00  0.00     0.089 C 
ATOM     92  H37 MOL d          16.503  12.390  34.544  0.00  0.00     0.091 H 
ATOM     93  OW5 MOL d          16.398  14.328  36.449  0.00  0.00    -0.348 OA
ATOM     94  H38 MOL d          16.504  12.606  37.646  0.00  0.00     0.090 H 
ATOM     95  H34 MOL d          14.713  15.574  36.287  0.00  0.00     0.133 H 
BRANCH  86  96
ATOM     96  OW2 MOL d          12.877  13.847  35.496  0.00  0.00    -0.388 OA
ATOM     97  H41 MOL d          12.475  13.090  35.905  0.00  0.00     0.210 HD
ENDBRANCH  86  96
BRANCH  87  98
ATOM     98  OW3 MOL d          14.045  11.374  34.651  0.00  0.00    -0.390 OA
ATOM     99  H42 MOL d          14.324  11.680  33.796  0.00  0.00     0.210 HD
ENDBRANCH  87  98
BRANCH  89 100
ATOM    100  OW4 MOL d          16.565  10.704  35.739  0.00  0.00    -0.390 OA
ATOM    101  H43 MOL d          17.162  10.442  35.048  0.00  0.00     0.210 HD
ENDBRANCH  89 100
BRANCH  91 102
ATOM    102  CW6 MOL d          18.369  12.898  36.573  0.00  0.00     0.043 C 
ATOM    103  H39 MOL d          18.778  13.869  36.888  0.00  0.00     0.078 H 
ATOM    104  H40 MOL d          18.663  12.696  35.532  0.00  0.00     0.078 H 
BRANCH 102 105
ATOM    105  OW6 MOL d          18.897  11.894  37.397  0.00  0.00    -0.398 OA
ATOM    106  H44 MOL d          19.585  12.260  37.939  0.00  0.00     0.209 HD
ENDBRANCH 102 105
ENDBRANCH  91 102
ENDBRANCH  84  85
ENDBRANCH  73  84
BRANCH  75 107
ATOM    107  CQ6 MOL d          16.000  14.888  40.320  0.00  0.00     0.043 C 
ATOM    108  H29 MOL d          16.416  14.375  39.441  0.00  0.00     0.078 H 
ATOM    109  H30 MOL d          16.080  14.233  41.200  0.00  0.00     0.078 H 
BRANCH 107 110
ATOM    110  OQ6 MOL d          16.731  16.070  40.556  0.00  0.00    -0.398 OA
ATOM    111  H33 MOL d          16.294  16.801  40.134  0.00  0.00     0.209 HD
ENDBRANCH 107 110
ENDBRANCH  75 107
ENDBRANCH  68  69
ENDBRANCH   4  68
TORSDOF 29
ENDMDL
MODEL 2
REMARK VINA RESULT:      -6.9      2.863     10.339
REMARK  29 active torsions:
REMARK  status: ('A' for Active; 'I' for Inactive)
REMARK    1  A    between atoms: CR1_1  and  OR1_7 
REMARK    2  A    between atoms: CR2_2  and  OR2_8 
REMARK    3  A    between atoms: CR3_3  and  OR3_9 
REMARK    4  A    between atoms: OR4_10  and  CR4_4 
REMARK    5  A    between atoms: CR5_5  and  CR6_6 
REMARK    6  A    between atoms: CR6_6  and  OR6_12 
REMARK    7  A    between atoms: CV1_13  and  OR4_10 
REMARK    8  A    between atoms: CV2_14  and  OV2_19 
REMARK    9  A    between atoms: CV3_15  and  OV3_20 
REMARK   10  A    between atoms: NV4_21  and  CV4_16 
REMARK   11  A    between atoms: CV5_17  and  CV6_18 
REMARK   12  A    between atoms: CY1_45  and  NV4_21 
REMARK   13  A    between atoms: OY4_51  and  CQ1_23 
REMARK   14  A    between atoms: CQ2_24  and  OQ2_29 
REMARK   15  A    between atoms: CQ3_25  and  OQ3_30 
REMARK   16  A    between atoms: CQ4_26  and  OQ4_31 
REMARK   17  A    between atoms: CQ5_27  and  CQ6_28 
REMARK   18  A    between atoms: CQ6_28  and  OQ6_33 
REMARK   19  A    between atoms: OQ4_31  and  CW1_34 
REMARK   20  A    between atoms: CW2_35  and  OW2_40 
REMARK   21  A    between atoms: CW3_36  and  OW3_41 
REMARK   22  A    between atoms: CW4_37  and  OW4_42 
REMARK   23  A    between atoms: CW5_38  and  CW6_39 
REMARK   24  A    between atoms: CW6_39  and  OW6_44 
REMARK   25  A    between atoms: CY2_46  and  OY2_47 
REMARK   26  A    between atoms: CY3_48  and  OY3_49 
REMARK   27  A    between atoms: CY4_50  and  OY4_51 
REMARK   28  A    between atoms: CY5_52  and  CY7_54 
REMARK   29  A    between atoms: CY7_54  and  OY7_55 
ROOT
ATOM      1  CY1 MOL d           7.877  16.220  35.173  0.00  0.00     0.130 C 
ATOM      2  CY2 MOL d           7.431  17.734  35.215  0.00  0.00     0.090 C 
ATOM      3  CY3 MOL d           6.247  17.918  36.265  0.00  0.00     0.087 C 
ATOM      4  CY4 MOL d           4.997  16.965  35.918  0.00  0.00     0.074 C 
ATOM      5  CY5 MOL d           5.428  15.567  35.472  0.00  0.00    -0.004 C 
ATOM      6  CY6 MOL d           6.559  15.480  34.740  0.00  0.00    -0.028 C 
ATOM      7  H45 MOL d           8.649  16.058  34.407  0.00  0.00     0.088 H 
ATOM      8  H46 MOL d           7.068  18.020  34.216  0.00  0.00     0.090 H 
ATOM      9  H48 MOL d           6.629  17.632  37.257  0.00  0.00     0.091 H 
ATOM     10  H50 MOL d           4.390  17.440  35.133  0.00  0.00     0.088 H 
ATOM     11  H51 MOL d           5.639  15.026  36.406  0.00  0.00     0.047 H 
ATOM     12  H52 MOL d           6.809  14.410  34.680  0.00  0.00     0.036 H 
ATOM     13  H53 MOL d           6.308  15.854  33.736  0.00  0.00     0.036 H 
ENDROOT
BRANCH   1  14
ATOM     14  NV4 MOL d           8.475  15.846  36.539  0.00  0.00    -0.059 N 
ATOM     15  H22 MOL d           7.707  15.818  37.191  0.00  0.00     0.278 HD
ATOM     16  H23 MOL d           8.865  14.922  36.439  0.00  0.00     0.278 HD
BRANCH  14  17
ATOM     17  CV4 MOL d           9.525  16.684  37.158  0.00  0.00     0.153 C 
ATOM     18  CV3 MOL d           9.061  17.158  38.553  0.00  0.00     0.094 C 
ATOM     19  CV2 MOL d          10.156  18.025  39.169  0.00  0.00     0.110 C 
ATOM     20  H14 MOL d           8.866  16.285  39.194  0.00  0.00     0.090 H 
ATOM     21  CV1 MOL d          11.480  17.279  39.289  0.00  0.00     0.159 C 
ATOM     22  H13 MOL d          10.307  18.891  38.508  0.00  0.00     0.094 H 
ATOM     23  OV5 MOL d          11.849  16.731  37.995  0.00  0.00    -0.351 OA
ATOM     24  H12 MOL d          12.245  18.009  39.590  0.00  0.00     0.133 H 
ATOM     25  CV5 MOL d          10.842  15.854  37.369  0.00  0.00     0.068 C 
ATOM     26  H16 MOL d          10.635  15.000  38.031  0.00  0.00     0.086 H 
ATOM     27  H15 MOL d           9.729  17.552  36.512  0.00  0.00     0.092 H 
BRANCH  18  28
ATOM     28  OV3 MOL d           7.894  17.939  38.446  0.00  0.00    -0.391 OA
ATOM     29  H21 MOL d           7.818  18.273  37.560  0.00  0.00     0.210 HD
ENDBRANCH  18  28
BRANCH  19  30
ATOM     30  OV2 MOL d           9.793  18.500  40.446  0.00  0.00    -0.388 OA
ATOM     31  H20 MOL d           9.553  17.766  40.999  0.00  0.00     0.210 HD
ENDBRANCH  19  30
BRANCH  21  32
ATOM     32  OR4 MOL d          11.479  16.262  40.236  0.00  0.00    -0.348 OA
BRANCH  32  33
ATOM     33  CR4 MOL d          12.374  16.463  41.329  0.00  0.00     0.096 C 
ATOM     34  CR3 MOL d          11.568  16.387  42.651  0.00  0.00     0.092 C 
ATOM     35  CR2 MOL d          12.532  16.594  43.825  0.00  0.00     0.110 C 
ATOM     36  H3  MOL d          11.076  15.406  42.731  0.00  0.00     0.091 H 
ATOM     37  CR1 MOL d          13.624  15.490  43.809  0.00  0.00     0.156 C 
ATOM     38  H2  MOL d          13.006  17.581  43.732  0.00  0.00     0.094 H 
ATOM     39  OR5 MOL d          14.347  15.520  42.513  0.00  0.00    -0.349 OA
ATOM     40  H1  MOL d          14.340  15.702  44.617  0.00  0.00     0.133 H 
ATOM     41  CR5 MOL d          13.487  15.314  41.342  0.00  0.00     0.089 C 
ATOM     42  H5  MOL d          12.989  14.335  41.419  0.00  0.00     0.090 H 
ATOM     43  H4  MOL d          12.856  17.447  41.238  0.00  0.00     0.091 H 
BRANCH  34  44
ATOM     44  OR3 MOL d          10.603  17.413  42.692  0.00  0.00    -0.390 OA
ATOM     45  H10 MOL d          10.127  17.367  43.513  0.00  0.00     0.210 HD
ENDBRANCH  34  44
BRANCH  35  46
ATOM     46  OR2 MOL d          11.840  16.524  45.052  0.00  0.00    -0.388 OA
ATOM     47  H9  MOL d          11.322  15.728  45.078  0.00  0.00     0.210 HD
ENDBRANCH  35  46
BRANCH  37  48
ATOM     48  OR1 MOL d          13.081  14.198  44.026  0.00  0.00    -0.369 OA
ATOM     49  H8  MOL d          13.776  13.601  44.275  0.00  0.00     0.212 HD
ENDBRANCH  37  48
BRANCH  41  50
ATOM     50  CR6 MOL d          14.288  15.331  40.152  0.00  0.00     0.043 C 
ATOM     51  H6  MOL d          15.281  14.920  40.389  0.00  0.00     0.078 H 
ATOM     52  H7  MOL d          14.393  16.372  39.814  0.00  0.00     0.078 H 
BRANCH  50  53
ATOM     53  OR6 MOL d          13.717  14.564  39.098  0.00  0.00    -0.398 OA
ATOM     54  H11 MOL d          12.814  14.361  39.309  0.00  0.00     0.209 HD
ENDBRANCH  50  53
ENDBRANCH  41  50
ENDBRANCH  32  33
ENDBRANCH  21  32
BRANCH  25  55
ATOM     55  CV6 MOL d          11.361  15.338  36.035  0.00  0.00    -0.050 C 
ATOM     56  H17 MOL d          11.313  14.239  36.023  0.00  0.00     0.031 H 
ATOM     57  H18 MOL d          12.404  15.661  35.898  0.00  0.00     0.031 H 
ATOM     58  H19 MOL d          10.743  15.741  35.220  0.00  0.00     0.031 H 
ENDBRANCH  25  55
ENDBRANCH  14  17
ENDBRANCH   1  14
BRANCH   2  59
ATOM     59  OY2 MOL d           8.494  18.563  35.552  0.00  0.00    -0.391 OA
ATOM     60  H47 MOL d           9.283  18.042  35.650  0.00  0.00     0.210 HD
ENDBRANCH   2  59
BRANCH   3  61
ATOM     61  OY3 MOL d           5.834  19.257  36.327  0.00  0.00    -0.390 OA
ATOM     62  H49 MOL d           5.212  19.427  35.629  0.00  0.00     0.210 HD
ENDBRANCH   3  61
BRANCH   5  63
ATOM     63  CY7 MOL d           4.297  14.781  34.757  0.00  0.00     0.022 C 
ATOM     64  H54 MOL d           4.244  15.097  33.705  0.00  0.00     0.074 H 
ATOM     65  H55 MOL d           3.337  14.994  35.252  0.00  0.00     0.074 H 
BRANCH  63  66
ATOM     66  OY7 MOL d           4.558  13.359  34.815  0.00  0.00    -0.400 OA
ATOM     67  H56 MOL d           4.962  13.146  35.649  0.00  0.00     0.209 HD
ENDBRANCH  63  66
ENDBRANCH   5  63
BRANCH   4  68
ATOM     68  OY4 MOL d           4.222  16.751  37.092  0.00  0.00    -0.350 OA
BRANCH  68  69
ATOM     69  CQ1 MOL d           4.021  15.401  37.442  0.00  0.00     0.159 C 
ATOM     70  CQ2 MOL d           2.913  15.299  38.514  0.00  0.00     0.110 C 
ATOM     71  CQ3 MOL d           3.399  15.766  39.920  0.00  0.00     0.092 C 
ATOM     72  H25 MOL d           2.587  14.251  38.583  0.00  0.00     0.094 H 
ATOM     73  CQ4 MOL d           4.610  14.927  40.336  0.00  0.00     0.096 C 
ATOM     74  H26 MOL d           3.686  16.827  39.887  0.00  0.00     0.091 H 
ATOM     75  CQ5 MOL d           5.728  15.235  39.250  0.00  0.00     0.089 C 
ATOM     76  H27 MOL d           4.359  13.856  40.348  0.00  0.00     0.091 H 
ATOM     77  OQ5 MOL d           5.263  14.837  37.937  0.00  0.00    -0.348 OA
ATOM     78  H28 MOL d           5.927  16.317  39.259  0.00  0.00     0.090 H 
ATOM     79  H24 MOL d           3.706  14.840  36.550  0.00  0.00     0.133 H 
BRANCH  70  80
ATOM     80  OQ2 MOL d           1.815  16.106  38.128  0.00  0.00    -0.388 OA
ATOM     81  H31 MOL d           1.045  15.846  38.618  0.00  0.00     0.210 HD
ENDBRANCH  70  80
BRANCH  71  82
ATOM     82  OQ3 MOL d           2.308  15.592  40.826  0.00  0.00    -0.390 OA
ATOM     83  H32 MOL d           1.737  16.350  40.783  0.00  0.00     0.210 HD
ENDBRANCH  71  82
BRANCH  73  84
ATOM     84  OQ4 MOL d           5.057  15.327  41.600  0.00  0.00    -0.348 OA
BRANCH  84  85
ATOM     85  CW1 MOL d           5.389  14.188  42.410  0.00  0.00     0.159 C 
ATOM     86  CW2 MOL d           4.384  13.955  43.562  0.00  0.00     0.110 C 
ATOM     87  CW3 MOL d           4.443  15.163  44.534  0.00  0.00     0.092 C 
ATOM     88  H35 MOL d           4.646  13.037  44.108  0.00  0.00     0.094 H 
ATOM     89  CW4 MOL d           5.873  15.233  45.097  0.00  0.00     0.090 C 
ATOM     90  H36 MOL d           4.193  16.095  44.005  0.00  0.00     0.091 H 
ATOM     91  CW5 MOL d           6.876  15.461  43.899  0.00  0.00     0.089 C 
ATOM     92  H37 MOL d           6.117  14.295  45.616  0.00  0.00     0.091 H 
ATOM     93  OW5 MOL d           6.742  14.351  42.970  0.00  0.00    -0.348 OA
ATOM     94  H38 MOL d           6.630  16.405  43.390  0.00  0.00     0.090 H 
ATOM     95  H34 MOL d           5.380  13.298  41.763  0.00  0.00     0.133 H 
BRANCH  86  96
ATOM     96  OW2 MOL d           3.102  13.814  42.997  0.00  0.00    -0.388 OA
ATOM     97  H41 MOL d           2.831  12.905  43.053  0.00  0.00     0.210 HD
ENDBRANCH  86  96
BRANCH  87  98
ATOM     98  OW3 MOL d           3.536  14.947  45.590  0.00  0.00    -0.390 OA
ATOM     99  H42 MOL d           3.723  14.112  46.001  0.00  0.00     0.210 HD
ENDBRANCH  87  98
BRANCH  89 100
ATOM    100  OW4 MOL d           5.971  16.321  46.001  0.00  0.00    -0.390 OA
ATOM    101  H43 MOL d           6.723  16.194  46.567  0.00  0.00     0.210 HD
ENDBRANCH  89 100
BRANCH  91 102
ATOM    102  CW6 MOL d           8.331  15.516  44.406  0.00  0.00     0.043 C 
ATOM    103  H39 MOL d           9.000  15.167  43.606  0.00  0.00     0.078 H 
ATOM    104  H40 MOL d           8.429  14.856  45.280  0.00  0.00     0.078 H 
BRANCH 102 105
ATOM    105  OW6 MOL d           8.704  16.816  44.775  0.00  0.00    -0.398 OA
ATOM    106  H44 MOL d           8.122  17.441  44.360  0.00  0.00     0.209 HD
ENDBRANCH 102 105
ENDBRANCH  91 102
ENDBRANCH  84  85
ENDBRANCH  73  84
BRANCH  75 107
ATOM    107  CQ6 MOL d           7.037  14.492  39.495  0.00  0.00     0.043 C 
ATOM    108  H29 MOL d           6.884  13.745  40.288  0.00  0.00     0.078 H 
ATOM    109  H30 MOL d           7.805  15.212  39.814  0.00  0.00     0.078 H 
BRANCH 107 110
ATOM    110  OQ6 MOL d           7.470  13.842  38.323  0.00  0.00    -0.398 OA
ATOM    111  H33 MOL d           7.164  12.943  38.329  0.00  0.00     0.209 HD
ENDBRANCH 107 110
ENDBRANCH  75 107
ENDBRANCH  68  69
ENDBRANCH   4  68
TORSDOF 29
ENDMDL
MODEL 3
REMARK VINA RESULT:      -6.8      2.565     10.439
REMARK  29 active torsions:
REMARK  status: ('A' for Active; 'I' for Inactive)
REMARK    1  A    between atoms: CR1_1  and  OR1_7 
REMARK    2  A    between atoms: CR2_2  and  OR2_8 
REMARK    3  A    between atoms: CR3_3  and  OR3_9 
REMARK    4  A    between atoms: OR4_10  and  CR4_4 
REMARK    5  A    between atoms: CR5_5  and  CR6_6 
REMARK    6  A    between atoms: CR6_6  and  OR6_12 
REMARK    7  A    between atoms: CV1_13  and  OR4_10 
REMARK    8  A    between atoms: CV2_14  and  OV2_19 
REMARK    9  A    between atoms: CV3_15  and  OV3_20 
REMARK   10  A    between atoms: NV4_21  and  CV4_16 
REMARK   11  A    between atoms: CV5_17  and  CV6_18 
REMARK   12  A    between atoms: CY1_45  and  NV4_21 
REMARK   13  A    between atoms: OY4_51  and  CQ1_23 
REMARK   14  A    between atoms: CQ2_24  and  OQ2_29 
REMARK   15  A    between atoms: CQ3_25  and  OQ3_30 
REMARK   16  A    between atoms: CQ4_26  and  OQ4_31 
REMARK   17  A    between atoms: CQ5_27  and  CQ6_28 
REMARK   18  A    between atoms: CQ6_28  and  OQ6_33 
REMARK   19  A    between atoms: OQ4_31  and  CW1_34 
REMARK   20  A    between atoms: CW2_35  and  OW2_40 
REMARK   21  A    between atoms: CW3_36  and  OW3_41 
REMARK   22  A    between atoms: CW4_37  and  OW4_42 
REMARK   23  A    between atoms: CW5_38  and  CW6_39 
REMARK   24  A    between atoms: CW6_39  and  OW6_44 
REMARK   25  A    between atoms: CY2_46  and  OY2_47 
REMARK   26  A    between atoms: CY3_48  and  OY3_49 
REMARK   27  A    between atoms: CY4_50  and  OY4_51 
REMARK   28  A    between atoms: CY5_52  and  CY7_54 
REMARK   29  A    between atoms: CY7_54  and  OY7_55 
ROOT
ATOM      1  CY1 MOL d           7.750  16.494  35.209  0.00  0.00     0.130 C 
ATOM      2  CY2 MOL d           7.259  17.990  35.325  0.00  0.00     0.090 C 
ATOM      3  CY3 MOL d           6.053  18.082  36.362  0.00  0.00     0.087 C 
ATOM      4  CY4 MOL d           4.838  17.114  35.942  0.00  0.00     0.074 C 
ATOM      5  CY5 MOL d           5.318  15.755  35.429  0.00  0.00    -0.004 C 
ATOM      6  CY6 MOL d           6.463  15.741  34.713  0.00  0.00    -0.028 C 
ATOM      7  H45 MOL d           8.539  16.398  34.449  0.00  0.00     0.088 H 
ATOM      8  H46 MOL d           6.903  18.319  34.337  0.00  0.00     0.090 H 
ATOM      9  H48 MOL d           6.427  17.754  37.344  0.00  0.00     0.091 H 
ATOM     10  H50 MOL d           4.230  17.613  35.173  0.00  0.00     0.088 H 
ATOM     11  H51 MOL d           5.530  15.171  36.336  0.00  0.00     0.047 H 
ATOM     12  H52 MOL d           6.746  14.684  34.600  0.00  0.00     0.036 H 
ATOM     13  H53 MOL d           6.217  16.161  33.727  0.00  0.00     0.036 H 
ENDROOT
BRANCH   1  14
ATOM     14  NV4 MOL d           8.337  16.064  36.563  0.00  0.00    -0.059 N 
ATOM     15  H22 MOL d           7.702  16.398  37.271  0.00  0.00     0.278 HD
ATOM     16  H23 MOL d           8.345  15.057  36.567  0.00  0.00     0.278 HD
BRANCH  14  17
ATOM     17  CV4 MOL d           9.691  16.499  36.971  0.00  0.00     0.153 C 
ATOM     18  CV3 MOL d           9.651  17.051  38.414  0.00  0.00     0.094 C 
ATOM     19  CV2 MOL d          11.055  17.498  38.811  0.00  0.00     0.110 C 
ATOM     20  H14 MOL d           9.297  16.267  39.100  0.00  0.00     0.090 H 
ATOM     21  CV1 MOL d          12.067  16.362  38.719  0.00  0.00     0.159 C 
ATOM     22  H13 MOL d          11.362  18.291  38.112  0.00  0.00     0.094 H 
ATOM     23  OV5 MOL d          12.013  15.768  37.394  0.00  0.00    -0.351 OA
ATOM     24  H12 MOL d          13.066  16.797  38.865  0.00  0.00     0.133 H 
ATOM     25  CV5 MOL d          10.685  15.283  36.972  0.00  0.00     0.068 C 
ATOM     26  H16 MOL d          10.330  14.520  37.681  0.00  0.00     0.086 H 
ATOM     27  H15 MOL d          10.050  17.276  36.279  0.00  0.00     0.092 H 
BRANCH  18  28
ATOM     28  OV3 MOL d           8.797  18.169  38.490  0.00  0.00    -0.391 OA
ATOM     29  H21 MOL d           8.123  18.096  37.825  0.00  0.00     0.210 HD
ENDBRANCH  18  28
BRANCH  19  30
ATOM     30  OV2 MOL d          11.089  18.023  40.119  0.00  0.00    -0.388 OA
ATOM     31  H20 MOL d          11.779  17.596  40.612  0.00  0.00     0.210 HD
ENDBRANCH  19  30
BRANCH  21  32
ATOM     32  OR4 MOL d          11.900  15.369  39.676  0.00  0.00    -0.348 OA
BRANCH  32  33
ATOM     33  CR4 MOL d          13.106  14.934  40.302  0.00  0.00     0.096 C 
ATOM     34  CR3 MOL d          14.278  15.118  39.303  0.00  0.00     0.092 C 
ATOM     35  CR2 MOL d          15.575  14.659  39.979  0.00  0.00     0.110 C 
ATOM     36  H3  MOL d          14.354  16.175  39.010  0.00  0.00     0.091 H 
ATOM     37  CR1 MOL d          15.831  15.508  41.254  0.00  0.00     0.156 C 
ATOM     38  H2  MOL d          15.481  13.600  40.256  0.00  0.00     0.094 H 
ATOM     39  OR5 MOL d          14.675  15.386  42.178  0.00  0.00    -0.349 OA
ATOM     40  H1  MOL d          16.727  15.114  41.756  0.00  0.00     0.133 H 
ATOM     41  CR5 MOL d          13.398  15.822  41.601  0.00  0.00     0.089 C 
ATOM     42  H5  MOL d          13.471  16.878  41.303  0.00  0.00     0.090 H 
ATOM     43  H4  MOL d          13.016  13.876  40.587  0.00  0.00     0.091 H 
BRANCH  34  44
ATOM     44  OR3 MOL d          14.073  14.317  38.161  0.00  0.00    -0.390 OA
ATOM     45  H10 MOL d          14.893  14.223  37.690  0.00  0.00     0.210 HD
ENDBRANCH  34  44
BRANCH  35  46
ATOM     46  OR2 MOL d          16.671  14.818  39.106  0.00  0.00    -0.388 OA
ATOM     47  H9  MOL d          17.432  14.381  39.471  0.00  0.00     0.210 HD
ENDBRANCH  35  46
BRANCH  37  48
ATOM     48  OR1 MOL d          16.059  16.874  40.949  0.00  0.00    -0.369 OA
ATOM     49  H8  MOL d          15.227  17.305  40.792  0.00  0.00     0.212 HD
ENDBRANCH  37  48
BRANCH  41  50
ATOM     50  CR6 MOL d          12.361  15.690  42.583  0.00  0.00     0.043 C 
ATOM     51  H6  MOL d          12.761  15.998  43.561  0.00  0.00     0.078 H 
ATOM     52  H7  MOL d          12.051  14.636  42.629  0.00  0.00     0.078 H 
BRANCH  50  53
ATOM     53  OR6 MOL d          11.222  16.489  42.285  0.00  0.00    -0.398 OA
ATOM     54  H11 MOL d          11.410  17.038  41.534  0.00  0.00     0.209 HD
ENDBRANCH  50  53
ENDBRANCH  41  50
ENDBRANCH  32  33
ENDBRANCH  21  32
BRANCH  25  55
ATOM     55  CV6 MOL d          10.774  14.671  35.583  0.00  0.00    -0.050 C 
ATOM     56  H17 MOL d          11.828  14.470  35.337  0.00  0.00     0.031 H 
ATOM     57  H18 MOL d          10.353  15.371  34.846  0.00  0.00     0.031 H 
ATOM     58  H19 MOL d          10.207  13.729  35.559  0.00  0.00     0.031 H 
ENDBRANCH  25  55
ENDBRANCH  14  17
ENDBRANCH   1  14
BRANCH   2  59
ATOM     59  OY2 MOL d           8.291  18.831  35.725  0.00  0.00    -0.391 OA
ATOM     60  H47 MOL d           8.013  19.333  36.482  0.00  0.00     0.210 HD
ENDBRANCH   2  59
BRANCH   3  61
ATOM     61  OY3 MOL d           5.598  19.403  36.488  0.00  0.00    -0.390 OA
ATOM     62  H49 MOL d           4.970  19.587  35.801  0.00  0.00     0.210 HD
ENDBRANCH   3  61
BRANCH   5  63
ATOM     63  CY7 MOL d           4.222  14.976  34.652  0.00  0.00     0.022 C 
ATOM     64  H54 MOL d           4.228  15.296  33.600  0.00  0.00     0.074 H 
ATOM     65  H55 MOL d           3.239  15.192  35.096  0.00  0.00     0.074 H 
BRANCH  63  66
ATOM     66  OY7 MOL d           4.474  13.553  34.720  0.00  0.00    -0.400 OA
ATOM     67  H56 MOL d           4.149  13.137  33.929  0.00  0.00     0.209 HD
ENDBRANCH  63  66
ENDBRANCH   5  63
BRANCH   4  68
ATOM     68  OY4 MOL d           4.050  16.813  37.089  0.00  0.00    -0.350 OA
BRANCH  68  69
ATOM     69  CQ1 MOL d           3.946  15.444  37.405  0.00  0.00     0.159 C 
ATOM     70  CQ2 MOL d           2.826  15.234  38.448  0.00  0.00     0.110 C 
ATOM     71  CQ3 MOL d           3.244  15.703  39.874  0.00  0.00     0.092 C 
ATOM     72  H25 MOL d           2.580  14.162  38.487  0.00  0.00     0.094 H 
ATOM     73  CQ4 MOL d           4.506  14.949  40.300  0.00  0.00     0.096 C 
ATOM     74  H26 MOL d           3.450  16.784  39.871  0.00  0.00     0.091 H 
ATOM     75  CQ5 MOL d           5.620  15.366  39.248  0.00  0.00     0.089 C 
ATOM     76  H27 MOL d           4.337  13.862  40.283  0.00  0.00     0.091 H 
ATOM     77  OQ5 MOL d           5.216  14.965  37.916  0.00  0.00    -0.348 OA
ATOM     78  H28 MOL d           5.736  16.460  39.285  0.00  0.00     0.090 H 
ATOM     79  H24 MOL d           3.694  14.882  36.493  0.00  0.00     0.133 H 
BRANCH  70  80
ATOM     80  OQ2 MOL d           1.678  15.964  38.054  0.00  0.00    -0.388 OA
ATOM     81  H31 MOL d           1.917  16.583  37.374  0.00  0.00     0.210 HD
ENDBRANCH  70  80
BRANCH  71  82
ATOM     82  OQ3 MOL d           2.150  15.425  40.751  0.00  0.00    -0.390 OA
ATOM     83  H32 MOL d           2.246  15.934  41.547  0.00  0.00     0.210 HD
ENDBRANCH  71  82
BRANCH  73  84
ATOM     84  OQ4 MOL d           4.894  15.352  41.583  0.00  0.00    -0.348 OA
BRANCH  84  85
ATOM     85  CW1 MOL d           5.270  14.221  42.384  0.00  0.00     0.159 C 
ATOM     86  CW2 MOL d           4.315  13.985  43.579  0.00  0.00     0.110 C 
ATOM     87  CW3 MOL d           4.404  15.199  44.541  0.00  0.00     0.092 C 
ATOM     88  H35 MOL d           4.608  13.072  44.118  0.00  0.00     0.094 H 
ATOM     89  CW4 MOL d           5.857  15.284  45.043  0.00  0.00     0.090 C 
ATOM     90  H36 MOL d           4.125  16.125  44.019  0.00  0.00     0.091 H 
ATOM     91  CW5 MOL d           6.806  15.514  43.803  0.00  0.00     0.089 C 
ATOM     92  H37 MOL d           6.130  14.350  45.556  0.00  0.00     0.091 H 
ATOM     93  OW5 MOL d           6.643  14.397  42.886  0.00  0.00    -0.348 OA
ATOM     94  H38 MOL d           6.531  16.453  43.300  0.00  0.00     0.090 H 
ATOM     95  H34 MOL d           5.242  13.327  41.743  0.00  0.00     0.133 H 
BRANCH  86  96
ATOM     96  OW2 MOL d           3.012  13.829  43.068  0.00  0.00    -0.388 OA
ATOM     97  H41 MOL d           3.046  13.320  42.267  0.00  0.00     0.210 HD
ENDBRANCH  86  96
BRANCH  87  98
ATOM     98  OW3 MOL d           3.545  14.981  45.635  0.00  0.00    -0.390 OA
ATOM     99  H42 MOL d           4.046  15.011  46.441  0.00  0.00     0.210 HD
ENDBRANCH  87  98
BRANCH  89 100
ATOM    100  OW4 MOL d           5.983  16.378  45.937  0.00  0.00    -0.390 OA
ATOM    101  H43 MOL d           6.876  16.422  46.256  0.00  0.00     0.210 HD
ENDBRANCH  89 100
BRANCH  91 102
ATOM    102  CW6 MOL d           8.281  15.584  44.248  0.00  0.00     0.043 C 
ATOM    103  H39 MOL d           8.904  15.083  43.494  0.00  0.00     0.078 H 
ATOM    104  H40 MOL d           8.386  15.067  45.214  0.00  0.00     0.078 H 
BRANCH 102 105
ATOM    105  OW6 MOL d           8.718  16.908  44.392  0.00  0.00    -0.398 OA
ATOM    106  H44 MOL d           9.628  16.971  44.126  0.00  0.00     0.209 HD
ENDBRANCH 102 105
ENDBRANCH  91 102
ENDBRANCH  84  85
ENDBRANCH  73  84
BRANCH  75 107
ATOM    107  CQ6 MOL d           6.977  14.719  39.508  0.00  0.00     0.043 C 
ATOM    108  H29 MOL d           7.298  14.955  40.533  0.00  0.00     0.078 H 
ATOM    109  H30 MOL d           7.710  15.121  38.793  0.00  0.00     0.078 H 
BRANCH 107 110
ATOM    110  OQ6 MOL d           6.901  13.320  39.356  0.00  0.00    -0.398 OA
ATOM    111  H33 MOL d           6.113  12.999  39.780  0.00  0.00     0.209 HD
ENDBRANCH 107 110
ENDBRANCH  75 107
ENDBRANCH  68  69
ENDBRANCH   4  68
TORSDOF 29
ENDMDL
MODEL 4
REMARK VINA RESULT:      -5.3      2.465      9.556
REMARK  29 active torsions:
REMARK  status: ('A' for Active; 'I' for Inactive)
REMARK    1  A    between atoms: CR1_1  and  OR1_7 
REMARK    2  A    between atoms: CR2_2  and  OR2_8 
REMARK    3  A    between atoms: CR3_3  and  OR3_9 
REMARK    4  A    between atoms: OR4_10  and  CR4_4 
REMARK    5  A    between atoms: CR5_5  and  CR6_6 
REMARK    6  A    between atoms: CR6_6  and  OR6_12 
REMARK    7  A    between atoms: CV1_13  and  OR4_10 
REMARK    8  A    between atoms: CV2_14  and  OV2_19 
REMARK    9  A    between atoms: CV3_15  and  OV3_20 
REMARK   10  A    between atoms: NV4_21  and  CV4_16 
REMARK   11  A    between atoms: CV5_17  and  CV6_18 
REMARK   12  A    between atoms: CY1_45  and  NV4_21 
REMARK   13  A    between atoms: OY4_51  and  CQ1_23 
REMARK   14  A    between atoms: CQ2_24  and  OQ2_29 
REMARK   15  A    between atoms: CQ3_25  and  OQ3_30 
REMARK   16  A    between atoms: CQ4_26  and  OQ4_31 
REMARK   17  A    between atoms: CQ5_27  and  CQ6_28 
REMARK   18  A    between atoms: CQ6_28  and  OQ6_33 
REMARK   19  A    between atoms: OQ4_31  and  CW1_34 
REMARK   20  A    between atoms: CW2_35  and  OW2_40 
REMARK   21  A    between atoms: CW3_36  and  OW3_41 
REMARK   22  A    between atoms: CW4_37  and  OW4_42 
REMARK   23  A    between atoms: CW5_38  and  CW6_39 
REMARK   24  A    between atoms: CW6_39  and  OW6_44 
REMARK   25  A    between atoms: CY2_46  and  OY2_47 
REMARK   26  A    between atoms: CY3_48  and  OY3_49 
REMARK   27  A    between atoms: CY4_50  and  OY4_51 
REMARK   28  A    between atoms: CY5_52  and  CY7_54 
REMARK   29  A    between atoms: CY7_54  and  OY7_55 
ROOT
ATOM      1  CY1 MOL d          15.075  14.194  36.954  0.00  0.00     0.130 C 
ATOM      2  CY2 MOL d          14.857  15.634  36.345  0.00  0.00     0.090 C 
ATOM      3  CY3 MOL d          13.300  15.966  36.291  0.00  0.00     0.087 C 
ATOM      4  CY4 MOL d          12.490  14.861  35.445  0.00  0.00     0.074 C 
ATOM      5  CY5 MOL d          12.970  13.437  35.727  0.00  0.00    -0.004 C 
ATOM      6  CY6 MOL d          14.291  13.269  35.954  0.00  0.00    -0.028 C 
ATOM      7  H45 MOL d          16.139  13.918  36.940  0.00  0.00     0.088 H 
ATOM      8  H46 MOL d          15.259  15.645  35.321  0.00  0.00     0.090 H 
ATOM      9  H48 MOL d          12.916  15.954  37.322  0.00  0.00     0.091 H 
ATOM     10  H50 MOL d          12.587  15.086  34.373  0.00  0.00     0.088 H 
ATOM     11  H51 MOL d          12.471  13.151  36.664  0.00  0.00     0.047 H 
ATOM     12  H52 MOL d          14.415  12.239  36.320  0.00  0.00     0.036 H 
ATOM     13  H53 MOL d          14.789  13.373  34.978  0.00  0.00     0.036 H 
ENDROOT
BRANCH   1  14
ATOM     14  NV4 MOL d          14.604  14.203  38.417  0.00  0.00    -0.059 N 
ATOM     15  H22 MOL d          13.843  13.545  38.479  0.00  0.00     0.278 HD
ATOM     16  H23 MOL d          15.379  13.875  38.971  0.00  0.00     0.278 HD
BRANCH  14  17
ATOM     17  CV4 MOL d          14.132  15.455  39.051  0.00  0.00     0.153 C 
ATOM     18  CV3 MOL d          12.734  15.232  39.671  0.00  0.00     0.094 C 
ATOM     19  CV2 MOL d          12.266  16.535  40.312  0.00  0.00     0.110 C 
ATOM     20  H14 MOL d          12.790  14.437  40.430  0.00  0.00     0.090 H 
ATOM     21  CV1 MOL d          13.235  17.030  41.380  0.00  0.00     0.159 C 
ATOM     22  H13 MOL d          12.209  17.295  39.519  0.00  0.00     0.094 H 
ATOM     23  OV5 MOL d          14.572  17.121  40.820  0.00  0.00    -0.351 OA
ATOM     24  H12 MOL d          12.912  18.039  41.677  0.00  0.00     0.133 H 
ATOM     25  CV5 MOL d          15.092  15.878  40.220  0.00  0.00     0.068 C 
ATOM     26  H16 MOL d          15.116  15.084  40.980  0.00  0.00     0.086 H 
ATOM     27  H15 MOL d          14.087  16.252  38.295  0.00  0.00     0.092 H 
BRANCH  18  28
ATOM     28  OV3 MOL d          11.804  14.874  38.676  0.00  0.00    -0.391 OA
ATOM     29  H21 MOL d          12.265  14.690  37.866  0.00  0.00     0.210 HD
ENDBRANCH  18  28
BRANCH  19  30
ATOM     30  OV2 MOL d          10.988  16.405  40.893  0.00  0.00    -0.388 OA
ATOM     31  H20 MOL d          10.625  15.556  40.670  0.00  0.00     0.210 HD
ENDBRANCH  19  30
BRANCH  21  32
ATOM     32  OR4 MOL d          13.268  16.248  42.528  0.00  0.00    -0.348 OA
BRANCH  32  33
ATOM     33  CR4 MOL d          12.643  16.835  43.669  0.00  0.00     0.096 C 
ATOM     34  CR3 MOL d          12.217  18.282  43.312  0.00  0.00     0.092 C 
ATOM     35  CR2 MOL d          11.537  18.909  44.534  0.00  0.00     0.110 C 
ATOM     36  H3  MOL d          11.525  18.267  42.457  0.00  0.00     0.091 H 
ATOM     37  CR1 MOL d          10.288  18.073  44.926  0.00  0.00     0.156 C 
ATOM     38  H2  MOL d          12.247  18.924  45.373  0.00  0.00     0.094 H 
ATOM     39  OR5 MOL d          10.689  16.671  45.199  0.00  0.00    -0.349 OA
ATOM     40  H1  MOL d           9.860  18.503  45.844  0.00  0.00     0.133 H 
ATOM     41  CR5 MOL d          11.336  16.001  44.064  0.00  0.00     0.089 C 
ATOM     42  H5  MOL d          10.648  15.986  43.206  0.00  0.00     0.090 H 
ATOM     43  H4  MOL d          13.347  16.847  44.513  0.00  0.00     0.091 H 
BRANCH  34  44
ATOM     44  OR3 MOL d          13.351  19.059  42.996  0.00  0.00    -0.390 OA
ATOM     45  H10 MOL d          13.593  19.585  43.750  0.00  0.00     0.210 HD
ENDBRANCH  34  44
BRANCH  35  46
ATOM     46  OR2 MOL d          11.124  20.228  44.250  0.00  0.00    -0.388 OA
ATOM     47  H9  MOL d          10.365  20.205  43.679  0.00  0.00     0.210 HD
ENDBRANCH  35  46
BRANCH  37  48
ATOM     48  OR1 MOL d           9.290  18.100  43.918  0.00  0.00    -0.369 OA
ATOM     49  H8  MOL d           9.695  18.284  43.079  0.00  0.00     0.212 HD
ENDBRANCH  37  48
BRANCH  41  50
ATOM     50  CR6 MOL d          11.653  14.649  44.426  0.00  0.00     0.043 C 
ATOM     51  H6  MOL d          11.192  13.971  43.693  0.00  0.00     0.078 H 
ATOM     52  H7  MOL d          11.240  14.446  45.425  0.00  0.00     0.078 H 
BRANCH  50  53
ATOM     53  OR6 MOL d          13.055  14.406  44.454  0.00  0.00    -0.398 OA
ATOM     54  H11 MOL d          13.247  13.745  45.108  0.00  0.00     0.209 HD
ENDBRANCH  50  53
ENDBRANCH  41  50
ENDBRANCH  32  33
ENDBRANCH  21  32
BRANCH  25  55
ATOM     55  CV6 MOL d          16.500  16.107  39.691  0.00  0.00    -0.050 C 
ATOM     56  H17 MOL d          17.230  15.671  40.391  0.00  0.00     0.031 H 
ATOM     57  H18 MOL d          16.684  17.187  39.594  0.00  0.00     0.031 H 
ATOM     58  H19 MOL d          16.605  15.627  38.707  0.00  0.00     0.031 H 
ENDBRANCH  25  55
ENDBRANCH  14  17
ENDBRANCH   1  14
BRANCH   2  59
ATOM     59  OY2 MOL d          15.521  16.602  37.090  0.00  0.00    -0.391 OA
ATOM     60  H47 MOL d          15.854  17.274  36.507  0.00  0.00     0.210 HD
ENDBRANCH   2  59
BRANCH   3  61
ATOM     61  OY3 MOL d          13.077  17.244  35.757  0.00  0.00    -0.390 OA
ATOM     62  H49 MOL d          13.881  17.567  35.368  0.00  0.00     0.210 HD
ENDBRANCH   3  61
BRANCH   5  63
ATOM     63  CY7 MOL d          12.505  12.415  34.654  0.00  0.00     0.022 C 
ATOM     64  H54 MOL d          13.049  12.601  33.716  0.00  0.00     0.074 H 
ATOM     65  H55 MOL d          11.425  12.535  34.481  0.00  0.00     0.074 H 
BRANCH  63  66
ATOM     66  OY7 MOL d          12.769  11.064  35.098  0.00  0.00    -0.400 OA
ATOM     67  H56 MOL d          13.287  11.089  35.895  0.00  0.00     0.209 HD
ENDBRANCH  63  66
ENDBRANCH   5  63
BRANCH   4  68
ATOM     68  OY4 MOL d          11.122  14.869  35.838  0.00  0.00    -0.350 OA
BRANCH  68  69
ATOM     69  CQ1 MOL d          10.208  15.224  34.827  0.00  0.00     0.159 C 
ATOM     70  CQ2 MOL d           9.501  16.545  35.203  0.00  0.00     0.110 C 
ATOM     71  CQ3 MOL d           8.439  16.353  36.328  0.00  0.00     0.092 C 
ATOM     72  H25 MOL d           8.999  16.941  34.308  0.00  0.00     0.094 H 
ATOM     73  CQ4 MOL d           7.408  15.318  35.874  0.00  0.00     0.096 C 
ATOM     74  H26 MOL d           8.925  16.002  37.250  0.00  0.00     0.091 H 
ATOM     75  CQ5 MOL d           8.226  13.971  35.671  0.00  0.00     0.089 C 
ATOM     76  H27 MOL d           6.927  15.630  34.935  0.00  0.00     0.091 H 
ATOM     77  OQ5 MOL d           9.239  14.159  34.652  0.00  0.00    -0.348 OA
ATOM     78  H28 MOL d           8.707  13.713  36.626  0.00  0.00     0.090 H 
ATOM     79  H24 MOL d          10.754  15.369  33.883  0.00  0.00     0.133 H 
BRANCH  70  80
ATOM     80  OQ2 MOL d          10.466  17.480  35.651  0.00  0.00    -0.388 OA
ATOM     81  H31 MOL d          11.268  17.367  35.155  0.00  0.00     0.210 HD
ENDBRANCH  70  80
BRANCH  71  82
ATOM     82  OQ3 MOL d           7.832  17.626  36.560  0.00  0.00    -0.390 OA
ATOM     83  H32 MOL d           8.376  18.309  36.184  0.00  0.00     0.210 HD
ENDBRANCH  71  82
BRANCH  73  84
ATOM     84  OQ4 MOL d           6.441  15.137  36.869  0.00  0.00    -0.348 OA
BRANCH  84  85
ATOM     85  CW1 MOL d           6.972  14.381  37.968  0.00  0.00     0.159 C 
ATOM     86  CW2 MOL d           5.881  13.616  38.755  0.00  0.00     0.110 C 
ATOM     87  CW3 MOL d           4.919  14.643  39.409  0.00  0.00     0.092 C 
ATOM     88  H35 MOL d           6.347  13.004  39.542  0.00  0.00     0.094 H 
ATOM     89  CW4 MOL d           5.751  15.505  40.375  0.00  0.00     0.090 C 
ATOM     90  H36 MOL d           4.449  15.273  38.640  0.00  0.00     0.091 H 
ATOM     91  CW5 MOL d           6.859  16.264  39.546  0.00  0.00     0.089 C 
ATOM     92  H37 MOL d           6.223  14.866  41.134  0.00  0.00     0.091 H 
ATOM     93  OW5 MOL d           7.698  15.275  38.886  0.00  0.00    -0.348 OA
ATOM     94  H38 MOL d           6.379  16.907  38.794  0.00  0.00     0.090 H 
ATOM     95  H34 MOL d           7.681  13.643  37.562  0.00  0.00     0.133 H 
BRANCH  86  96
ATOM     96  OW2 MOL d           5.201  12.779  37.851  0.00  0.00    -0.388 OA
ATOM     97  H41 MOL d           4.722  12.115  38.334  0.00  0.00     0.210 HD
ENDBRANCH  86  96
BRANCH  87  98
ATOM     98  OW3 MOL d           3.932  13.949  40.135  0.00  0.00    -0.390 OA
ATOM     99  H42 MOL d           3.361  14.573  40.568  0.00  0.00     0.210 HD
ENDBRANCH  87  98
BRANCH  89 100
ATOM    100  OW4 MOL d           4.906  16.455  41.004  0.00  0.00    -0.390 OA
ATOM    101  H43 MOL d           4.333  16.846  40.355  0.00  0.00     0.210 HD
ENDBRANCH  89 100
BRANCH  91 102
ATOM    102  CW6 MOL d           7.739  17.128  40.472  0.00  0.00     0.043 C 
ATOM    103  H39 MOL d           7.205  18.062  40.699  0.00  0.00     0.078 H 
ATOM    104  H40 MOL d           8.681  17.360  39.952  0.00  0.00     0.078 H 
BRANCH 102 105
ATOM    105  OW6 MOL d           8.034  16.469  41.674  0.00  0.00    -0.398 OA
ATOM    106  H44 MOL d           7.310  16.579  42.279  0.00  0.00     0.209 HD
ENDBRANCH 102 105
ENDBRANCH  91 102
ENDBRANCH  84  85
ENDBRANCH  73  84
BRANCH  75 107
ATOM    107  CQ6 MOL d           7.364  12.796  35.221  0.00  0.00     0.043 C 
ATOM    108  H29 MOL d           7.221  12.109  36.068  0.00  0.00     0.078 H 
ATOM    109  H30 MOL d           7.875  12.268  34.402  0.00  0.00     0.078 H 
BRANCH 107 110
ATOM    110  OQ6 MOL d           6.106  13.243  34.770  0.00  0.00    -0.398 OA
ATOM    111  H33 MOL d           6.196  14.110  34.393  0.00  0.00     0.209 HD
ENDBRANCH 107 110
ENDBRANCH  75 107
ENDBRANCH  68  69
ENDBRANCH   4  68
TORSDOF 29
ENDMDL
MODEL 5
REMARK VINA RESULT:      -5.0      2.402      8.944
REMARK  29 active torsions:
REMARK  status: ('A' for Active; 'I' for Inactive)
REMARK    1  A    between atoms: CR1_1  and  OR1_7 
REMARK    2  A    between atoms: CR2_2  and  OR2_8 
REMARK    3  A    between atoms: CR3_3  and  OR3_9 
REMARK    4  A    between atoms: OR4_10  and  CR4_4 
REMARK    5  A    between atoms: CR5_5  and  CR6_6 
REMARK    6  A    between atoms: CR6_6  and  OR6_12 
REMARK    7  A    between atoms: CV1_13  and  OR4_10 
REMARK    8  A    between atoms: CV2_14  and  OV2_19 
REMARK    9  A    between atoms: CV3_15  and  OV3_20 
REMARK   10  A    between atoms: NV4_21  and  CV4_16 
REMARK   11  A    between atoms: CV5_17  and  CV6_18 
REMARK   12  A    between atoms: CY1_45  and  NV4_21 
REMARK   13  A    between atoms: OY4_51  and  CQ1_23 
REMARK   14  A    between atoms: CQ2_24  and  OQ2_29 
REMARK   15  A    between atoms: CQ3_25  and  OQ3_30 
REMARK   16  A    between atoms: CQ4_26  and  OQ4_31 
REMARK   17  A    between atoms: CQ5_27  and  CQ6_28 
REMARK   18  A    between atoms: CQ6_28  and  OQ6_33 
REMARK   19  A    between atoms: OQ4_31  and  CW1_34 
REMARK   20  A    between atoms: CW2_35  and  OW2_40 
REMARK   21  A    between atoms: CW3_36  and  OW3_41 
REMARK   22  A    between atoms: CW4_37  and  OW4_42 
REMARK   23  A    between atoms: CW5_38  and  CW6_39 
REMARK   24  A    between atoms: CW6_39  and  OW6_44 
REMARK   25  A    between atoms: CY2_46  and  OY2_47 
REMARK   26  A    between atoms: CY3_48  and  OY3_49 
REMARK   27  A    between atoms: CY4_50  and  OY4_51 
REMARK   28  A    between atoms: CY5_52  and  CY7_54 
REMARK   29  A    between atoms: CY7_54  and  OY7_55 
ROOT
ATOM      1  CY1 MOL d           6.565  16.803  42.889  0.00  0.00     0.130 C 
ATOM      2  CY2 MOL d           6.170  15.501  43.690  0.00  0.00     0.090 C 
ATOM      3  CY3 MOL d           5.559  14.420  42.692  0.00  0.00     0.087 C 
ATOM      4  CY4 MOL d           4.290  15.005  41.893  0.00  0.00     0.074 C 
ATOM      5  CY5 MOL d           4.496  16.451  41.439  0.00  0.00    -0.004 C 
ATOM      6  CY6 MOL d           5.197  17.258  42.264  0.00  0.00    -0.028 C 
ATOM      7  H45 MOL d           6.929  17.587  43.569  0.00  0.00     0.088 H 
ATOM      8  H46 MOL d           5.406  15.767  44.436  0.00  0.00     0.090 H 
ATOM      9  H48 MOL d           6.336  14.163  41.957  0.00  0.00     0.091 H 
ATOM     10  H50 MOL d           3.398  14.935  42.533  0.00  0.00     0.088 H 
ATOM     11  H51 MOL d           5.096  16.374  40.521  0.00  0.00     0.047 H 
ATOM     12  H52 MOL d           5.404  18.177  41.697  0.00  0.00     0.036 H 
ATOM     13  H53 MOL d           4.531  17.491  43.109  0.00  0.00     0.036 H 
ENDROOT
BRANCH   1  14
ATOM     14  NV4 MOL d           7.701  16.453  41.914  0.00  0.00    -0.059 N 
ATOM     15  H22 MOL d           8.042  15.544  42.183  0.00  0.00     0.278 HD
ATOM     16  H23 MOL d           7.286  16.400  40.997  0.00  0.00     0.278 HD
BRANCH  14  17
ATOM     17  CV4 MOL d           8.887  17.330  41.791  0.00  0.00     0.153 C 
ATOM     18  CV3 MOL d           9.994  16.849  42.756  0.00  0.00     0.094 C 
ATOM     19  CV2 MOL d          11.203  17.770  42.617  0.00  0.00     0.110 C 
ATOM     20  H14 MOL d          10.276  15.815  42.508  0.00  0.00     0.090 H 
ATOM     21  CV1 MOL d          11.738  17.803  41.190  0.00  0.00     0.159 C 
ATOM     22  H13 MOL d          10.881  18.786  42.889  0.00  0.00     0.094 H 
ATOM     23  OV5 MOL d          10.660  18.138  40.274  0.00  0.00    -0.351 OA
ATOM     24  H12 MOL d          12.497  18.598  41.139  0.00  0.00     0.133 H 
ATOM     25  CV5 MOL d           9.479  17.256  40.338  0.00  0.00     0.068 C 
ATOM     26  H16 MOL d           9.780  16.221  40.116  0.00  0.00     0.086 H 
ATOM     27  H15 MOL d           8.602  18.365  42.028  0.00  0.00     0.092 H 
BRANCH  18  28
ATOM     28  OV3 MOL d           9.547  16.913  44.090  0.00  0.00    -0.391 OA
ATOM     29  H21 MOL d           8.926  16.211  44.248  0.00  0.00     0.210 HD
ENDBRANCH  18  28
BRANCH  19  30
ATOM     30  OV2 MOL d          12.253  17.392  43.479  0.00  0.00    -0.388 OA
ATOM     31  H20 MOL d          12.582  18.160  43.930  0.00  0.00     0.210 HD
ENDBRANCH  19  30
BRANCH  21  32
ATOM     32  OR4 MOL d          12.343  16.622  40.778  0.00  0.00    -0.348 OA
BRANCH  32  33
ATOM     33  CR4 MOL d          13.744  16.724  40.529  0.00  0.00     0.096 C 
ATOM     34  CR3 MOL d          14.471  15.602  41.314  0.00  0.00     0.092 C 
ATOM     35  CR2 MOL d          15.975  15.706  41.038  0.00  0.00     0.110 C 
ATOM     36  H3  MOL d          14.093  14.619  40.994  0.00  0.00     0.091 H 
ATOM     37  CR1 MOL d          16.243  15.545  39.517  0.00  0.00     0.156 C 
ATOM     38  H2  MOL d          16.335  16.690  41.372  0.00  0.00     0.094 H 
ATOM     39  OR5 MOL d          15.489  16.577  38.763  0.00  0.00    -0.349 OA
ATOM     40  H1  MOL d          17.319  15.693  39.339  0.00  0.00     0.133 H 
ATOM     41  CR5 MOL d          14.037  16.528  38.969  0.00  0.00     0.089 C 
ATOM     42  H5  MOL d          13.655  15.546  38.653  0.00  0.00     0.090 H 
ATOM     43  H4  MOL d          14.108  17.709  40.856  0.00  0.00     0.091 H 
BRANCH  34  44
ATOM     44  OR3 MOL d          14.268  15.767  42.699  0.00  0.00    -0.390 OA
ATOM     45  H10 MOL d          14.621  16.605  42.972  0.00  0.00     0.210 HD
ENDBRANCH  34  44
BRANCH  35  46
ATOM     46  OR2 MOL d          16.676  14.695  41.728  0.00  0.00    -0.388 OA
ATOM     47  H9  MOL d          17.410  14.402  41.200  0.00  0.00     0.210 HD
ENDBRANCH  35  46
BRANCH  37  48
ATOM     48  OR1 MOL d          15.890  14.254  39.047  0.00  0.00    -0.369 OA
ATOM     49  H8  MOL d          15.028  14.289  38.649  0.00  0.00     0.212 HD
ENDBRANCH  37  48
BRANCH  41  50
ATOM     50  CR6 MOL d          13.408  17.544  38.174  0.00  0.00     0.043 C 
ATOM     51  H6  MOL d          13.977  17.664  37.240  0.00  0.00     0.078 H 
ATOM     52  H7  MOL d          13.423  18.489  38.736  0.00  0.00     0.078 H 
BRANCH  50  53
ATOM     53  OR6 MOL d          12.060  17.227  37.849  0.00  0.00    -0.398 OA
ATOM     54  H11 MOL d          11.479  17.644  38.474  0.00  0.00     0.209 HD
ENDBRANCH  50  53
ENDBRANCH  41  50
ENDBRANCH  32  33
ENDBRANCH  21  32
BRANCH  25  55
ATOM     55  CV6 MOL d           8.442  17.705  39.320  0.00  0.00    -0.050 C 
ATOM     56  H17 MOL d           8.634  17.208  38.357  0.00  0.00     0.031 H 
ATOM     57  H18 MOL d           8.504  18.795  39.189  0.00  0.00     0.031 H 
ATOM     58  H19 MOL d           7.437  17.435  39.677  0.00  0.00     0.031 H 
ENDBRANCH  25  55
ENDBRANCH  14  17
ENDBRANCH   1  14
BRANCH   2  59
ATOM     59  OY2 MOL d           7.267  14.964  44.354  0.00  0.00    -0.391 OA
ATOM     60  H47 MOL d           7.703  15.649  44.847  0.00  0.00     0.210 HD
ENDBRANCH   2  59
BRANCH   3  61
ATOM     61  OY3 MOL d           5.202  13.249  43.377  0.00  0.00    -0.390 OA
ATOM     62  H49 MOL d           5.642  13.230  44.219  0.00  0.00     0.210 HD
ENDBRANCH   3  61
BRANCH   5  63
ATOM     63  CY7 MOL d           3.172  17.157  41.040  0.00  0.00     0.022 C 
ATOM     64  H54 MOL d           3.144  17.285  39.948  0.00  0.00     0.074 H 
ATOM     65  H55 MOL d           3.126  18.143  41.526  0.00  0.00     0.074 H 
BRANCH  63  66
ATOM     66  OY7 MOL d           2.035  16.366  41.457  0.00  0.00    -0.400 OA
ATOM     67  H56 MOL d           1.831  15.727  40.784  0.00  0.00     0.209 HD
ENDBRANCH  63  66
ENDBRANCH   5  63
BRANCH   4  68
ATOM     68  OY4 MOL d           4.104  14.267  40.690  0.00  0.00    -0.350 OA
BRANCH  68  69
ATOM     69  CQ1 MOL d           4.283  15.002  39.501  0.00  0.00     0.159 C 
ATOM     70  CQ2 MOL d           3.456  14.362  38.364  0.00  0.00     0.110 C 
ATOM     71  CQ3 MOL d           4.088  13.037  37.839  0.00  0.00     0.092 C 
ATOM     72  H25 MOL d           3.394  15.077  37.530  0.00  0.00     0.094 H 
ATOM     73  CQ4 MOL d           5.513  13.318  37.357  0.00  0.00     0.096 C 
ATOM     74  H26 MOL d           4.117  12.288  38.645  0.00  0.00     0.091 H 
ATOM     75  CQ5 MOL d           6.301  13.818  38.643  0.00  0.00     0.089 C 
ATOM     76  H27 MOL d           5.516  14.087  36.571  0.00  0.00     0.091 H 
ATOM     77  OQ5 MOL d           5.692  15.029  39.154  0.00  0.00    -0.348 OA
ATOM     78  H28 MOL d           6.250  13.028  39.407  0.00  0.00     0.090 H 
ATOM     79  H24 MOL d           3.935  16.033  39.658  0.00  0.00     0.133 H 
BRANCH  70  80
ATOM     80  OQ2 MOL d           2.151  14.080  38.838  0.00  0.00    -0.388 OA
ATOM     81  H31 MOL d           2.057  13.143  38.963  0.00  0.00     0.210 HD
ENDBRANCH  70  80
BRANCH  71  82
ATOM     82  OQ3 MOL d           3.261  12.565  36.774  0.00  0.00    -0.390 OA
ATOM     83  H32 MOL d           3.480  13.028  35.975  0.00  0.00     0.210 HD
ENDBRANCH  71  82
BRANCH  73  84
ATOM     84  OQ4 MOL d           6.095  12.140  36.875  0.00  0.00    -0.348 OA
BRANCH  84  85
ATOM     85  CW1 MOL d           6.121  12.131  35.440  0.00  0.00     0.159 C 
ATOM     86  CW2 MOL d           7.552  12.010  34.864  0.00  0.00     0.110 C 
ATOM     87  CW3 MOL d           8.365  13.268  35.267  0.00  0.00     0.092 C 
ATOM     88  H35 MOL d           7.510  11.941  33.767  0.00  0.00     0.094 H 
ATOM     89  CW4 MOL d           7.658  14.490  34.653  0.00  0.00     0.090 C 
ATOM     90  H36 MOL d           8.411  13.362  36.362  0.00  0.00     0.091 H 
ATOM     91  CW5 MOL d           6.200  14.581  35.250  0.00  0.00     0.089 C 
ATOM     92  H37 MOL d           7.609  14.383  33.560  0.00  0.00     0.091 H 
ATOM     93  OW5 MOL d           5.490  13.356  34.920  0.00  0.00    -0.348 OA
ATOM     94  H38 MOL d           6.258  14.696  36.343  0.00  0.00     0.090 H 
ATOM     95  H34 MOL d           5.540  11.262  35.095  0.00  0.00     0.133 H 
BRANCH  86  96
ATOM     96  OW2 MOL d           8.131  10.837  35.385  0.00  0.00    -0.388 OA
ATOM     97  H41 MOL d           7.444  10.227  35.628  0.00  0.00     0.210 HD
ENDBRANCH  86  96
BRANCH  87  98
ATOM     98  OW3 MOL d           9.664  13.165  34.734  0.00  0.00    -0.390 OA
ATOM     99  H42 MOL d           9.872  13.957  34.252  0.00  0.00     0.210 HD
ENDBRANCH  87  98
BRANCH  89 100
ATOM    100  OW4 MOL d           8.375  15.667  34.989  0.00  0.00    -0.390 OA
ATOM    101  H43 MOL d           7.974  16.413  34.560  0.00  0.00     0.210 HD
ENDBRANCH  89 100
BRANCH  91 102
ATOM    102  CW6 MOL d           5.437  15.779  34.651  0.00  0.00     0.043 C 
ATOM    103  H39 MOL d           4.640  15.400  33.994  0.00  0.00     0.078 H 
ATOM    104  H40 MOL d           6.138  16.390  34.063  0.00  0.00     0.078 H 
BRANCH 102 105
ATOM    105  OW6 MOL d           4.861  16.581  35.646  0.00  0.00    -0.398 OA
ATOM    106  H44 MOL d           5.547  17.034  36.122  0.00  0.00     0.209 HD
ENDBRANCH 102 105
ENDBRANCH  91 102
ENDBRANCH  84  85
ENDBRANCH  73  84
BRANCH  75 107
ATOM    107  CQ6 MOL d           7.765  14.145  38.371  0.00  0.00     0.043 C 
ATOM    108  H29 MOL d           7.828  15.112  37.850  0.00  0.00     0.078 H 
ATOM    109  H30 MOL d           8.199  13.357  37.737  0.00  0.00     0.078 H 
BRANCH 107 110
ATOM    110  OQ6 MOL d           8.493  14.221  39.576  0.00  0.00    -0.398 OA
ATOM    111  H33 MOL d           8.001  13.797  40.269  0.00  0.00     0.209 HD
ENDBRANCH 107 110
ENDBRANCH  75 107
ENDBRANCH  68  69
ENDBRANCH   4  68
TORSDOF 29
ENDMDL
MODEL 6
REMARK VINA RESULT:      -4.9      2.338     10.536
REMARK  29 active torsions:
REMARK  status: ('A' for Active; 'I' for Inactive)
REMARK    1  A    between atoms: CR1_1  and  OR1_7 
REMARK    2  A    between atoms: CR2_2  and  OR2_8 
REMARK    3  A    between atoms: CR3_3  and  OR3_9 
REMARK    4  A    between atoms: OR4_10  and  CR4_4 
REMARK    5  A    between atoms: CR5_5  and  CR6_6 
REMARK    6  A    between atoms: CR6_6  and  OR6_12 
REMARK    7  A    between atoms: CV1_13  and  OR4_10 
REMARK    8  A    between atoms: CV2_14  and  OV2_19 
REMARK    9  A    between atoms: CV3_15  and  OV3_20 
REMARK   10  A    between atoms: NV4_21  and  CV4_16 
REMARK   11  A    between atoms: CV5_17  and  CV6_18 
REMARK   12  A    between atoms: CY1_45  and  NV4_21 
REMARK   13  A    between atoms: OY4_51  and  CQ1_23 
REMARK   14  A    between atoms: CQ2_24  and  OQ2_29 
REMARK   15  A    between atoms: CQ3_25  and  OQ3_30 
REMARK   16  A    between atoms: CQ4_26  and  OQ4_31 
REMARK   17  A    between atoms: CQ5_27  and  CQ6_28 
REMARK   18  A    between atoms: CQ6_28  and  OQ6_33 
REMARK   19  A    between atoms: OQ4_31  and  CW1_34 
REMARK   20  A    between atoms: CW2_35  and  OW2_40 
REMARK   21  A    between atoms: CW3_36  and  OW3_41 
REMARK   22  A    between atoms: CW4_37  and  OW4_42 
REMARK   23  A    between atoms: CW5_38  and  CW6_39 
REMARK   24  A    between atoms: CW6_39  and  OW6_44 
REMARK   25  A    between atoms: CY2_46  and  OY2_47 
REMARK   26  A    between atoms: CY3_48  and  OY3_49 
REMARK   27  A    between atoms: CY4_50  and  OY4_51 
REMARK   28  A    between atoms: CY5_52  and  CY7_54 
REMARK   29  A    between atoms: CY7_54  and  OY7_55 
ROOT
ATOM      1  CY1 MOL d           9.210  15.204  35.882  0.00  0.00     0.130 C 
ATOM      2  CY2 MOL d           8.100  15.940  35.035  0.00  0.00     0.090 C 
ATOM      3  CY3 MOL d           6.755  16.043  35.883  0.00  0.00     0.087 C 
ATOM      4  CY4 MOL d           6.243  14.591  36.355  0.00  0.00     0.074 C 
ATOM      5  CY5 MOL d           7.385  13.686  36.819  0.00  0.00    -0.004 C 
ATOM      6  CY6 MOL d           8.561  13.800  36.165  0.00  0.00    -0.028 C 
ATOM      7  H45 MOL d          10.128  15.064  35.292  0.00  0.00     0.088 H 
ATOM      8  H46 MOL d           7.904  15.349  34.127  0.00  0.00     0.090 H 
ATOM      9  H48 MOL d           6.969  16.638  36.783  0.00  0.00     0.091 H 
ATOM     10  H50 MOL d           5.698  14.115  35.527  0.00  0.00     0.088 H 
ATOM     11  H51 MOL d           7.591  14.000  37.853  0.00  0.00     0.047 H 
ATOM     12  H52 MOL d           9.298  13.228  36.748  0.00  0.00     0.036 H 
ATOM     13  H53 MOL d           8.419  13.321  35.185  0.00  0.00     0.036 H 
ENDROOT
BRANCH   1  14
ATOM     14  NV4 MOL d           9.556  16.075  37.101  0.00  0.00    -0.059 N 
ATOM     15  H22 MOL d           9.171  16.989  36.920  0.00  0.00     0.278 HD
ATOM     16  H23 MOL d           9.088  15.662  37.892  0.00  0.00     0.278 HD
BRANCH  14  17
ATOM     17  CV4 MOL d          10.965  16.283  37.505  0.00  0.00     0.153 C 
ATOM     18  CV3 MOL d          11.317  15.340  38.677  0.00  0.00     0.094 C 
ATOM     19  CV2 MOL d          12.769  15.576  39.081  0.00  0.00     0.110 C 
ATOM     20  H14 MOL d          11.177  14.294  38.365  0.00  0.00     0.090 H 
ATOM     21  CV1 MOL d          13.732  15.344  37.922  0.00  0.00     0.159 C 
ATOM     22  H13 MOL d          12.860  16.625  39.401  0.00  0.00     0.094 H 
ATOM     23  OV5 MOL d          13.322  16.145  36.781  0.00  0.00    -0.351 OA
ATOM     24  H12 MOL d          14.727  15.683  38.246  0.00  0.00     0.133 H 
ATOM     25  CV5 MOL d          11.936  15.929  36.323  0.00  0.00     0.068 C 
ATOM     26  H16 MOL d          11.802  14.875  36.040  0.00  0.00     0.086 H 
ATOM     27  H15 MOL d          11.107  17.331  37.807  0.00  0.00     0.092 H 
BRANCH  18  28
ATOM     28  OV3 MOL d          10.502  15.614  39.793  0.00  0.00    -0.391 OA
ATOM     29  H21 MOL d           9.662  15.184  39.684  0.00  0.00     0.210 HD
ENDBRANCH  18  28
BRANCH  19  30
ATOM     30  OV2 MOL d          13.156  14.750  40.156  0.00  0.00    -0.388 OA
ATOM     31  H20 MOL d          12.491  14.781  40.833  0.00  0.00     0.210 HD
ENDBRANCH  19  30
BRANCH  21  32
ATOM     32  OR4 MOL d          13.850  14.015  37.534  0.00  0.00    -0.348 OA
BRANCH  32  33
ATOM     33  CR4 MOL d          15.066  13.696  36.859  0.00  0.00     0.096 C 
ATOM     34  CR3 MOL d          16.008  12.965  37.850  0.00  0.00     0.092 C 
ATOM     35  CR2 MOL d          17.310  12.615  37.122  0.00  0.00     0.110 C 
ATOM     36  H3  MOL d          15.521  12.051  38.221  0.00  0.00     0.091 H 
ATOM     37  CR1 MOL d          17.002  11.694  35.910  0.00  0.00     0.156 C 
ATOM     38  H2  MOL d          17.785  13.541  36.767  0.00  0.00     0.094 H 
ATOM     39  OR5 MOL d          16.045  12.368  34.998  0.00  0.00    -0.349 OA
ATOM     40  H1  MOL d          17.942  11.515  35.366  0.00  0.00     0.133 H 
ATOM     41  CR5 MOL d          14.767  12.722  35.626  0.00  0.00     0.089 C 
ATOM     42  H5  MOL d          14.278  11.811  36.001  0.00  0.00     0.090 H 
ATOM     43  H4  MOL d          15.543  14.619  36.497  0.00  0.00     0.091 H 
BRANCH  34  44
ATOM     44  OR3 MOL d          16.326  13.812  38.932  0.00  0.00    -0.390 OA
ATOM     45  H10 MOL d          17.269  13.831  39.051  0.00  0.00     0.210 HD
ENDBRANCH  34  44
BRANCH  35  46
ATOM     46  OR2 MOL d          18.195  11.939  37.987  0.00  0.00    -0.388 OA
ATOM     47  H9  MOL d          17.884  12.017  38.881  0.00  0.00     0.210 HD
ENDBRANCH  35  46
BRANCH  37  48
ATOM     48  OR1 MOL d          16.478  10.439  36.313  0.00  0.00    -0.369 OA
ATOM     49  H8  MOL d          17.027  10.073  36.997  0.00  0.00     0.212 HD
ENDBRANCH  37  48
BRANCH  41  50
ATOM     50  CR6 MOL d          13.911  13.338  34.653  0.00  0.00     0.043 C 
ATOM     51  H6  MOL d          14.136  12.910  33.664  0.00  0.00     0.078 H 
ATOM     52  H7  MOL d          14.113  14.418  34.640  0.00  0.00     0.078 H 
BRANCH  50  53
ATOM     53  OR6 MOL d          12.531  13.135  34.933  0.00  0.00    -0.398 OA
ATOM     54  H11 MOL d          12.402  12.254  35.263  0.00  0.00     0.209 HD
ENDBRANCH  50  53
ENDBRANCH  41  50
ENDBRANCH  32  33
ENDBRANCH  21  32
BRANCH  25  55
ATOM     55  CV6 MOL d          11.646  16.811  35.118  0.00  0.00    -0.050 C 
ATOM     56  H17 MOL d          11.619  17.865  35.432  0.00  0.00     0.031 H 
ATOM     57  H18 MOL d          10.674  16.533  34.685  0.00  0.00     0.031 H 
ATOM     58  H19 MOL d          12.436  16.674  34.364  0.00  0.00     0.031 H 
ENDBRANCH  25  55
ENDBRANCH  14  17
ENDBRANCH   1  14
BRANCH   2  59
ATOM     59  OY2 MOL d           8.516  17.210  34.654  0.00  0.00    -0.391 OA
ATOM     60  H47 MOL d           8.879  17.662  35.406  0.00  0.00     0.210 HD
ENDBRANCH   2  59
BRANCH   3  61
ATOM     61  OY3 MOL d           5.751  16.697  35.155  0.00  0.00    -0.390 OA
ATOM     62  H49 MOL d           4.938  16.214  35.235  0.00  0.00     0.210 HD
ENDBRANCH   3  61
BRANCH   5  63
ATOM     63  CY7 MOL d           6.985  12.188  36.888  0.00  0.00     0.022 C 
ATOM     64  H54 MOL d           7.735  11.587  36.355  0.00  0.00     0.074 H 
ATOM     65  H55 MOL d           6.001  12.053  36.413  0.00  0.00     0.074 H 
BRANCH  63  66
ATOM     66  OY7 MOL d           6.913  11.750  38.265  0.00  0.00    -0.400 OA
ATOM     67  H56 MOL d           7.780  11.495  38.561  0.00  0.00     0.209 HD
ENDBRANCH  63  66
ENDBRANCH   5  63
BRANCH   4  68
ATOM     68  OY4 MOL d           5.403  14.731  37.495  0.00  0.00    -0.350 OA
BRANCH  68  69
ATOM     69  CQ1 MOL d           4.860  16.018  37.689  0.00  0.00     0.159 C 
ATOM     70  CQ2 MOL d           5.827  16.867  38.544  0.00  0.00     0.110 C 
ATOM     71  CQ3 MOL d           5.814  16.452  40.047  0.00  0.00     0.092 C 
ATOM     72  H25 MOL d           5.527  17.923  38.466  0.00  0.00     0.094 H 
ATOM     73  CQ4 MOL d           4.388  16.575  40.589  0.00  0.00     0.096 C 
ATOM     74  H26 MOL d           6.156  15.413  40.154  0.00  0.00     0.091 H 
ATOM     75  CQ5 MOL d           3.526  15.546  39.739  0.00  0.00     0.089 C 
ATOM     76  H27 MOL d           4.009  17.600  40.466  0.00  0.00     0.091 H 
ATOM     77  OQ5 MOL d           3.567  15.908  38.337  0.00  0.00    -0.348 OA
ATOM     78  H28 MOL d           3.956  14.542  39.874  0.00  0.00     0.090 H 
ATOM     79  H24 MOL d           4.729  16.504  36.711  0.00  0.00     0.133 H 
BRANCH  70  80
ATOM     80  OQ2 MOL d           7.144  16.716  38.047  0.00  0.00    -0.388 OA
ATOM     81  H31 MOL d           7.110  16.391  37.155  0.00  0.00     0.210 HD
ENDBRANCH  70  80
BRANCH  71  82
ATOM     82  OQ3 MOL d           6.711  17.327  40.735  0.00  0.00    -0.390 OA
ATOM     83  H32 MOL d           7.606  17.058  40.566  0.00  0.00     0.210 HD
ENDBRANCH  71  82
BRANCH  73  84
ATOM     84  OQ4 MOL d           4.358  16.213  41.940  0.00  0.00    -0.348 OA
BRANCH  84  85
ATOM     85  CW1 MOL d           4.886  14.892  42.129  0.00  0.00     0.159 C 
ATOM     86  CW2 MOL d           4.324  14.194  43.391  0.00  0.00     0.110 C 
ATOM     87  CW3 MOL d           4.776  14.985  44.647  0.00  0.00     0.092 C 
ATOM     88  H35 MOL d           4.708  13.165  43.453  0.00  0.00     0.094 H 
ATOM     89  CW4 MOL d           6.315  14.959  44.679  0.00  0.00     0.090 C 
ATOM     90  H36 MOL d           4.411  16.021  44.601  0.00  0.00     0.091 H 
ATOM     91  CW5 MOL d           6.858  15.667  43.377  0.00  0.00     0.089 C 
ATOM     92  H37 MOL d           6.671  13.920  44.716  0.00  0.00     0.091 H 
ATOM     93  OW5 MOL d           6.355  14.948  42.218  0.00  0.00    -0.348 OA
ATOM     94  H38 MOL d           6.504  16.709  43.351  0.00  0.00     0.090 H 
ATOM     95  H34 MOL d           4.609  14.287  41.253  0.00  0.00     0.133 H 
BRANCH  86  96
ATOM     96  OW2 MOL d           2.920  14.164  43.281  0.00  0.00    -0.388 OA
ATOM     97  H41 MOL d           2.542  13.956  44.127  0.00  0.00     0.210 HD
ENDBRANCH  86  96
BRANCH  87  98
ATOM     98  OW3 MOL d           4.275  14.345  45.797  0.00  0.00    -0.390 OA
ATOM     99  H42 MOL d           4.015  13.458  45.577  0.00  0.00     0.210 HD
ENDBRANCH  87  98
BRANCH  89 100
ATOM    100  OW4 MOL d           6.774  15.665  45.820  0.00  0.00    -0.390 OA
ATOM    101  H43 MOL d           7.724  15.686  45.816  0.00  0.00     0.210 HD
ENDBRANCH  89 100
BRANCH  91 102
ATOM    102  CW6 MOL d           8.399  15.650  43.346  0.00  0.00     0.043 C 
ATOM    103  H39 MOL d           8.759  14.860  44.021  0.00  0.00     0.078 H 
ATOM    104  H40 MOL d           8.773  16.626  43.691  0.00  0.00     0.078 H 
BRANCH 102 105
ATOM    105  OW6 MOL d           8.892  15.405  42.057  0.00  0.00    -0.398 OA
ATOM    106  H44 MOL d           8.347  15.853  41.421  0.00  0.00     0.209 HD
ENDBRANCH 102 105
ENDBRANCH  91 102
ENDBRANCH  84  85
ENDBRANCH  73  84
BRANCH  75 107
ATOM    107  CQ6 MOL d           2.055  15.508  40.139  0.00  0.00     0.043 C 
ATOM    108  H29 MOL d           1.435  15.724  39.256  0.00  0.00     0.078 H 
ATOM    109  H30 MOL d           1.871  16.271  40.910  0.00  0.00     0.078 H 
BRANCH 107 110
ATOM    110  OQ6 MOL d           1.707  14.241  40.649  0.00  0.00    -0.398 OA
ATOM    111  H33 MOL d           2.300  13.586  40.299  0.00  0.00     0.209 HD
ENDBRANCH 107 110
ENDBRANCH  75 107
ENDBRANCH  68  69
ENDBRANCH   4  68
TORSDOF 29
ENDMDL
MODEL 7
REMARK VINA RESULT:      -4.9      2.527      7.305
REMARK  29 active torsions:
REMARK  status: ('A' for Active; 'I' for Inactive)
REMARK    1  A    between atoms: CR1_1  and  OR1_7 
REMARK    2  A    between atoms: CR2_2  and  OR2_8 
REMARK    3  A    between atoms: CR3_3  and  OR3_9 
REMARK    4  A    between atoms: OR4_10  and  CR4_4 
REMARK    5  A    between atoms: CR5_5  and  CR6_6 
REMARK    6  A    between atoms: CR6_6  and  OR6_12 
REMARK    7  A    between atoms: CV1_13  and  OR4_10 
REMARK    8  A    between atoms: CV2_14  and  OV2_19 
REMARK    9  A    between atoms: CV3_15  and  OV3_20 
REMARK   10  A    between atoms: NV4_21  and  CV4_16 
REMARK   11  A    between atoms: CV5_17  and  CV6_18 
REMARK   12  A    between atoms: CY1_45  and  NV4_21 
REMARK   13  A    between atoms: OY4_51  and  CQ1_23 
REMARK   14  A    between atoms: CQ2_24  and  OQ2_29 
REMARK   15  A    between atoms: CQ3_25  and  OQ3_30 
REMARK   16  A    between atoms: CQ4_26  and  OQ4_31 
REMARK   17  A    between atoms: CQ5_27  and  CQ6_28 
REMARK   18  A    between atoms: CQ6_28  and  OQ6_33 
REMARK   19  A    between atoms: OQ4_31  and  CW1_34 
REMARK   20  A    between atoms: CW2_35  and  OW2_40 
REMARK   21  A    between atoms: CW3_36  and  OW3_41 
REMARK   22  A    between atoms: CW4_37  and  OW4_42 
REMARK   23  A    between atoms: CW5_38  and  CW6_39 
REMARK   24  A    between atoms: CW6_39  and  OW6_44 
REMARK   25  A    between atoms: CY2_46  and  OY2_47 
REMARK   26  A    between atoms: CY3_48  and  OY3_49 
REMARK   27  A    between atoms: CY4_50  and  OY4_51 
REMARK   28  A    between atoms: CY5_52  and  CY7_54 
REMARK   29  A    between atoms: CY7_54  and  OY7_55 
ROOT
ATOM      1  CY1 MOL d          11.060  15.129  34.651  0.00  0.00     0.130 C 
ATOM      2  CY2 MOL d          12.182  14.024  34.768  0.00  0.00     0.090 C 
ATOM      3  CY3 MOL d          13.002  14.231  36.118  0.00  0.00     0.087 C 
ATOM      4  CY4 MOL d          13.644  15.705  36.199  0.00  0.00     0.074 C 
ATOM      5  CY5 MOL d          12.690  16.790  35.697  0.00  0.00    -0.004 C 
ATOM      6  CY6 MOL d          11.885  16.467  34.662  0.00  0.00    -0.028 C 
ATOM      7  H45 MOL d          10.524  15.045  33.694  0.00  0.00     0.088 H 
ATOM      8  H46 MOL d          12.869  14.131  33.915  0.00  0.00     0.090 H 
ATOM      9  H48 MOL d          12.302  14.117  36.959  0.00  0.00     0.091 H 
ATOM     10  H50 MOL d          14.576  15.724  35.616  0.00  0.00     0.088 H 
ATOM     11  H51 MOL d          12.016  16.987  36.544  0.00  0.00     0.047 H 
ATOM     12  H52 MOL d          11.154  17.284  34.570  0.00  0.00     0.036 H 
ATOM     13  H53 MOL d          12.525  16.446  33.767  0.00  0.00     0.036 H 
ENDROOT
BRANCH   1  14
ATOM     14  NV4 MOL d          10.045  14.921  35.786  0.00  0.00    -0.059 N 
ATOM     15  H22 MOL d          10.156  13.969  36.100  0.00  0.00     0.278 HD
ATOM     16  H23 MOL d          10.308  15.552  36.526  0.00  0.00     0.278 HD
BRANCH  14  17
ATOM     17  CV4 MOL d           8.598  15.123  35.552  0.00  0.00     0.153 C 
ATOM     18  CV3 MOL d           7.838  13.802  35.806  0.00  0.00     0.094 C 
ATOM     19  CV2 MOL d           6.351  14.032  35.553  0.00  0.00     0.110 C 
ATOM     20  H14 MOL d           7.998  13.478  36.846  0.00  0.00     0.090 H 
ATOM     21  CV1 MOL d           5.782  15.136  36.437  0.00  0.00     0.159 C 
ATOM     22  H13 MOL d           6.235  14.336  34.502  0.00  0.00     0.094 H 
ATOM     23  OV5 MOL d           6.578  16.342  36.282  0.00  0.00    -0.351 OA
ATOM     24  H12 MOL d           4.761  15.346  36.087  0.00  0.00     0.133 H 
ATOM     25  CV5 MOL d           8.020  16.186  36.552  0.00  0.00     0.068 C 
ATOM     26  H16 MOL d           8.165  15.836  37.585  0.00  0.00     0.086 H 
ATOM     27  H15 MOL d           8.439  15.457  34.516  0.00  0.00     0.092 H 
BRANCH  18  28
ATOM     28  OV3 MOL d           8.283  12.799  34.923  0.00  0.00    -0.391 OA
ATOM     29  H21 MOL d           9.100  13.071  34.522  0.00  0.00     0.210 HD
ENDBRANCH  18  28
BRANCH  19  30
ATOM     30  OV2 MOL d           5.595  12.859  35.760  0.00  0.00    -0.388 OA
ATOM     31  H20 MOL d           5.933  12.397  36.518  0.00  0.00     0.210 HD
ENDBRANCH  19  30
BRANCH  21  32
ATOM     32  OR4 MOL d           5.702  14.806  37.784  0.00  0.00    -0.348 OA
BRANCH  32  33
ATOM     33  CR4 MOL d           4.946  15.718  38.578  0.00  0.00     0.096 C 
ATOM     34  CR3 MOL d           3.529  15.130  38.797  0.00  0.00     0.092 C 
ATOM     35  CR2 MOL d           2.720  16.107  39.658  0.00  0.00     0.110 C 
ATOM     36  H3  MOL d           3.604  14.154  39.298  0.00  0.00     0.091 H 
ATOM     37  CR1 MOL d           3.425  16.307  41.028  0.00  0.00     0.156 C 
ATOM     38  H2  MOL d           2.649  17.072  39.137  0.00  0.00     0.094 H 
ATOM     39  OR5 MOL d           4.807  16.804  40.812  0.00  0.00    -0.349 OA
ATOM     40  H1  MOL d           2.863  17.063  41.597  0.00  0.00     0.133 H 
ATOM     41  CR5 MOL d           5.645  15.910  40.004  0.00  0.00     0.089 C 
ATOM     42  H5  MOL d           5.721  14.931  40.500  0.00  0.00     0.090 H 
ATOM     43  H4  MOL d           4.876  16.688  38.065  0.00  0.00     0.091 H 
BRANCH  34  44
ATOM     44  OR3 MOL d           2.866  14.986  37.561  0.00  0.00    -0.390 OA
ATOM     45  H10 MOL d           3.136  15.683  36.975  0.00  0.00     0.210 HD
ENDBRANCH  34  44
BRANCH  35  46
ATOM     46  OR2 MOL d           1.422  15.605  39.890  0.00  0.00    -0.388 OA
ATOM     47  H9  MOL d           1.328  15.382  40.808  0.00  0.00     0.210 HD
ENDBRANCH  35  46
BRANCH  37  48
ATOM     48  OR1 MOL d           3.458  15.112  41.791  0.00  0.00    -0.369 OA
ATOM     49  H8  MOL d           4.041  14.488  41.374  0.00  0.00     0.212 HD
ENDBRANCH  37  48
BRANCH  41  50
ATOM     50  CR6 MOL d           6.961  16.470  39.885  0.00  0.00     0.043 C 
ATOM     51  H6  MOL d           6.894  17.560  40.017  0.00  0.00     0.078 H 
ATOM     52  H7  MOL d           7.350  16.244  38.881  0.00  0.00     0.078 H 
BRANCH  50  53
ATOM     53  OR6 MOL d           7.866  15.948  40.852  0.00  0.00    -0.398 OA
ATOM     54  H11 MOL d           7.659  15.037  41.019  0.00  0.00     0.209 HD
ENDBRANCH  50  53
ENDBRANCH  41  50
ENDBRANCH  32  33
ENDBRANCH  21  32
BRANCH  25  55
ATOM     55  CV6 MOL d           8.728  17.521  36.373  0.00  0.00    -0.050 C 
ATOM     56  H17 MOL d           9.288  17.765  37.288  0.00  0.00     0.031 H 
ATOM     57  H18 MOL d           7.984  18.307  36.178  0.00  0.00     0.031 H 
ATOM     58  H19 MOL d           9.424  17.456  35.524  0.00  0.00     0.031 H 
ENDBRANCH  25  55
ENDBRANCH  14  17
ENDBRANCH   1  14
BRANCH   2  59
ATOM     59  OY2 MOL d          11.636  12.746  34.738  0.00  0.00    -0.391 OA
ATOM     60  H47 MOL d          11.789  12.318  35.572  0.00  0.00     0.210 HD
ENDBRANCH   2  59
BRANCH   3  61
ATOM     61  OY3 MOL d          14.004  13.259  36.251  0.00  0.00    -0.390 OA
ATOM     62  H49 MOL d          14.804  13.670  36.557  0.00  0.00     0.210 HD
ENDBRANCH   3  61
BRANCH   5  63
ATOM     63  CY7 MOL d          13.406  18.132  35.385  0.00  0.00     0.022 C 
ATOM     64  H54 MOL d          13.361  18.782  36.272  0.00  0.00     0.074 H 
ATOM     65  H55 MOL d          12.900  18.627  34.542  0.00  0.00     0.074 H 
BRANCH  63  66
ATOM     66  OY7 MOL d          14.790  17.894  35.037  0.00  0.00    -0.400 OA
ATOM     67  H56 MOL d          15.112  18.617  34.511  0.00  0.00     0.209 HD
ENDBRANCH  63  66
ENDBRANCH   5  63
BRANCH   4  68
ATOM     68  OY4 MOL d          13.894  16.041  37.559  0.00  0.00    -0.350 OA
BRANCH  68  69
ATOM     69  CQ1 MOL d          13.600  15.027  38.493  0.00  0.00     0.159 C 
ATOM     70  CQ2 MOL d          12.204  15.276  39.108  0.00  0.00     0.110 C 
ATOM     71  CQ3 MOL d          12.205  16.451  40.132  0.00  0.00     0.092 C 
ATOM     72  H25 MOL d          11.881  14.359  39.624  0.00  0.00     0.094 H 
ATOM     73  CQ4 MOL d          13.220  16.153  41.238  0.00  0.00     0.096 C 
ATOM     74  H26 MOL d          12.480  17.390  39.629  0.00  0.00     0.091 H 
ATOM     75  CQ5 MOL d          14.628  16.076  40.506  0.00  0.00     0.089 C 
ATOM     76  H27 MOL d          12.986  15.203  41.739  0.00  0.00     0.091 H 
ATOM     77  OQ5 MOL d          14.617  15.008  39.527  0.00  0.00    -0.348 OA
ATOM     78  H28 MOL d          14.807  17.037  40.001  0.00  0.00     0.090 H 
ATOM     79  H24 MOL d          13.595  14.055  37.980  0.00  0.00     0.133 H 
BRANCH  70  80
ATOM     80  OQ2 MOL d          11.286  15.581  38.074  0.00  0.00    -0.388 OA
ATOM     81  H31 MOL d          11.062  14.785  37.607  0.00  0.00     0.210 HD
ENDBRANCH  70  80
BRANCH  71  82
ATOM     82  OQ3 MOL d          10.880  16.558  40.656  0.00  0.00    -0.390 OA
ATOM     83  H32 MOL d          10.786  15.975  41.400  0.00  0.00     0.210 HD
ENDBRANCH  71  82
BRANCH  73  84
ATOM     84  OQ4 MOL d          13.230  17.196  42.172  0.00  0.00    -0.348 OA
BRANCH  84  85
ATOM     85  CW1 MOL d          13.097  16.688  43.508  0.00  0.00     0.159 C 
ATOM     86  CW2 MOL d          11.977  15.627  43.640  0.00  0.00     0.110 C 
ATOM     87  CW3 MOL d          10.612  16.297  43.333  0.00  0.00     0.092 C 
ATOM     88  H35 MOL d          11.962  15.224  44.664  0.00  0.00     0.094 H 
ATOM     89  CW4 MOL d          10.400  17.411  44.373  0.00  0.00     0.090 C 
ATOM     90  H36 MOL d          10.609  16.716  42.316  0.00  0.00     0.091 H 
ATOM     91  CW5 MOL d          11.560  18.470  44.221  0.00  0.00     0.089 C 
ATOM     92  H37 MOL d          10.413  16.984  45.386  0.00  0.00     0.091 H 
ATOM     93  OW5 MOL d          12.830  17.796  44.440  0.00  0.00    -0.348 OA
ATOM     94  H38 MOL d          11.536  18.898  43.208  0.00  0.00     0.090 H 
ATOM     95  H34 MOL d          14.050  16.214  43.788  0.00  0.00     0.133 H 
BRANCH  86  96
ATOM     96  OW2 MOL d          12.256  14.588  42.732  0.00  0.00    -0.388 OA
ATOM     97  H41 MOL d          12.987  14.075  43.054  0.00  0.00     0.210 HD
ENDBRANCH  86  96
BRANCH  87  98
ATOM     98  OW3 MOL d           9.591  15.336  43.463  0.00  0.00    -0.390 OA
ATOM     99  H42 MOL d           8.885  15.695  43.989  0.00  0.00     0.210 HD
ENDBRANCH  87  98
BRANCH  89 100
ATOM    100  OW4 MOL d           9.154  18.046  44.135  0.00  0.00    -0.390 OA
ATOM    101  H43 MOL d           9.271  18.739  43.496  0.00  0.00     0.210 HD
ENDBRANCH  89 100
BRANCH  91 102
ATOM    102  CW6 MOL d          11.409  19.601  45.258  0.00  0.00     0.043 C 
ATOM    103  H39 MOL d          12.208  20.339  45.098  0.00  0.00     0.078 H 
ATOM    104  H40 MOL d          11.500  19.173  46.267  0.00  0.00     0.078 H 
BRANCH 102 105
ATOM    105  OW6 MOL d          10.168  20.244  45.149  0.00  0.00    -0.398 OA
ATOM    106  H44 MOL d          10.234  20.951  44.518  0.00  0.00     0.209 HD
ENDBRANCH 102 105
ENDBRANCH  91 102
ENDBRANCH  84  85
ENDBRANCH  73  84
BRANCH  75 107
ATOM    107  CQ6 MOL d          15.791  15.793  41.451  0.00  0.00     0.043 C 
ATOM    108  H29 MOL d          16.091  16.729  41.945  0.00  0.00     0.078 H 
ATOM    109  H30 MOL d          16.638  15.397  40.871  0.00  0.00     0.078 H 
BRANCH 107 110
ATOM    110  OQ6 MOL d          15.422  14.851  42.431  0.00  0.00    -0.398 OA
ATOM    111  H33 MOL d          15.266  14.010  42.018  0.00  0.00     0.209 HD
ENDBRANCH 107 110
ENDBRANCH  75 107
ENDBRANCH  68  69
ENDBRANCH   4  68
TORSDOF 29
ENDMDL
MODEL 8
REMARK VINA RESULT:      -4.9      2.679      7.847
REMARK  29 active torsions:
REMARK  status: ('A' for Active; 'I' for Inactive)
REMARK    1  A    between atoms: CR1_1  and  OR1_7 
REMARK    2  A    between atoms: CR2_2  and  OR2_8 
REMARK    3  A    between atoms: CR3_3  and  OR3_9 
REMARK    4  A    between atoms: OR4_10  and  CR4_4 
REMARK    5  A    between atoms: CR5_5  and  CR6_6 
REMARK    6  A    between atoms: CR6_6  and  OR6_12 
REMARK    7  A    between atoms: CV1_13  and  OR4_10 
REMARK    8  A    between atoms: CV2_14  and  OV2_19 
REMARK    9  A    between atoms: CV3_15  and  OV3_20 
REMARK   10  A    between atoms: NV4_21  and  CV4_16 
REMARK   11  A    between atoms: CV5_17  and  CV6_18 
REMARK   12  A    between atoms: CY1_45  and  NV4_21 
REMARK   13  A    between atoms: OY4_51  and  CQ1_23 
REMARK   14  A    between atoms: CQ2_24  and  OQ2_29 
REMARK   15  A    between atoms: CQ3_25  and  OQ3_30 
REMARK   16  A    between atoms: CQ4_26  and  OQ4_31 
REMARK   17  A    between atoms: CQ5_27  and  CQ6_28 
REMARK   18  A    between atoms: CQ6_28  and  OQ6_33 
REMARK   19  A    between atoms: OQ4_31  and  CW1_34 
REMARK   20  A    between atoms: CW2_35  and  OW2_40 
REMARK   21  A    between atoms: CW3_36  and  OW3_41 
REMARK   22  A    between atoms: CW4_37  and  OW4_42 
REMARK   23  A    between atoms: CW5_38  and  CW6_39 
REMARK   24  A    between atoms: CW6_39  and  OW6_44 
REMARK   25  A    between atoms: CY2_46  and  OY2_47 
REMARK   26  A    between atoms: CY3_48  and  OY3_49 
REMARK   27  A    between atoms: CY4_50  and  OY4_51 
REMARK   28  A    between atoms: CY5_52  and  CY7_54 
REMARK   29  A    between atoms: CY7_54  and  OY7_55 
ROOT
ATOM      1  CY1 MOL d           7.264  16.698  42.996  0.00  0.00     0.130 C 
ATOM      2  CY2 MOL d           7.082  15.158  43.292  0.00  0.00     0.090 C 
ATOM      3  CY3 MOL d           6.663  14.399  41.956  0.00  0.00     0.087 C 
ATOM      4  CY4 MOL d           5.320  15.020  41.320  0.00  0.00     0.074 C 
ATOM      5  CY5 MOL d           5.290  16.547  41.386  0.00  0.00    -0.004 C 
ATOM      6  CY6 MOL d           5.844  17.124  42.474  0.00  0.00    -0.028 C 
ATOM      7  H45 MOL d           7.490  17.252  43.919  0.00  0.00     0.088 H 
ATOM      8  H46 MOL d           6.279  15.038  44.036  0.00  0.00     0.090 H 
ATOM      9  H48 MOL d           7.476  14.526  41.226  0.00  0.00     0.091 H 
ATOM     10  H50 MOL d           4.448  14.603  41.844  0.00  0.00     0.088 H 
ATOM     11  H51 MOL d           5.902  16.878  40.534  0.00  0.00     0.047 H 
ATOM     12  H52 MOL d           5.902  18.202  42.259  0.00  0.00     0.036 H 
ATOM     13  H53 MOL d           5.143  16.955  43.306  0.00  0.00     0.036 H 
ENDROOT
BRANCH   1  14
ATOM     14  NV4 MOL d           8.448  16.876  42.032  0.00  0.00    -0.059 N 
ATOM     15  H22 MOL d           8.919  15.985  41.987  0.00  0.00     0.278 HD
ATOM     16  H23 MOL d           8.055  17.094  41.130  0.00  0.00     0.278 HD
BRANCH  14  17
ATOM     17  CV4 MOL d           9.491  17.892  42.295  0.00  0.00     0.153 C 
ATOM     18  CV3 MOL d          10.381  17.435  43.473  0.00  0.00     0.094 C 
ATOM     19  CV2 MOL d          11.443  18.500  43.731  0.00  0.00     0.110 C 
ATOM     20  H14 MOL d          10.860  16.477  43.224  0.00  0.00     0.090 H 
ATOM     21  CV1 MOL d          12.305  18.760  42.501  0.00  0.00     0.159 C 
ATOM     22  H13 MOL d          10.923  19.433  43.992  0.00  0.00     0.094 H 
ATOM     23  OV5 MOL d          11.452  19.071  41.366  0.00  0.00    -0.351 OA
ATOM     24  H12 MOL d          12.932  19.638  42.716  0.00  0.00     0.133 H 
ATOM     25  CV5 MOL d          10.429  18.057  41.047  0.00  0.00     0.068 C 
ATOM     26  H16 MOL d          10.919  17.097  40.827  0.00  0.00     0.086 H 
ATOM     27  H15 MOL d           9.012  18.853  42.534  0.00  0.00     0.092 H 
BRANCH  18  28
ATOM     28  OV3 MOL d           9.612  17.291  44.645  0.00  0.00    -0.391 OA
ATOM     29  H21 MOL d           8.919  17.941  44.649  0.00  0.00     0.210 HD
ENDBRANCH  18  28
BRANCH  19  30
ATOM     30  OV2 MOL d          12.289  18.149  44.803  0.00  0.00    -0.388 OA
ATOM     31  H20 MOL d          12.371  18.887  45.394  0.00  0.00     0.210 HD
ENDBRANCH  19  30
BRANCH  21  32
ATOM     32  OR4 MOL d          13.154  17.713  42.166  0.00  0.00    -0.348 OA
BRANCH  32  33
ATOM     33  CR4 MOL d          12.701  16.900  41.084  0.00  0.00     0.096 C 
ATOM     34  CR3 MOL d          13.522  17.254  39.818  0.00  0.00     0.092 C 
ATOM     35  CR2 MOL d          13.041  16.373  38.659  0.00  0.00     0.110 C 
ATOM     36  H3  MOL d          14.592  17.082  40.008  0.00  0.00     0.091 H 
ATOM     37  CR1 MOL d          13.245  14.876  39.019  0.00  0.00     0.156 C 
ATOM     38  H2  MOL d          11.974  16.565  38.480  0.00  0.00     0.094 H 
ATOM     39  OR5 MOL d          12.514  14.557  40.271  0.00  0.00    -0.349 OA
ATOM     40  H1  MOL d          12.829  14.266  38.203  0.00  0.00     0.133 H 
ATOM     41  CR5 MOL d          12.934  15.355  41.429  0.00  0.00     0.089 C 
ATOM     42  H5  MOL d          14.004  15.189  41.621  0.00  0.00     0.090 H 
ATOM     43  H4  MOL d          11.632  17.084  40.904  0.00  0.00     0.091 H 
BRANCH  34  44
ATOM     44  OR3 MOL d          13.308  18.601  39.461  0.00  0.00    -0.390 OA
ATOM     45  H10 MOL d          12.789  19.027  40.133  0.00  0.00     0.210 HD
ENDBRANCH  34  44
BRANCH  35  46
ATOM     46  OR2 MOL d          13.770  16.657  37.486  0.00  0.00    -0.388 OA
ATOM     47  H9  MOL d          13.344  17.362  37.012  0.00  0.00     0.210 HD
ENDBRANCH  35  46
BRANCH  37  48
ATOM     48  OR1 MOL d          14.616  14.544  39.165  0.00  0.00    -0.369 OA
ATOM     49  H8  MOL d          14.856  14.596  40.083  0.00  0.00     0.212 HD
ENDBRANCH  37  48
BRANCH  41  50
ATOM     50  CR6 MOL d          12.189  14.946  42.585  0.00  0.00     0.043 C 
ATOM     51  H6  MOL d          11.959  13.874  42.495  0.00  0.00     0.078 H 
ATOM     52  H7  MOL d          11.252  15.521  42.622  0.00  0.00     0.078 H 
BRANCH  50  53
ATOM     53  OR6 MOL d          12.903  15.158  43.798  0.00  0.00    -0.398 OA
ATOM     54  H11 MOL d          13.740  14.713  43.753  0.00  0.00     0.209 HD
ENDBRANCH  50  53
ENDBRANCH  41  50
ENDBRANCH  32  33
ENDBRANCH  21  32
BRANCH  25  55
ATOM     55  CV6 MOL d           9.624  18.497  39.834  0.00  0.00    -0.050 C 
ATOM     56  H17 MOL d           8.677  17.937  39.799  0.00  0.00     0.031 H 
ATOM     57  H18 MOL d          10.201  18.299  38.919  0.00  0.00     0.031 H 
ATOM     58  H19 MOL d           9.410  19.573  39.906  0.00  0.00     0.031 H 
ENDBRANCH  25  55
ENDBRANCH  14  17
ENDBRANCH   1  14
BRANCH   2  59
ATOM     59  OY2 MOL d           8.247  14.602  43.806  0.00  0.00    -0.391 OA
ATOM     60  H47 MOL d           8.651  14.051  43.146  0.00  0.00     0.210 HD
ENDBRANCH   2  59
BRANCH   3  61
ATOM     61  OY3 MOL d           6.498  13.026  42.189  0.00  0.00    -0.390 OA
ATOM     62  H49 MOL d           5.782  12.699  41.656  0.00  0.00     0.210 HD
ENDBRANCH   3  61
BRANCH   5  63
ATOM     63  CY7 MOL d           3.872  17.138  41.163  0.00  0.00     0.022 C 
ATOM     64  H54 MOL d           3.871  17.744  40.245  0.00  0.00     0.074 H 
ATOM     65  H55 MOL d           3.603  17.772  42.022  0.00  0.00     0.074 H 
BRANCH  63  66
ATOM     66  OY7 MOL d           2.899  16.074  41.034  0.00  0.00    -0.400 OA
ATOM     67  H56 MOL d           2.912  15.538  41.819  0.00  0.00     0.209 HD
ENDBRANCH  63  66
ENDBRANCH   5  63
BRANCH   4  68
ATOM     68  OY4 MOL d           5.266  14.713  39.932  0.00  0.00    -0.350 OA
BRANCH  68  69
ATOM     69  CQ1 MOL d           5.677  15.750  39.070  0.00  0.00     0.159 C 
ATOM     70  CQ2 MOL d           5.207  15.447  37.630  0.00  0.00     0.110 C 
ATOM     71  CQ3 MOL d           6.050  14.324  36.952  0.00  0.00     0.092 C 
ATOM     72  H25 MOL d           5.298  16.366  37.031  0.00  0.00     0.094 H 
ATOM     73  CQ4 MOL d           7.524  14.735  36.948  0.00  0.00     0.096 C 
ATOM     74  H26 MOL d           5.937  13.381  37.507  0.00  0.00     0.091 H 
ATOM     75  CQ5 MOL d           7.928  14.862  38.479  0.00  0.00     0.089 C 
ATOM     76  H27 MOL d           7.662  15.693  36.425  0.00  0.00     0.091 H 
ATOM     77  OQ5 MOL d           7.121  15.880  39.120  0.00  0.00    -0.348 OA
ATOM     78  H28 MOL d           7.751  13.891  38.964  0.00  0.00     0.090 H 
ATOM     79  H24 MOL d           5.221  16.695  39.402  0.00  0.00     0.133 H 
BRANCH  70  80
ATOM     80  OQ2 MOL d           3.852  15.038  37.657  0.00  0.00    -0.388 OA
ATOM     81  H31 MOL d           3.317  15.742  38.002  0.00  0.00     0.210 HD
ENDBRANCH  70  80
BRANCH  71  82
ATOM     82  OQ3 MOL d           5.550  14.162  35.623  0.00  0.00    -0.390 OA
ATOM     83  H32 MOL d           5.366  13.243  35.465  0.00  0.00     0.210 HD
ENDBRANCH  71  82
BRANCH  73  84
ATOM     84  OQ4 MOL d           8.296  13.741  36.337  0.00  0.00    -0.348 OA
BRANCH  84  85
ATOM     85  CW1 MOL d           8.626  14.106  34.988  0.00  0.00     0.159 C 
ATOM     86  CW2 MOL d          10.125  13.910  34.661  0.00  0.00     0.110 C 
ATOM     87  CW3 MOL d          10.963  14.869  35.547  0.00  0.00     0.092 C 
ATOM     88  H35 MOL d          10.311  14.139  33.601  0.00  0.00     0.094 H 
ATOM     89  CW4 MOL d          10.537  16.307  35.199  0.00  0.00     0.090 C 
ATOM     90  H36 MOL d          10.784  14.664  36.612  0.00  0.00     0.091 H 
ATOM     91  CW5 MOL d           9.004  16.473  35.533  0.00  0.00     0.089 C 
ATOM     92  H37 MOL d          10.711  16.501  34.131  0.00  0.00     0.091 H 
ATOM     93  OW5 MOL d           8.254  15.509  34.744  0.00  0.00    -0.348 OA
ATOM     94  H38 MOL d           8.839  16.286  36.604  0.00  0.00     0.090 H 
ATOM     95  H34 MOL d           8.042  13.464  34.310  0.00  0.00     0.133 H 
BRANCH  86  96
ATOM     96  OW2 MOL d          10.452  12.563  34.913  0.00  0.00    -0.388 OA
ATOM     97  H41 MOL d           9.862  12.213  35.570  0.00  0.00     0.210 HD
ENDBRANCH  86  96
BRANCH  87  98
ATOM     98  OW3 MOL d          12.328  14.700  35.243  0.00  0.00    -0.390 OA
ATOM     99  H42 MOL d          12.642  15.462  34.770  0.00  0.00     0.210 HD
ENDBRANCH  87  98
BRANCH  89 100
ATOM    100  OW4 MOL d          11.287  17.222  35.982  0.00  0.00    -0.390 OA
ATOM    101  H43 MOL d          10.698  17.714  36.542  0.00  0.00     0.210 HD
ENDBRANCH  89 100
BRANCH  91 102
ATOM    102  CW6 MOL d           8.518  17.894  35.182  0.00  0.00     0.043 C 
ATOM    103  H39 MOL d           8.698  18.077  34.113  0.00  0.00     0.078 H 
ATOM    104  H40 MOL d           9.085  18.622  35.780  0.00  0.00     0.078 H 
BRANCH 102 105
ATOM    105  OW6 MOL d           7.151  18.056  35.447  0.00  0.00    -0.398 OA
ATOM    106  H44 MOL d           6.870  17.398  36.072  0.00  0.00     0.209 HD
ENDBRANCH 102 105
ENDBRANCH  91 102
ENDBRANCH  84  85
ENDBRANCH  73  84
BRANCH  75 107
ATOM    107  CQ6 MOL d           9.385  15.260  38.693  0.00  0.00     0.043 C 
ATOM    108  H29 MOL d           9.490  16.344  38.536  0.00  0.00     0.078 H 
ATOM    109  H30 MOL d          10.016  14.722  37.970  0.00  0.00     0.078 H 
BRANCH 107 110
ATOM    110  OQ6 MOL d           9.805  14.940  40.000  0.00  0.00    -0.398 OA
ATOM    111  H33 MOL d          10.356  15.638  40.334  0.00  0.00     0.209 HD
ENDBRANCH 107 110
ENDBRANCH  75 107
ENDBRANCH  68  69
ENDBRANCH   4  68
TORSDOF 29
ENDMDL
MODEL 9
REMARK VINA RESULT:      -4.7      2.507      9.514
REMARK  29 active torsions:
REMARK  status: ('A' for Active; 'I' for Inactive)
REMARK    1  A    between atoms: CR1_1  and  OR1_7 
REMARK    2  A    between atoms: CR2_2  and  OR2_8 
REMARK    3  A    between atoms: CR3_3  and  OR3_9 
REMARK    4  A    between atoms: OR4_10  and  CR4_4 
REMARK    5  A    between atoms: CR5_5  and  CR6_6 
REMARK    6  A    between atoms: CR6_6  and  OR6_12 
REMARK    7  A    between atoms: CV1_13  and  OR4_10 
REMARK    8  A    between atoms: CV2_14  and  OV2_19 
REMARK    9  A    between atoms: CV3_15  and  OV3_20 
REMARK   10  A    between atoms: NV4_21  and  CV4_16 
REMARK   11  A    between atoms: CV5_17  and  CV6_18 
REMARK   12  A    between atoms: CY1_45  and  NV4_21 
REMARK   13  A    between atoms: OY4_51  and  CQ1_23 
REMARK   14  A    between atoms: CQ2_24  and  OQ2_29 
REMARK   15  A    between atoms: CQ3_25  and  OQ3_30 
REMARK   16  A    between atoms: CQ4_26  and  OQ4_31 
REMARK   17  A    between atoms: CQ5_27  and  CQ6_28 
REMARK   18  A    between atoms: CQ6_28  and  OQ6_33 
REMARK   19  A    between atoms: OQ4_31  and  CW1_34 
REMARK   20  A    between atoms: CW2_35  and  OW2_40 
REMARK   21  A    between atoms: CW3_36  and  OW3_41 
REMARK   22  A    between atoms: CW4_37  and  OW4_42 
REMARK   23  A    between atoms: CW5_38  and  CW6_39 
REMARK   24  A    between atoms: CW6_39  and  OW6_44 
REMARK   25  A    between atoms: CY2_46  and  OY2_47 
REMARK   26  A    between atoms: CY3_48  and  OY3_49 
REMARK   27  A    between atoms: CY4_50  and  OY4_51 
REMARK   28  A    between atoms: CY5_52  and  CY7_54 
REMARK   29  A    between atoms: CY7_54  and  OY7_55 
ROOT
ATOM      1  CY1 MOL d           6.416  15.504  35.186  0.00  0.00     0.130 C 
ATOM      2  CY2 MOL d           6.045  17.039  35.193  0.00  0.00     0.090 C 
ATOM      3  CY3 MOL d           5.744  17.513  36.684  0.00  0.00     0.087 C 
ATOM      4  CY4 MOL d           4.570  16.640  37.355  0.00  0.00     0.074 C 
ATOM      5  CY5 MOL d           4.680  15.151  37.022  0.00  0.00    -0.004 C 
ATOM      6  CY6 MOL d           5.131  14.831  35.790  0.00  0.00    -0.028 C 
ATOM      7  H45 MOL d           6.565  15.140  34.159  0.00  0.00     0.088 H 
ATOM      8  H46 MOL d           5.140  17.183  34.585  0.00  0.00     0.090 H 
ATOM      9  H48 MOL d           6.659  17.366  37.276  0.00  0.00     0.091 H 
ATOM     10  H50 MOL d           3.597  17.029  37.022  0.00  0.00     0.088 H 
ATOM     11  H51 MOL d           5.433  14.761  37.723  0.00  0.00     0.047 H 
ATOM     12  H52 MOL d           5.323  13.748  35.801  0.00  0.00     0.036 H 
ATOM     13  H53 MOL d           4.308  15.049  35.092  0.00  0.00     0.036 H 
ENDROOT
BRANCH   1  14
ATOM     14  NV4 MOL d           7.734  15.314  35.954  0.00  0.00    -0.059 N 
ATOM     15  H22 MOL d           7.787  16.064  36.627  0.00  0.00     0.278 HD
ATOM     16  H23 MOL d           7.662  14.433  36.438  0.00  0.00     0.278 HD
BRANCH  14  17
ATOM     17  CV4 MOL d           9.030  15.298  35.239  0.00  0.00     0.153 C 
ATOM     18  CV3 MOL d           9.989  16.331  35.871  0.00  0.00     0.094 C 
ATOM     19  CV2 MOL d          11.314  16.301  35.115  0.00  0.00     0.110 C 
ATOM     20  H14 MOL d          10.154  16.082  36.930  0.00  0.00     0.090 H 
ATOM     21  CV1 MOL d          11.955  14.918  35.134  0.00  0.00     0.159 C 
ATOM     22  H13 MOL d          11.106  16.571  34.068  0.00  0.00     0.094 H 
ATOM     23  OV5 MOL d          11.002  13.933  34.651  0.00  0.00    -0.351 OA
ATOM     24  H12 MOL d          12.812  14.941  34.444  0.00  0.00     0.133 H 
ATOM     25  CV5 MOL d           9.716  13.892  35.371  0.00  0.00     0.068 C 
ATOM     26  H16 MOL d           9.896  13.670  36.434  0.00  0.00     0.086 H 
ATOM     27  H15 MOL d           8.864  15.536  34.178  0.00  0.00     0.092 H 
BRANCH  18  28
ATOM     28  OV3 MOL d           9.454  17.630  35.767  0.00  0.00    -0.391 OA
ATOM     29  H21 MOL d          10.152  18.267  35.864  0.00  0.00     0.210 HD
ENDBRANCH  18  28
BRANCH  19  30
ATOM     30  OV2 MOL d          12.238  17.230  35.637  0.00  0.00    -0.388 OA
ATOM     31  H20 MOL d          13.114  16.866  35.584  0.00  0.00     0.210 HD
ENDBRANCH  19  30
BRANCH  21  32
ATOM     32  OR4 MOL d          12.432  14.526  36.379  0.00  0.00    -0.348 OA
BRANCH  32  33
ATOM     33  CR4 MOL d          13.575  15.248  36.835  0.00  0.00     0.096 C 
ATOM     34  CR3 MOL d          13.309  15.737  38.281  0.00  0.00     0.092 C 
ATOM     35  CR2 MOL d          14.542  16.505  38.774  0.00  0.00     0.110 C 
ATOM     36  H3  MOL d          13.111  14.875  38.935  0.00  0.00     0.091 H 
ATOM     37  CR1 MOL d          15.784  15.573  38.752  0.00  0.00     0.156 C 
ATOM     38  H2  MOL d          14.717  17.366  38.113  0.00  0.00     0.094 H 
ATOM     39  OR5 MOL d          15.994  15.050  37.378  0.00  0.00    -0.349 OA
ATOM     40  H1  MOL d          16.664  16.166  39.042  0.00  0.00     0.133 H 
ATOM     41  CR5 MOL d          14.856  14.291  36.846  0.00  0.00     0.089 C 
ATOM     42  H5  MOL d          14.653  13.429  37.499  0.00  0.00     0.090 H 
ATOM     43  H4  MOL d          13.759  16.108  36.174  0.00  0.00     0.091 H 
BRANCH  34  44
ATOM     44  OR3 MOL d          12.209  16.618  38.302  0.00  0.00    -0.390 OA
ATOM     45  H10 MOL d          12.467  17.437  38.708  0.00  0.00     0.210 HD
ENDBRANCH  34  44
BRANCH  35  46
ATOM     46  OR2 MOL d          14.346  16.962  40.094  0.00  0.00    -0.388 OA
ATOM     47  H9  MOL d          15.013  16.591  40.659  0.00  0.00     0.210 HD
ENDBRANCH  35  46
BRANCH  37  48
ATOM     48  OR1 MOL d          15.657  14.493  39.662  0.00  0.00    -0.369 OA
ATOM     49  H8  MOL d          16.519  14.238  39.971  0.00  0.00     0.212 HD
ENDBRANCH  37  48
BRANCH  41  50
ATOM     50  CR6 MOL d          15.177  13.809  35.533  0.00  0.00     0.043 C 
ATOM     51  H6  MOL d          14.448  14.220  34.819  0.00  0.00     0.078 H 
ATOM     52  H7  MOL d          15.111  12.712  35.535  0.00  0.00     0.078 H 
BRANCH  50  53
ATOM     53  OR6 MOL d          16.484  14.187  35.117  0.00  0.00    -0.398 OA
ATOM     54  H11 MOL d          16.423  14.735  34.344  0.00  0.00     0.209 HD
ENDBRANCH  50  53
ENDBRANCH  41  50
ENDBRANCH  32  33
ENDBRANCH  21  32
BRANCH  25  55
ATOM     55  CV6 MOL d           8.825  12.810  34.779  0.00  0.00    -0.050 C 
ATOM     56  H17 MOL d           8.556  12.086  35.563  0.00  0.00     0.031 H 
ATOM     57  H18 MOL d           9.364  12.293  33.971  0.00  0.00     0.031 H 
ATOM     58  H19 MOL d           7.911  13.269  34.374  0.00  0.00     0.031 H 
ENDBRANCH  25  55
ENDBRANCH  14  17
ENDBRANCH   1  14
BRANCH   2  59
ATOM     59  OY2 MOL d           7.068  17.807  34.651  0.00  0.00    -0.391 OA
ATOM     60  H47 MOL d           6.701  18.594  34.264  0.00  0.00     0.210 HD
ENDBRANCH   2  59
BRANCH   3  61
ATOM     61  OY3 MOL d           5.415  18.876  36.721  0.00  0.00    -0.390 OA
ATOM     62  H49 MOL d           6.022  19.331  37.292  0.00  0.00     0.210 HD
ENDBRANCH   3  61
BRANCH   5  63
ATOM     63  CY7 MOL d           3.370  14.366  37.305  0.00  0.00     0.022 C 
ATOM     64  H54 MOL d           3.004  14.621  38.310  0.00  0.00     0.074 H 
ATOM     65  H55 MOL d           3.575  13.286  37.252  0.00  0.00     0.074 H 
BRANCH  63  66
ATOM     66  OY7 MOL d           2.359  14.708  36.327  0.00  0.00    -0.400 OA
ATOM     67  H56 MOL d           2.773  15.110  35.572  0.00  0.00     0.209 HD
ENDBRANCH  63  66
ENDBRANCH   5  63
BRANCH   4  68
ATOM     68  OY4 MOL d           4.679  16.706  38.773  0.00  0.00    -0.350 OA
BRANCH  68  69
ATOM     69  CQ1 MOL d           4.741  15.460  39.430  0.00  0.00     0.159 C 
ATOM     70  CQ2 MOL d           4.860  15.681  40.954  0.00  0.00     0.110 C 
ATOM     71  CQ3 MOL d           6.281  16.164  41.377  0.00  0.00     0.092 C 
ATOM     72  H25 MOL d           4.644  14.730  41.464  0.00  0.00     0.094 H 
ATOM     73  CQ4 MOL d           7.318  15.139  40.912  0.00  0.00     0.096 C 
ATOM     74  H26 MOL d           6.501  17.138  40.916  0.00  0.00     0.091 H 
ATOM     75  CQ5 MOL d           7.206  15.117  39.328  0.00  0.00     0.089 C 
ATOM     76  H27 MOL d           7.104  14.146  41.335  0.00  0.00     0.091 H 
ATOM     77  OQ5 MOL d           5.875  14.704  38.933  0.00  0.00    -0.348 OA
ATOM     78  H28 MOL d           7.404  16.132  38.955  0.00  0.00     0.090 H 
ATOM     79  H24 MOL d           3.818  14.898  39.222  0.00  0.00     0.133 H 
BRANCH  70  80
ATOM     80  OQ2 MOL d           3.916  16.655  41.360  0.00  0.00    -0.388 OA
ATOM     81  H31 MOL d           4.055  17.454  40.865  0.00  0.00     0.210 HD
ENDBRANCH  70  80
BRANCH  71  82
ATOM     82  OQ3 MOL d           6.278  16.295  42.800  0.00  0.00    -0.390 OA
ATOM     83  H32 MOL d           6.618  15.498  43.191  0.00  0.00     0.210 HD
ENDBRANCH  71  82
BRANCH  73  84
ATOM     84  OQ4 MOL d           8.601  15.551  41.290  0.00  0.00    -0.348 OA
BRANCH  84  85
ATOM     85  CW1 MOL d           8.556  16.829  41.943  0.00  0.00     0.159 C 
ATOM     86  CW2 MOL d           9.359  17.918  41.191  0.00  0.00     0.110 C 
ATOM     87  CW3 MOL d          10.860  17.525  41.190  0.00  0.00     0.092 C 
ATOM     88  H35 MOL d           9.239  18.888  41.695  0.00  0.00     0.094 H 
ATOM     89  CW4 MOL d          11.320  17.458  42.657  0.00  0.00     0.090 C 
ATOM     90  H36 MOL d          11.003  16.551  40.699  0.00  0.00     0.091 H 
ATOM     91  CW5 MOL d          10.478  16.349  43.399  0.00  0.00     0.089 C 
ATOM     92  H37 MOL d          11.167  18.432  43.142  0.00  0.00     0.091 H 
ATOM     93  OW5 MOL d           9.071  16.707  43.317  0.00  0.00    -0.348 OA
ATOM     94  H38 MOL d          10.644  15.376  42.913  0.00  0.00     0.090 H 
ATOM     95  H34 MOL d           7.505  17.151  41.988  0.00  0.00     0.133 H 
BRANCH  86  96
ATOM     96  OW2 MOL d           8.851  18.004  39.881  0.00  0.00    -0.388 OA
ATOM     97  H41 MOL d           8.133  18.626  39.861  0.00  0.00     0.210 HD
ENDBRANCH  86  96
BRANCH  87  98
ATOM     98  OW3 MOL d          11.594  18.520  40.516  0.00  0.00    -0.390 OA
ATOM     99  H42 MOL d          11.816  18.212  39.644  0.00  0.00     0.210 HD
ENDBRANCH  87  98
BRANCH  89 100
ATOM    100  OW4 MOL d          12.695  17.110  42.704  0.00  0.00    -0.390 OA
ATOM    101  H43 MOL d          13.219  17.901  42.737  0.00  0.00     0.210 HD
ENDBRANCH  89 100
BRANCH  91 102
ATOM    102  CW6 MOL d          10.884  16.254  44.884  0.00  0.00     0.043 C 
ATOM    103  H39 MOL d          11.828  16.800  45.030  0.00  0.00     0.078 H 
ATOM    104  H40 MOL d          11.028  15.196  45.147  0.00  0.00     0.078 H 
BRANCH 102 105
ATOM    105  OW6 MOL d           9.907  16.803  45.727  0.00  0.00    -0.398 OA
ATOM    106  H44 MOL d           9.353  17.390  45.227  0.00  0.00     0.209 HD
ENDBRANCH 102 105
ENDBRANCH  91 102
ENDBRANCH  84  85
ENDBRANCH  73  84
BRANCH  75 107
ATOM    107  CQ6 MOL d           8.180  14.150  38.662  0.00  0.00     0.043 C 
ATOM    108  H29 MOL d           8.907  13.798  39.409  0.00  0.00     0.078 H 
ATOM    109  H30 MOL d           8.710  14.673  37.852  0.00  0.00     0.078 H 
BRANCH 107 110
ATOM    110  OQ6 MOL d           7.495  13.041  38.126  0.00  0.00    -0.398 OA
ATOM    111  H33 MOL d           7.182  13.255  37.254  0.00  0.00     0.209 HD
ENDBRANCH 107 110
ENDBRANCH  75 107
ENDBRANCH  68  69
ENDBRANCH   4  68
TORSDOF 29
ENDMDL
MODEL 10
REMARK VINA RESULT:      -4.6      2.287      9.083
REMARK  29 active torsions:
REMARK  status: ('A' for Active; 'I' for Inactive)
REMARK    1  A    between atoms: CR1_1  and  OR1_7 
REMARK    2  A    between atoms: CR2_2  and  OR2_8 
REMARK    3  A    between atoms: CR3_3  and  OR3_9 
REMARK    4  A    between atoms: OR4_10  and  CR4_4 
REMARK    5  A    between atoms: CR5_5  and  CR6_6 
REMARK    6  A    between atoms: CR6_6  and  OR6_12 
REMARK    7  A    between atoms: CV1_13  and  OR4_10 
REMARK    8  A    between atoms: CV2_14  and  OV2_19 
REMARK    9  A    between atoms: CV3_15  and  OV3_20 
REMARK   10  A    between atoms: NV4_21  and  CV4_16 
REMARK   11  A    between atoms: CV5_17  and  CV6_18 
REMARK   12  A    between atoms: CY1_45  and  NV4_21 
REMARK   13  A    between atoms: OY4_51  and  CQ1_23 
REMARK   14  A    between atoms: CQ2_24  and  OQ2_29 
REMARK   15  A    between atoms: CQ3_25  and  OQ3_30 
REMARK   16  A    between atoms: CQ4_26  and  OQ4_31 
REMARK   17  A    between atoms: CQ5_27  and  CQ6_28 
REMARK   18  A    between atoms: CQ6_28  and  OQ6_33 
REMARK   19  A    between atoms: OQ4_31  and  CW1_34 
REMARK   20  A    between atoms: CW2_35  and  OW2_40 
REMARK   21  A    between atoms: CW3_36  and  OW3_41 
REMARK   22  A    between atoms: CW4_37  and  OW4_42 
REMARK   23  A    between atoms: CW5_38  and  CW6_39 
REMARK   24  A    between atoms: CW6_39  and  OW6_44 
REMARK   25  A    between atoms: CY2_46  and  OY2_47 
REMARK   26  A    between atoms: CY3_48  and  OY3_49 
REMARK   27  A    between atoms: CY4_50  and  OY4_51 
REMARK   28  A    between atoms: CY5_52  and  CY7_54 
REMARK   29  A    between atoms: CY7_54  and  OY7_55 
ROOT
ATOM      1  CY1 MOL d           6.675  14.799  36.943  0.00  0.00     0.130 C 
ATOM      2  CY2 MOL d           6.611  16.373  37.038  0.00  0.00     0.090 C 
ATOM      3  CY3 MOL d           6.655  16.823  38.566  0.00  0.00     0.087 C 
ATOM      4  CY4 MOL d           5.462  16.152  39.413  0.00  0.00     0.074 C 
ATOM      5  CY5 MOL d           5.229  14.686  39.042  0.00  0.00    -0.004 C 
ATOM      6  CY6 MOL d           5.402  14.348  37.746  0.00  0.00    -0.028 C 
ATOM      7  H45 MOL d           6.581  14.464  35.900  0.00  0.00     0.088 H 
ATOM      8  H46 MOL d           5.662  16.712  36.595  0.00  0.00     0.090 H 
ATOM      9  H48 MOL d           7.610  16.481  38.991  0.00  0.00     0.091 H 
ATOM     10  H50 MOL d           4.540  16.730  39.257  0.00  0.00     0.088 H 
ATOM     11  H51 MOL d           5.998  14.130  39.597  0.00  0.00     0.047 H 
ATOM     12  H52 MOL d           5.383  13.248  37.707  0.00  0.00     0.036 H 
ATOM     13  H53 MOL d           4.533  14.749  37.203  0.00  0.00     0.036 H 
ENDROOT
BRANCH   1  14
ATOM     14  NV4 MOL d           8.041  14.331  37.472  0.00  0.00    -0.059 N 
ATOM     15  H22 MOL d           7.952  14.259  38.473  0.00  0.00     0.278 HD
ATOM     16  H23 MOL d           8.203  13.416  37.082  0.00  0.00     0.278 HD
BRANCH  14  17
ATOM     17  CV4 MOL d           9.263  15.124  37.212  0.00  0.00     0.153 C 
ATOM     18  CV3 MOL d          10.255  14.955  38.386  0.00  0.00     0.094 C 
ATOM     19  CV2 MOL d          11.503  15.785  38.099  0.00  0.00     0.110 C 
ATOM     20  H14 MOL d          10.523  13.894  38.492  0.00  0.00     0.090 H 
ATOM     21  CV1 MOL d          12.174  15.381  36.792  0.00  0.00     0.159 C 
ATOM     22  H13 MOL d          11.192  16.838  38.017  0.00  0.00     0.094 H 
ATOM     23  OV5 MOL d          11.202  15.425  35.712  0.00  0.00    -0.351 OA
ATOM     24  H12 MOL d          12.961  16.120  36.582  0.00  0.00     0.133 H 
ATOM     25  CV5 MOL d           9.990  14.609  35.919  0.00  0.00     0.068 C 
ATOM     26  H16 MOL d          10.274  13.555  36.052  0.00  0.00     0.086 H 
ATOM     27  H15 MOL d           8.993  16.184  37.094  0.00  0.00     0.092 H 
BRANCH  18  28
ATOM     28  OV3 MOL d           9.683  15.423  39.585  0.00  0.00    -0.391 OA
ATOM     29  H21 MOL d          10.279  16.035  40.000  0.00  0.00     0.210 HD
ENDBRANCH  18  28
BRANCH  19  30
ATOM     30  OV2 MOL d          12.451  15.684  39.138  0.00  0.00    -0.388 OA
ATOM     31  H20 MOL d          13.306  15.503  38.768  0.00  0.00     0.210 HD
ENDBRANCH  19  30
BRANCH  21  32
ATOM     32  OR4 MOL d          12.774  14.128  36.821  0.00  0.00    -0.348 OA
BRANCH  32  33
ATOM     33  CR4 MOL d          14.105  14.092  36.308  0.00  0.00     0.096 C 
ATOM     34  CR3 MOL d          15.085  14.482  37.444  0.00  0.00     0.092 C 
ATOM     35  CR2 MOL d          16.516  14.434  36.895  0.00  0.00     0.110 C 
ATOM     36  H3  MOL d          14.977  13.782  38.286  0.00  0.00     0.091 H 
ATOM     37  CR1 MOL d          16.837  13.000  36.391  0.00  0.00     0.156 C 
ATOM     38  H2  MOL d          16.606  15.145  36.061  0.00  0.00     0.094 H 
ATOM     39  OR5 MOL d          15.853  12.602  35.353  0.00  0.00    -0.349 OA
ATOM     40  H1  MOL d          17.840  13.010  35.940  0.00  0.00     0.133 H 
ATOM     41  CR5 MOL d          14.459  12.612  35.813  0.00  0.00     0.089 C 
ATOM     42  H5  MOL d          14.347  11.916  36.658  0.00  0.00     0.090 H 
ATOM     43  H4  MOL d          14.199  14.797  35.470  0.00  0.00     0.091 H 
BRANCH  34  44
ATOM     44  OR3 MOL d          14.828  15.799  37.877  0.00  0.00    -0.390 OA
ATOM     45  H10 MOL d          15.628  16.181  38.216  0.00  0.00     0.210 HD
ENDBRANCH  34  44
BRANCH  35  46
ATOM     46  OR2 MOL d          17.444  14.775  37.901  0.00  0.00    -0.388 OA
ATOM     47  H9  MOL d          18.165  14.156  37.888  0.00  0.00     0.210 HD
ENDBRANCH  35  46
BRANCH  37  48
ATOM     48  OR1 MOL d          16.833  12.051  37.444  0.00  0.00    -0.369 OA
ATOM     49  H8  MOL d          16.791  11.175  37.079  0.00  0.00     0.212 HD
ENDBRANCH  37  48
BRANCH  41  50
ATOM     50  CR6 MOL d          13.601  12.185  34.746  0.00  0.00     0.043 C 
ATOM     51  H6  MOL d          14.122  12.344  33.789  0.00  0.00     0.078 H 
ATOM     52  H7  MOL d          12.683  12.789  34.769  0.00  0.00     0.078 H 
BRANCH  50  53
ATOM     53  OR6 MOL d          13.246  10.811  34.847  0.00  0.00    -0.398 OA
ATOM     54  H11 MOL d          13.857  10.369  35.424  0.00  0.00     0.209 HD
ENDBRANCH  50  53
ENDBRANCH  41  50
ENDBRANCH  32  33
ENDBRANCH  21  32
BRANCH  25  55
ATOM     55  CV6 MOL d           9.072  14.731  34.712  0.00  0.00    -0.050 C 
ATOM     56  H17 MOL d           9.085  15.768  34.344  0.00  0.00     0.031 H 
ATOM     57  H18 MOL d           8.047  14.458  35.002  0.00  0.00     0.031 H 
ATOM     58  H19 MOL d           9.420  14.056  33.916  0.00  0.00     0.031 H 
ENDBRANCH  25  55
ENDBRANCH  14  17
ENDBRANCH   1  14
BRANCH   2  59
ATOM     59  OY2 MOL d           7.658  16.964  36.341  0.00  0.00    -0.391 OA
ATOM     60  H47 MOL d           8.468  16.511  36.545  0.00  0.00     0.210 HD
ENDBRANCH   2  59
BRANCH   3  61
ATOM     61  OY3 MOL d           6.603  18.220  38.680  0.00  0.00    -0.390 OA
ATOM     62  H49 MOL d           5.806  18.470  39.132  0.00  0.00     0.210 HD
ENDBRANCH   3  61
BRANCH   5  63
ATOM     63  CY7 MOL d           3.858  14.145  39.531  0.00  0.00     0.022 C 
ATOM     64  H54 MOL d           3.740  13.104  39.199  0.00  0.00     0.074 H 
ATOM     65  H55 MOL d           3.052  14.760  39.104  0.00  0.00     0.074 H 
BRANCH  63  66
ATOM     66  OY7 MOL d           3.783  14.198  40.975  0.00  0.00    -0.400 OA
ATOM     67  H56 MOL d           3.399  15.025  41.242  0.00  0.00     0.209 HD
ENDBRANCH  63  66
ENDBRANCH   5  63
BRANCH   4  68
ATOM     68  OY4 MOL d           5.813  16.128  40.792  0.00  0.00    -0.350 OA
BRANCH  68  69
ATOM     69  CQ1 MOL d           6.996  15.427  41.100  0.00  0.00     0.159 C 
ATOM     70  CQ2 MOL d           7.059  15.151  42.618  0.00  0.00     0.110 C 
ATOM     71  CQ3 MOL d           7.402  16.429  43.443  0.00  0.00     0.092 C 
ATOM     72  H25 MOL d           7.833  14.392  42.805  0.00  0.00     0.094 H 
ATOM     73  CQ4 MOL d           8.738  16.995  42.957  0.00  0.00     0.096 C 
ATOM     74  H26 MOL d           6.616  17.187  43.309  0.00  0.00     0.091 H 
ATOM     75  CQ5 MOL d           8.502  17.384  41.435  0.00  0.00     0.089 C 
ATOM     76  H27 MOL d           9.538  16.246  43.051  0.00  0.00     0.091 H 
ATOM     77  OQ5 MOL d           8.146  16.204  40.674  0.00  0.00    -0.348 OA
ATOM     78  H28 MOL d           7.680  18.114  41.390  0.00  0.00     0.090 H 
ATOM     79  H24 MOL d           6.996  14.467  40.563  0.00  0.00     0.133 H 
BRANCH  70  80
ATOM     80  OQ2 MOL d           5.805  14.659  43.055  0.00  0.00    -0.388 OA
ATOM     81  H31 MOL d           5.882  13.733  43.253  0.00  0.00     0.210 HD
ENDBRANCH  70  80
BRANCH  71  82
ATOM     82  OQ3 MOL d           7.468  16.042  44.817  0.00  0.00    -0.390 OA
ATOM     83  H32 MOL d           8.376  15.914  45.066  0.00  0.00     0.210 HD
ENDBRANCH  71  82
BRANCH  73  84
ATOM     84  OQ4 MOL d           9.067  18.140  43.691  0.00  0.00    -0.348 OA
BRANCH  84  85
ATOM     85  CW1 MOL d          10.043  17.839  44.701  0.00  0.00     0.159 C 
ATOM     86  CW2 MOL d          11.099  18.957  44.870  0.00  0.00     0.110 C 
ATOM     87  CW3 MOL d          11.914  19.082  43.556  0.00  0.00     0.092 C 
ATOM     88  H35 MOL d          11.780  18.707  45.697  0.00  0.00     0.094 H 
ATOM     89  CW4 MOL d          12.616  17.733  43.319  0.00  0.00     0.090 C 
ATOM     90  H36 MOL d          11.250  19.322  42.713  0.00  0.00     0.091 H 
ATOM     91  CW5 MOL d          11.516  16.613  43.161  0.00  0.00     0.089 C 
ATOM     92  H37 MOL d          13.271  17.498  44.170  0.00  0.00     0.091 H 
ATOM     93  OW5 MOL d          10.722  16.573  44.378  0.00  0.00    -0.348 OA
ATOM     94  H38 MOL d          10.871  16.851  42.302  0.00  0.00     0.090 H 
ATOM     95  H34 MOL d           9.515  17.721  45.659  0.00  0.00     0.133 H 
BRANCH  86  96
ATOM     96  OW2 MOL d          10.420  20.154  45.168  0.00  0.00    -0.388 OA
ATOM     97  H41 MOL d          10.918  20.648  45.808  0.00  0.00     0.210 HD
ENDBRANCH  86  96
BRANCH  87  98
ATOM     98  OW3 MOL d          12.884  20.091  43.712  0.00  0.00    -0.390 OA
ATOM     99  H42 MOL d          12.952  20.324  44.631  0.00  0.00     0.210 HD
ENDBRANCH  87  98
BRANCH  89 100
ATOM    100  OW4 MOL d          13.384  17.805  42.128  0.00  0.00    -0.390 OA
ATOM    101  H43 MOL d          12.843  17.551  41.389  0.00  0.00     0.210 HD
ENDBRANCH  89 100
BRANCH  91 102
ATOM    102  CW6 MOL d          12.168  15.232  42.942  0.00  0.00     0.043 C 
ATOM    103  H39 MOL d          12.340  15.086  41.866  0.00  0.00     0.078 H 
ATOM    104  H40 MOL d          11.485  14.454  43.314  0.00  0.00     0.078 H 
BRANCH 102 105
ATOM    105  OW6 MOL d          13.391  15.122  43.617  0.00  0.00    -0.398 OA
ATOM    106  H44 MOL d          13.972  14.553  43.125  0.00  0.00     0.209 HD
ENDBRANCH 102 105
ENDBRANCH  91 102
ENDBRANCH  84  85
ENDBRANCH  73  84
BRANCH  75 107
ATOM    107  CQ6 MOL d           9.731  17.985  40.762  0.00  0.00     0.043 C 
ATOM    108  H29 MOL d          10.425  17.176  40.489  0.00  0.00     0.078 H 
ATOM    109  H30 MOL d          10.226  18.672  41.464  0.00  0.00     0.078 H 
BRANCH 107 110
ATOM    110  OQ6 MOL d           9.368  18.695  39.599  0.00  0.00    -0.398 OA
ATOM    111  H33 MOL d           9.531  18.153  38.836  0.00  0.00     0.209 HD
ENDBRANCH 107 110
ENDBRANCH  75 107
ENDBRANCH  68  69
ENDBRANCH   4  68
TORSDOF 29
ENDMDL
