MODEL 1
REMARK VINA RESULT:      -9.9      0.000      0.000
REMARK  4 active torsions:
REMARK  status: ('A' for Active; 'I' for Inactive)
REMARK    1  A    between atoms: C15_2  and  C16_23 
REMARK    2  A    between atoms: C04_13  and  C02_11 
REMARK    3  A    between atoms: N08_17  and  C07_16 
REMARK    4  A    between atoms: C09_18  and  N08_17 
ROOT
ATOM      1  C13 ZZL d           0.087  -8.731  -4.583  0.00  0.00     0.043 C 
ATOM      2  C15 ZZL d           1.577 -10.638  -4.374  0.00  0.00     0.079 C 
ATOM      3  C24 ZZL d           2.899  -9.989  -4.700  0.00  0.00     0.007 A 
ATOM      4  C26 ZZL d           5.068 -10.072  -5.715  0.00  0.00     0.035 A 
ATOM      5  C28 ZZL d           5.343  -8.776  -5.234  0.00  0.00    -0.061 A 
ATOM      6  C09 ZZL d           2.123  -6.130  -1.962  0.00  0.00     0.727 A 
ATOM      7  N10 ZZL d           0.740  -6.107  -2.048  0.00  0.00    -0.074 NA
ATOM      8  C11 ZZL d           0.116  -6.960  -2.894  0.00  0.00     0.031 A 
ATOM      9  C12 ZZL d           0.866  -7.823  -3.622  0.00  0.00     0.010 A 
ATOM     10  N14 ZZL d           0.428 -10.110  -4.349  0.00  0.00    -0.283 NA
ATOM     11  C25 ZZL d           3.840 -10.684  -5.439  0.00  0.00    -0.049 A 
ATOM     12 CL1  ZZL d           6.235 -10.960  -6.727  0.00  0.00    -0.084 Cl
ATOM     13  C29 ZZL d           4.390  -8.082  -4.482  0.00  0.00    -0.068 A 
ATOM     14  C30 ZZL d           3.166  -8.702  -4.214  0.00  0.00     0.007 A 
ATOM     15  C31 ZZL d           2.269  -7.852  -3.522  0.00  0.00     0.096 A 
ATOM     16  N32 ZZL d           2.895  -7.013  -2.718  0.00  0.00    -0.061 NA
ATOM     17  H1  ZZL d           0.339  -8.464  -5.619  0.00  0.00     0.074 H 
ATOM     18  H2  ZZL d          -0.993  -8.590  -4.420  0.00  0.00     0.074 H 
ATOM     19  H5  ZZL d           6.300  -8.315  -5.449  0.00  0.00     0.086 H 
ATOM     20  H9  ZZL d          -0.964  -6.953  -2.986  0.00  0.00     0.116 H 
ATOM     21  H11 ZZL d           3.630 -11.684  -5.799  0.00  0.00     0.087 H 
ATOM     22  H12 ZZL d           4.597  -7.084  -4.113  0.00  0.00     0.085 H 
ENDROOT
BRANCH   6  23
ATOM     23  N08 ZZL d           2.789  -5.185  -1.110  0.00  0.00    -0.188 N 
ATOM     24  H8  ZZL d           2.134  -4.507  -0.695  0.00  0.00     0.184 HD
BRANCH  23  25
ATOM     25  C07 ZZL d           4.149  -4.953  -0.694  0.00  0.00     0.049 A 
ATOM     26  C06 ZZL d           5.182  -5.305  -1.575  0.00  0.00    -0.056 A 
ATOM     27  C05 ZZL d           6.501  -4.990  -1.248  0.00  0.00    -0.064 A 
ATOM     28  H7  ZZL d           4.956  -5.818  -2.503  0.00  0.00     0.087 H 
ATOM     29  C04 ZZL d           6.762  -4.330  -0.043  0.00  0.00     0.041 A 
ATOM     30  H6  ZZL d           7.311  -5.252  -1.917  0.00  0.00     0.085 H 
ATOM     31  C34 ZZL d           5.731  -3.978   0.829  0.00  0.00    -0.064 A 
ATOM     32  C33 ZZL d           4.409  -4.287   0.501  0.00  0.00    -0.056 A 
ATOM     33  H14 ZZL d           5.955  -3.465   1.757  0.00  0.00     0.085 H 
ATOM     34  H13 ZZL d           3.599  -4.014   1.166  0.00  0.00     0.087 H 
BRANCH  29  35
ATOM     35  C02 ZZL d           8.193  -3.991   0.318  0.00  0.00     0.209 C 
ATOM     36  O01 ZZL d           8.787  -4.711   1.042  0.00  0.00    -0.644 OA
ATOM     37  O03 ZZL d           8.788  -2.840  -0.205  0.00  0.00    -0.644 OA
ENDBRANCH  29  35
ENDBRANCH  23  25
ENDBRANCH   6  23
BRANCH   2  38
ATOM     38  C16 ZZL d           1.791 -12.104  -4.025  0.00  0.00     0.070 A 
ATOM     39  C17 ZZL d           1.372 -13.106  -4.903  0.00  0.00     0.132 A 
ATOM     40  F18 ZZL d           0.850 -12.772  -6.115  0.00  0.00    -0.205 F 
ATOM     41  C19 ZZL d           1.523 -14.454  -4.559  0.00  0.00    -0.045 A 
ATOM     42  C20 ZZL d           2.099 -14.810  -3.335  0.00  0.00    -0.077 A 
ATOM     43  H10 ZZL d           1.191 -15.225  -5.243  0.00  0.00     0.088 H 
ATOM     44  C21 ZZL d           2.524 -13.810  -2.454  0.00  0.00    -0.045 A 
ATOM     45  H3  ZZL d           2.216 -15.855  -3.072  0.00  0.00     0.083 H 
ATOM     46  C22 ZZL d           2.366 -12.461  -2.799  0.00  0.00     0.132 A 
ATOM     47  H4  ZZL d           2.976 -14.079  -1.507  0.00  0.00     0.088 H 
ATOM     48  F23 ZZL d           2.809 -11.490  -1.950  0.00  0.00    -0.205 F 
ENDBRANCH   2  38
TORSDOF 4
ENDMDL
MODEL 2
REMARK VINA RESULT:      -9.9      0.073      1.426
REMARK  4 active torsions:
REMARK  status: ('A' for Active; 'I' for Inactive)
REMARK    1  A    between atoms: C15_2  and  C16_23 
REMARK    2  A    between atoms: C04_13  and  C02_11 
REMARK    3  A    between atoms: N08_17  and  C07_16 
REMARK    4  A    between atoms: C09_18  and  N08_17 
ROOT
ATOM      1  C13 ZZL d           0.064  -8.732  -4.583  0.00  0.00     0.043 C 
ATOM      2  C15 ZZL d           1.546 -10.646  -4.379  0.00  0.00     0.079 C 
ATOM      3  C24 ZZL d           2.872 -10.001  -4.701  0.00  0.00     0.007 A 
ATOM      4  C26 ZZL d           5.041 -10.089  -5.713  0.00  0.00     0.035 A 
ATOM      5  C28 ZZL d           5.321  -8.796  -5.227  0.00  0.00    -0.061 A 
ATOM      6  C09 ZZL d           2.106  -6.149  -1.949  0.00  0.00     0.727 A 
ATOM      7  N10 ZZL d           0.724  -6.121  -2.038  0.00  0.00    -0.074 NA
ATOM      8  C11 ZZL d           0.098  -6.968  -2.887  0.00  0.00     0.031 A 
ATOM      9  C12 ZZL d           0.845  -7.831  -3.618  0.00  0.00     0.010 A 
ATOM     10  N14 ZZL d           0.400 -10.114  -4.354  0.00  0.00    -0.283 NA
ATOM     11  C25 ZZL d           3.811 -10.697  -5.441  0.00  0.00    -0.049 A 
ATOM     12 CL1  ZZL d           6.207 -10.978  -6.727  0.00  0.00    -0.084 Cl
ATOM     13  C29 ZZL d           4.370  -8.101  -4.473  0.00  0.00    -0.068 A 
ATOM     14  C30 ZZL d           3.143  -8.717  -4.210  0.00  0.00     0.007 A 
ATOM     15  C31 ZZL d           2.248  -7.866  -3.516  0.00  0.00     0.096 A 
ATOM     16  N32 ZZL d           2.876  -7.032  -2.708  0.00  0.00    -0.061 NA
ATOM     17  H1  ZZL d           0.318  -8.463  -5.618  0.00  0.00     0.074 H 
ATOM     18  H2  ZZL d          -1.015  -8.589  -4.421  0.00  0.00     0.074 H 
ATOM     19  H5  ZZL d           6.280  -8.337  -5.439  0.00  0.00     0.086 H 
ATOM     20  H9  ZZL d          -0.982  -6.957  -2.981  0.00  0.00     0.116 H 
ATOM     21  H11 ZZL d           3.597 -11.695  -5.805  0.00  0.00     0.087 H 
ATOM     22  H12 ZZL d           4.580  -7.105  -4.101  0.00  0.00     0.085 H 
ENDROOT
BRANCH   6  23
ATOM     23  N08 ZZL d           2.775  -5.210  -1.093  0.00  0.00    -0.188 N 
ATOM     24  H8  ZZL d           2.122  -4.530  -0.677  0.00  0.00     0.184 HD
BRANCH  23  25
ATOM     25  C07 ZZL d           4.136  -4.985  -0.675  0.00  0.00     0.049 A 
ATOM     26  C06 ZZL d           5.168  -5.328  -1.559  0.00  0.00    -0.056 A 
ATOM     27  C05 ZZL d           6.488  -5.018  -1.228  0.00  0.00    -0.064 A 
ATOM     28  H7  ZZL d           4.942  -5.830  -2.493  0.00  0.00     0.087 H 
ATOM     29  C04 ZZL d           6.749  -4.374  -0.016  0.00  0.00     0.041 A 
ATOM     30  H6  ZZL d           7.298  -5.274  -1.900  0.00  0.00     0.085 H 
ATOM     31  C34 ZZL d           5.718  -4.030   0.860  0.00  0.00    -0.064 A 
ATOM     32  C33 ZZL d           4.397  -4.334   0.528  0.00  0.00    -0.056 A 
ATOM     33  H14 ZZL d           5.943  -3.529   1.795  0.00  0.00     0.085 H 
ATOM     34  H13 ZZL d           3.586  -4.067   1.197  0.00  0.00     0.087 H 
BRANCH  29  35
ATOM     35  C02 ZZL d           8.181  -4.041   0.350  0.00  0.00     0.209 C 
ATOM     36  O01 ZZL d           8.787  -4.792   1.031  0.00  0.00    -0.644 OA
ATOM     37  O03 ZZL d           8.762  -2.861  -0.119  0.00  0.00    -0.644 OA
ENDBRANCH  29  35
ENDBRANCH  23  25
ENDBRANCH   6  23
BRANCH   2  38
ATOM     38  C16 ZZL d           1.754 -12.115  -4.035  0.00  0.00     0.070 A 
ATOM     39  C17 ZZL d           2.426 -12.476  -2.864  0.00  0.00     0.132 A 
ATOM     40  F18 ZZL d           2.820 -11.515  -1.984  0.00  0.00    -0.205 F 
ATOM     41  C19 ZZL d           2.663 -13.824  -2.575  0.00  0.00    -0.045 A 
ATOM     42  C20 ZZL d           2.223 -14.822  -3.450  0.00  0.00    -0.077 A 
ATOM     43  H10 ZZL d           3.189 -14.096  -1.668  0.00  0.00     0.088 H 
ATOM     44  C21 ZZL d           1.546 -14.466  -4.622  0.00  0.00    -0.045 A 
ATOM     45  H3  ZZL d           2.407 -15.866  -3.223  0.00  0.00     0.083 H 
ATOM     46  C22 ZZL d           1.317 -13.114  -4.913  0.00  0.00     0.132 A 
ATOM     47  H4  ZZL d           1.199 -15.234  -5.302  0.00  0.00     0.088 H 
ATOM     48  F23 ZZL d           0.630 -12.772  -6.040  0.00  0.00    -0.205 F 
ENDBRANCH   2  38
TORSDOF 4
ENDMDL
