MODEL 1
REMARK VINA RESULT:      -7.1      0.000      0.000
REMARK  4 active torsions:
REMARK  status: ('A' for Active; 'I' for Inactive)
REMARK    1  A    between atoms: C4_4  and  O18_18 
REMARK    2  A    between atoms: C8_8  and  C21_21 
REMARK    3  A    between atoms: N9_9  and  C10_10 
REMARK    4  A    between atoms: C11_11  and  C16_16 
ROOT
ATOM      1  C10 LGB d          54.432   2.313   3.654  0.00  0.00     0.068 A 
ATOM      2  C11 LGB d          53.124   2.550   4.129  0.00  0.00    -0.010 A 
ATOM      3  C12 LGB d          52.678   3.868   4.151  0.00  0.00     0.062 A 
ATOM      4  C13 LGB d          53.484   4.940   3.720  0.00  0.00     0.067 A 
ATOM      5  C14 LGB d          54.762   4.715   3.257  0.00  0.00    -0.059 A 
ATOM      6  C15 LGB d          55.234   3.402   3.226  0.00  0.00    -0.053 A 
ATOM      7 CL17 LGB d          51.112   4.187   4.715  0.00  0.00    -0.082 Cl
ATOM      8  C19 LGB d          53.055   6.281   3.735  0.00  0.00     0.101 C 
ATOM      9  N20 LGB d          52.592   7.323   3.796  0.00  0.00    -0.191 NA
ATOM     10  H8  LGB d          55.385   5.538   2.925  0.00  0.00     0.086 H 
ATOM     11  H9  LGB d          56.239   3.209   2.865  0.00  0.00     0.087 H 
ENDROOT
BRANCH   2  12
ATOM     12  C16 LGB d          52.252   1.408   4.593  0.00  0.00    -0.047 C 
ATOM     13  H10 LGB d          52.301   0.588   3.861  0.00  0.00     0.033 H 
ATOM     14  H11 LGB d          51.212   1.755   4.685  0.00  0.00     0.033 H 
ATOM     15  H12 LGB d          52.607   1.049   5.570  0.00  0.00     0.033 H 
ENDBRANCH   2  12
BRANCH   1  16
ATOM     16  N9  LGB d          54.877   1.032   3.628  0.00  0.00    -0.213 NA
ATOM     17  C6  LGB d          56.045   0.556   4.072  0.00  0.00     0.223 C 
ATOM     18  N2  LGB d          56.356  -0.820   4.162  0.00  0.00    -0.237 NA
ATOM     19  O7  LGB d          57.063   1.320   4.487  0.00  0.00    -0.309 OA
ATOM     20  C1  LGB d          55.901  -1.807   3.149  0.00  0.00    -0.010 C 
ATOM     21  C3  LGB d          57.819  -0.810   4.191  0.00  0.00     0.061 C 
ATOM     22  C5  LGB d          57.138  -2.461   2.532  0.00  0.00    -0.028 C 
ATOM     23  H1  LGB d          55.320  -1.297   2.367  0.00  0.00     0.056 H 
ATOM     24  H2  LGB d          55.276  -2.573   3.630  0.00  0.00     0.056 H 
ATOM     25  C4  LGB d          58.271  -1.421   2.848  0.00  0.00     0.055 C 
ATOM     26  H5  LGB d          57.016  -2.597   1.448  0.00  0.00     0.038 H 
ATOM     27  H6  LGB d          57.350  -3.432   3.002  0.00  0.00     0.038 H 
ATOM     28  H4  LGB d          58.326  -0.648   2.067  0.00  0.00     0.085 H 
ATOM     29  C8  LGB d          58.250   0.615   4.526  0.00  0.00     0.159 C 
ATOM     30  H3  LGB d          58.185  -1.464   4.996  0.00  0.00     0.073 H 
ATOM     31  H7  LGB d          59.010   0.994   3.827  0.00  0.00     0.101 H 
BRANCH  25  32
ATOM     32  O18 LGB d          59.513  -2.060   2.953  0.00  0.00    -0.394 OA
ATOM     33  H13 LGB d          60.194  -1.409   3.077  0.00  0.00     0.210 HD
ENDBRANCH  25  32
BRANCH  29  34
ATOM     34  C21 LGB d          58.707   0.725   5.969  0.00  0.00     0.415 C 
ATOM     35  F22 LGB d          59.241   1.927   6.142  0.00  0.00    -0.168 F 
ATOM     36  F23 LGB d          59.603  -0.213   6.307  0.00  0.00    -0.168 F 
ATOM     37  F24 LGB d          57.662   0.577   6.747  0.00  0.00    -0.168 F 
ENDBRANCH  29  34
ENDBRANCH   1  16
TORSDOF 4
ENDMDL
