MODEL 1
REMARK VINA RESULT:      -8.0      0.000      0.000
REMARK  10 active torsions:
REMARK  status: ('A' for Active; 'I' for Inactive)
REMARK    1  A    between atoms: C1_1  and  O8_8 
REMARK    2  A    between atoms: C2_2  and  O9_9 
REMARK    3  A    between atoms: C3_3  and  N7_7 
REMARK    4  A    between atoms: C5_5  and  C6_6 
REMARK    5  A    between atoms: C10_10  and  C11_11 
REMARK    6  A    between atoms: C11_11  and  N12_12 
REMARK       I    between atoms: N12_12  and  C13_13 
REMARK    7  A    between atoms: C13_13  and  C14_14 
REMARK    8  A    between atoms: C15_15  and  O21_21 
REMARK    9  A    between atoms: C16_16  and  O22_22 
REMARK   10  A    between atoms: C18_18  and  N20_20 
ROOT
ATOM      1  C6  OZZ d          34.482  -4.177 -12.129  0.00  0.00    -0.075 C 
ATOM      2  C10 OZZ d          34.778  -5.249 -11.424  0.00  0.00    -0.087 C 
ATOM      3  H5  OZZ d          33.504  -3.719 -11.992  0.00  0.00     0.080 H 
ATOM      4  H8  OZZ d          35.758  -5.701 -11.561  0.00  0.00     0.079 H 
ENDROOT
BRANCH   1   5
ATOM      5  C5  OZZ d          35.422  -3.563 -13.104  0.00  0.00     0.084 C 
ATOM      6  C1  OZZ d          36.832  -3.339 -12.399  0.00  0.00     0.092 C 
ATOM      7  C2  OZZ d          36.598  -1.901 -11.940  0.00  0.00     0.105 C 
ATOM      8  H1  OZZ d          37.031  -4.038 -11.574  0.00  0.00     0.091 H 
ATOM      9  C3  OZZ d          35.929  -1.256 -13.189  0.00  0.00     0.137 C 
ATOM     10  H2  OZZ d          35.913  -1.900 -11.079  0.00  0.00     0.093 H 
ATOM     11  O4  OZZ d          34.941  -2.278 -13.510  0.00  0.00    -0.352 OA
ATOM     12  H3  OZZ d          36.678  -1.148 -13.988  0.00  0.00     0.122 H 
ATOM     13  H4  OZZ d          35.533  -4.221 -13.979  0.00  0.00     0.093 H 
BRANCH   6  14
ATOM     14  O8  OZZ d          37.874  -3.383 -13.382  0.00  0.00    -0.390 OA
ATOM     15  H6  OZZ d          38.460  -4.107 -13.188  0.00  0.00     0.210 HD
ENDBRANCH   6  14
BRANCH   7  16
ATOM     16  O9  OZZ d          37.772  -1.123 -11.588  0.00  0.00    -0.388 OA
ATOM     17  H7  OZZ d          37.946  -1.218 -10.658  0.00  0.00     0.210 HD
ENDBRANCH   7  16
BRANCH   9  18
ATOM     18  N7  OZZ d          35.250  -0.013 -13.056  0.00  0.00    -0.337 N 
ATOM     19  C26 OZZ d          34.224   0.315 -14.001  0.00  0.00    -0.014 A 
ATOM     20  C27 OZZ d          33.551   1.509 -13.934  0.00  0.00    -0.020 A 
ATOM     21  H16 OZZ d          33.972  -0.397 -14.786  0.00  0.00     0.111 H 
ATOM     22  C28 OZZ d          33.818   2.459 -12.870  0.00  0.00     0.174 A 
ATOM     23  H17 OZZ d          32.806   1.747 -14.690  0.00  0.00     0.091 H 
ATOM     24  C30 OZZ d          34.915   2.099 -11.944  0.00  0.00    -0.020 A 
ATOM     25  O31 OZZ d          33.136   3.466 -12.735  0.00  0.00    -0.288 OA
ATOM     26  C29 OZZ d          35.547   0.932 -12.095  0.00  0.00    -0.014 A 
ATOM     27  H19 OZZ d          35.205   2.780 -11.145  0.00  0.00     0.091 H 
ATOM     28  H18 OZZ d          36.362   0.710 -11.407  0.00  0.00     0.111 H 
ENDBRANCH   9  18
ENDBRANCH   1   5
BRANCH   2  29
ATOM     29  C11 OZZ d          33.841  -5.877 -10.447  0.00  0.00     0.010 C 
ATOM     30  H9  OZZ d          33.315  -6.716 -10.926  0.00  0.00     0.070 H 
ATOM     31  H10 OZZ d          33.108  -5.131 -10.107  0.00  0.00     0.070 H 
BRANCH  29  32
ATOM     32  N12 OZZ d          34.597  -6.357  -9.325  0.00  0.00    -0.353 N 
ATOM     33  C13 OZZ d          35.100  -5.560  -8.389  0.00  0.00     0.254 C 
ATOM     34  O23 OZZ d          34.830  -4.307  -8.441  0.00  0.00    -0.268 OA
ATOM     35  H11 OZZ d          34.754  -7.341  -9.244  0.00  0.00     0.163 HD
BRANCH  33  36
ATOM     36  C14 OZZ d          35.956  -6.096  -7.318  0.00  0.00     0.070 A 
ATOM     37  C15 OZZ d          35.859  -7.454  -6.849  0.00  0.00     0.114 A 
ATOM     38  C16 OZZ d          36.777  -7.834  -5.846  0.00  0.00     0.102 A 
ATOM     39  C17 OZZ d          37.756  -7.024  -5.279  0.00  0.00    -0.016 A 
ATOM     40  C18 OZZ d          37.832  -5.693  -5.833  0.00  0.00     0.106 A 
ATOM     41  H12 OZZ d          38.411  -7.366  -4.484  0.00  0.00     0.091 H 
ATOM     42  C19 OZZ d          36.917  -5.294  -6.815  0.00  0.00    -0.033 A 
ATOM     43  H13 OZZ d          36.984  -4.280  -7.192  0.00  0.00     0.089 H 
BRANCH  37  44
ATOM     44  O21 OZZ d          34.934  -8.255  -7.293  0.00  0.00    -0.357 OA
ATOM     45  H14 OZZ d          34.519  -7.866  -8.054  0.00  0.00     0.217 HD
ENDBRANCH  37  44
BRANCH  38  46
ATOM     46  O22 OZZ d          36.642  -9.146  -5.383  0.00  0.00    -0.358 OA
ATOM     47  H15 OZZ d          36.679  -9.745  -6.119  0.00  0.00     0.217 HD
ENDBRANCH  38  46
BRANCH  40  48
ATOM     48  N20 OZZ d          38.828  -4.807  -5.263  0.00  0.00    -0.116 N 
ATOM     49  O24 OZZ d          39.956  -5.156  -5.151  0.00  0.00    -0.532 OA
ATOM     50  O25 OZZ d          38.471  -3.696  -4.909  0.00  0.00    -0.532 OA
ENDBRANCH  40  48
ENDBRANCH  33  36
ENDBRANCH  29  32
ENDBRANCH   2  29
TORSDOF 10
ENDMDL
MODEL 2
REMARK VINA RESULT:      -7.8      1.497      2.024
REMARK  10 active torsions:
REMARK  status: ('A' for Active; 'I' for Inactive)
REMARK    1  A    between atoms: C1_1  and  O8_8 
REMARK    2  A    between atoms: C2_2  and  O9_9 
REMARK    3  A    between atoms: C3_3  and  N7_7 
REMARK    4  A    between atoms: C5_5  and  C6_6 
REMARK    5  A    between atoms: C10_10  and  C11_11 
REMARK    6  A    between atoms: C11_11  and  N12_12 
REMARK       I    between atoms: N12_12  and  C13_13 
REMARK    7  A    between atoms: C13_13  and  C14_14 
REMARK    8  A    between atoms: C15_15  and  O21_21 
REMARK    9  A    between atoms: C16_16  and  O22_22 
REMARK   10  A    between atoms: C18_18  and  N20_20 
ROOT
ATOM      1  C6  OZZ d          35.101  -3.523 -11.398  0.00  0.00    -0.075 C 
ATOM      2  C10 OZZ d          34.936  -4.782 -11.050  0.00  0.00    -0.087 C 
ATOM      3  H5  OZZ d          35.011  -2.756 -10.630  0.00  0.00     0.080 H 
ATOM      4  H8  OZZ d          35.031  -5.546 -11.819  0.00  0.00     0.079 H 
ENDROOT
BRANCH   1   5
ATOM      5  C5  OZZ d          35.406  -3.101 -12.790  0.00  0.00     0.084 C 
ATOM      6  C1  OZZ d          36.957  -2.757 -12.904  0.00  0.00     0.092 C 
ATOM      7  C2  OZZ d          36.849  -1.259 -12.628  0.00  0.00     0.105 C 
ATOM      8  H1  OZZ d          37.584  -3.296 -12.179  0.00  0.00     0.091 H 
ATOM      9  C3  OZZ d          35.612  -0.850 -13.480  0.00  0.00     0.137 C 
ATOM     10  H2  OZZ d          36.661  -1.099 -11.556  0.00  0.00     0.093 H 
ATOM     11  O4  OZZ d          34.682  -1.909 -13.113  0.00  0.00    -0.352 OA
ATOM     12  H3  OZZ d          35.877  -0.892 -14.548  0.00  0.00     0.122 H 
ATOM     13  H4  OZZ d          35.141  -3.907 -13.490  0.00  0.00     0.093 H 
BRANCH   6  14
ATOM     14  O8  OZZ d          37.403  -2.984 -14.247  0.00  0.00    -0.390 OA
ATOM     15  H6  OZZ d          37.798  -3.847 -14.307  0.00  0.00     0.210 HD
ENDBRANCH   6  14
BRANCH   7  16
ATOM     16  O9  OZZ d          37.978  -0.435 -13.019  0.00  0.00    -0.388 OA
ATOM     17  H7  OZZ d          38.091  -0.481 -13.962  0.00  0.00     0.210 HD
ENDBRANCH   7  16
BRANCH   9  18
ATOM     18  N7  OZZ d          34.977   0.399 -13.237  0.00  0.00    -0.337 N 
ATOM     19  C26 OZZ d          33.907   0.807 -14.099  0.00  0.00    -0.014 A 
ATOM     20  C27 OZZ d          33.273   2.010 -13.925  0.00  0.00    -0.020 A 
ATOM     21  H16 OZZ d          33.592   0.148 -14.908  0.00  0.00     0.111 H 
ATOM     22  C28 OZZ d          33.626   2.890 -12.827  0.00  0.00     0.174 A 
ATOM     23  H17 OZZ d          32.492   2.310 -14.622  0.00  0.00     0.091 H 
ATOM     24  C30 OZZ d          34.765   2.450 -11.989  0.00  0.00    -0.020 A 
ATOM     25  O31 OZZ d          32.981   3.904 -12.595  0.00  0.00    -0.288 OA
ATOM     26  C29 OZZ d          35.355   1.280 -12.243  0.00  0.00    -0.014 A 
ATOM     27  H19 OZZ d          35.119   3.076 -11.171  0.00  0.00     0.091 H 
ATOM     28  H18 OZZ d          36.201   0.998 -11.618  0.00  0.00     0.111 H 
ENDBRANCH   9  18
ENDBRANCH   1   5
BRANCH   2  29
ATOM     29  C11 OZZ d          34.625  -5.218  -9.657  0.00  0.00     0.010 C 
ATOM     30  H9  OZZ d          34.454  -6.305  -9.639  0.00  0.00     0.070 H 
ATOM     31  H10 OZZ d          33.724  -4.699  -9.300  0.00  0.00     0.070 H 
BRANCH  29  32
ATOM     32  N12 OZZ d          35.738  -4.890  -8.810  0.00  0.00    -0.353 N 
ATOM     33  C13 OZZ d          35.959  -5.473  -7.638  0.00  0.00     0.254 C 
ATOM     34  O23 OZZ d          35.190  -6.434  -7.276  0.00  0.00    -0.268 OA
ATOM     35  H11 OZZ d          36.379  -4.188  -9.119  0.00  0.00     0.163 HD
BRANCH  33  36
ATOM     36  C14 OZZ d          37.055  -5.024  -6.765  0.00  0.00     0.070 A 
ATOM     37  C15 OZZ d          37.898  -5.938  -6.037  0.00  0.00     0.114 A 
ATOM     38  C16 OZZ d          38.936  -5.359  -5.275  0.00  0.00     0.102 A 
ATOM     39  C17 OZZ d          39.215  -4.000  -5.166  0.00  0.00    -0.016 A 
ATOM     40  C18 OZZ d          38.365  -3.145  -5.963  0.00  0.00     0.106 A 
ATOM     41  H12 OZZ d          40.007  -3.614  -4.535  0.00  0.00     0.091 H 
ATOM     42  C19 OZZ d          37.320  -3.702  -6.709  0.00  0.00    -0.033 A 
ATOM     43  H13 OZZ d          36.685  -3.032  -7.276  0.00  0.00     0.089 H 
BRANCH  37  44
ATOM     44  O21 OZZ d          37.666  -7.219  -6.047  0.00  0.00    -0.357 OA
ATOM     45  H14 OZZ d          37.152  -7.452  -5.284  0.00  0.00     0.217 HD
ENDBRANCH  37  44
BRANCH  38  46
ATOM     46  O22 OZZ d          39.719  -6.263  -4.553  0.00  0.00    -0.358 OA
ATOM     47  H15 OZZ d          39.224  -7.061  -4.405  0.00  0.00     0.217 HD
ENDBRANCH  38  46
BRANCH  40  48
ATOM     48  N20 OZZ d          38.609  -1.719  -5.871  0.00  0.00    -0.116 N 
ATOM     49  O24 OZZ d          39.674  -1.269  -6.130  0.00  0.00    -0.532 OA
ATOM     50  O25 OZZ d          37.685  -1.002  -5.523  0.00  0.00    -0.532 OA
ENDBRANCH  40  48
ENDBRANCH  33  36
ENDBRANCH  29  32
ENDBRANCH   2  29
TORSDOF 10
ENDMDL
MODEL 3
REMARK VINA RESULT:      -7.4      1.070      2.325
REMARK  10 active torsions:
REMARK  status: ('A' for Active; 'I' for Inactive)
REMARK    1  A    between atoms: C1_1  and  O8_8 
REMARK    2  A    between atoms: C2_2  and  O9_9 
REMARK    3  A    between atoms: C3_3  and  N7_7 
REMARK    4  A    between atoms: C5_5  and  C6_6 
REMARK    5  A    between atoms: C10_10  and  C11_11 
REMARK    6  A    between atoms: C11_11  and  N12_12 
REMARK       I    between atoms: N12_12  and  C13_13 
REMARK    7  A    between atoms: C13_13  and  C14_14 
REMARK    8  A    between atoms: C15_15  and  O21_21 
REMARK    9  A    between atoms: C16_16  and  O22_22 
REMARK   10  A    between atoms: C18_18  and  N20_20 
ROOT
ATOM      1  C6  OZZ d          34.551  -3.940 -11.999  0.00  0.00    -0.075 C 
ATOM      2  C10 OZZ d          34.892  -5.061 -11.399  0.00  0.00    -0.087 C 
ATOM      3  H5  OZZ d          33.668  -3.410 -11.646  0.00  0.00     0.080 H 
ATOM      4  H8  OZZ d          35.778  -5.585 -11.753  0.00  0.00     0.079 H 
ENDROOT
BRANCH   1   5
ATOM      5  C5  OZZ d          35.316  -3.364 -13.136  0.00  0.00     0.084 C 
ATOM      6  C1  OZZ d          36.820  -3.110 -12.679  0.00  0.00     0.092 C 
ATOM      7  C2  OZZ d          36.653  -1.656 -12.244  0.00  0.00     0.105 C 
ATOM      8  H1  OZZ d          37.156  -3.777 -11.871  0.00  0.00     0.091 H 
ATOM      9  C3  OZZ d          35.785  -1.061 -13.391  0.00  0.00     0.137 C 
ATOM     10  H2  OZZ d          36.117  -1.622 -11.284  0.00  0.00     0.093 H 
ATOM     11  O4  OZZ d          34.766  -2.096 -13.508  0.00  0.00    -0.352 OA
ATOM     12  H3  OZZ d          36.393  -0.984 -14.305  0.00  0.00     0.122 H 
ATOM     13  H4  OZZ d          35.288  -4.055 -13.992  0.00  0.00     0.093 H 
BRANCH   6  14
ATOM     14  O8  OZZ d          37.689  -3.192 -13.816  0.00  0.00    -0.390 OA
ATOM     15  H6  OZZ d          37.433  -2.539 -14.457  0.00  0.00     0.210 HD
ENDBRANCH   6  14
BRANCH   7  16
ATOM     16  O9  OZZ d          37.863  -0.864 -12.117  0.00  0.00    -0.388 OA
ATOM     17  H7  OZZ d          38.403  -0.987 -12.889  0.00  0.00     0.210 HD
ENDBRANCH   7  16
BRANCH   9  18
ATOM     18  N7  OZZ d          35.128   0.185 -13.198  0.00  0.00    -0.337 N 
ATOM     19  C26 OZZ d          34.056   0.542 -14.079  0.00  0.00    -0.014 A 
ATOM     20  C27 OZZ d          33.401   1.741 -13.953  0.00  0.00    -0.020 A 
ATOM     21  H16 OZZ d          33.755  -0.151 -14.864  0.00  0.00     0.111 H 
ATOM     22  C28 OZZ d          33.734   2.667 -12.887  0.00  0.00     0.174 A 
ATOM     23  H17 OZZ d          32.619   2.001 -14.663  0.00  0.00     0.091 H 
ATOM     24  C30 OZZ d          34.876   2.278 -12.028  0.00  0.00    -0.020 A 
ATOM     25  O31 OZZ d          33.071   3.678 -12.696  0.00  0.00    -0.288 OA
ATOM     26  C29 OZZ d          35.486   1.109 -12.236  0.00  0.00    -0.014 A 
ATOM     27  H19 OZZ d          35.216   2.940 -11.233  0.00  0.00     0.091 H 
ATOM     28  H18 OZZ d          36.334   0.865 -11.598  0.00  0.00     0.111 H 
ENDBRANCH   9  18
ENDBRANCH   1   5
BRANCH   2  29
ATOM     29  C11 OZZ d          34.130  -5.651 -10.261  0.00  0.00     0.010 C 
ATOM     30  H9  OZZ d          33.667  -6.598 -10.577  0.00  0.00     0.070 H 
ATOM     31  H10 OZZ d          33.347  -4.950  -9.937  0.00  0.00     0.070 H 
BRANCH  29  32
ATOM     32  N12 OZZ d          35.038  -5.896  -9.174  0.00  0.00    -0.353 N 
ATOM     33  C13 OZZ d          35.496  -4.938  -8.377  0.00  0.00     0.254 C 
ATOM     34  O23 OZZ d          35.046  -3.747  -8.528  0.00  0.00    -0.268 OA
ATOM     35  H11 OZZ d          35.340  -6.835  -9.011  0.00  0.00     0.163 HD
BRANCH  33  36
ATOM     36  C14 OZZ d          36.505  -5.231  -7.346  0.00  0.00     0.070 A 
ATOM     37  C15 OZZ d          37.531  -4.294  -6.970  0.00  0.00     0.114 A 
ATOM     38  C16 OZZ d          38.400  -4.701  -5.935  0.00  0.00     0.102 A 
ATOM     39  C17 OZZ d          38.352  -5.912  -5.251  0.00  0.00    -0.016 A 
ATOM     40  C18 OZZ d          37.267  -6.781  -5.642  0.00  0.00     0.106 A 
ATOM     41  H12 OZZ d          39.072  -6.182  -4.486  0.00  0.00     0.091 H 
ATOM     42  C19 OZZ d          36.408  -6.400  -6.680  0.00  0.00    -0.033 A 
ATOM     43  H13 OZZ d          35.619  -7.086  -6.966  0.00  0.00     0.089 H 
BRANCH  37  44
ATOM     44  O21 OZZ d          37.673  -3.163  -7.600  0.00  0.00    -0.357 OA
ATOM     45  H14 OZZ d          37.445  -2.448  -7.018  0.00  0.00     0.217 HD
ENDBRANCH  37  44
BRANCH  38  46
ATOM     46  O22 OZZ d          39.408  -3.789  -5.611  0.00  0.00    -0.358 OA
ATOM     47  H15 OZZ d          39.180  -3.340  -4.806  0.00  0.00     0.217 HD
ENDBRANCH  38  46
BRANCH  40  48
ATOM     48  N20 OZZ d          37.184  -8.062  -4.967  0.00  0.00    -0.116 N 
ATOM     49  O24 OZZ d          36.155  -8.645  -4.899  0.00  0.00    -0.532 OA
ATOM     50  O25 OZZ d          38.205  -8.518  -4.478  0.00  0.00    -0.532 OA
ENDBRANCH  40  48
ENDBRANCH  33  36
ENDBRANCH  29  32
ENDBRANCH   2  29
TORSDOF 10
ENDMDL
MODEL 4
REMARK VINA RESULT:      -5.6      2.439      3.815
REMARK  10 active torsions:
REMARK  status: ('A' for Active; 'I' for Inactive)
REMARK    1  A    between atoms: C1_1  and  O8_8 
REMARK    2  A    between atoms: C2_2  and  O9_9 
REMARK    3  A    between atoms: C3_3  and  N7_7 
REMARK    4  A    between atoms: C5_5  and  C6_6 
REMARK    5  A    between atoms: C10_10  and  C11_11 
REMARK    6  A    between atoms: C11_11  and  N12_12 
REMARK       I    between atoms: N12_12  and  C13_13 
REMARK    7  A    between atoms: C13_13  and  C14_14 
REMARK    8  A    between atoms: C15_15  and  O21_21 
REMARK    9  A    between atoms: C16_16  and  O22_22 
REMARK   10  A    between atoms: C18_18  and  N20_20 
ROOT
ATOM      1  C6  OZZ d          34.073  -4.023 -11.678  0.00  0.00    -0.075 C 
ATOM      2  C10 OZZ d          34.661  -5.126 -11.262  0.00  0.00    -0.087 C 
ATOM      3  H5  OZZ d          32.985  -3.979 -11.666  0.00  0.00     0.080 H 
ATOM      4  H8  OZZ d          35.748  -5.165 -11.272  0.00  0.00     0.079 H 
ENDROOT
BRANCH   1   5
ATOM      5  C5  OZZ d          34.827  -2.837 -12.162  0.00  0.00     0.084 C 
ATOM      6  C1  OZZ d          35.818  -3.286 -13.324  0.00  0.00     0.092 C 
ATOM      7  C2  OZZ d          37.048  -3.530 -12.452  0.00  0.00     0.105 C 
ATOM      8  H1  OZZ d          35.483  -4.179 -13.873  0.00  0.00     0.091 H 
ATOM      9  C3  OZZ d          37.031  -2.301 -11.498  0.00  0.00     0.137 C 
ATOM     10  H2  OZZ d          36.918  -4.469 -11.893  0.00  0.00     0.093 H 
ATOM     11  O4  OZZ d          35.627  -2.297 -11.106  0.00  0.00    -0.352 OA
ATOM     12  H3  OZZ d          37.298  -1.396 -12.065  0.00  0.00     0.122 H 
ATOM     13  H4  OZZ d          34.124  -2.076 -12.532  0.00  0.00     0.093 H 
BRANCH   6  14
ATOM     14  O8  OZZ d          36.049  -2.186 -14.213  0.00  0.00    -0.390 OA
ATOM     15  H6  OZZ d          35.751  -2.417 -15.085  0.00  0.00     0.210 HD
ENDBRANCH   6  14
BRANCH   7  16
ATOM     16  O9  OZZ d          38.333  -3.579 -13.126  0.00  0.00    -0.388 OA
ATOM     17  H7  OZZ d          39.015  -3.296 -12.528  0.00  0.00     0.210 HD
ENDBRANCH   7  16
BRANCH   9  18
ATOM     18  N7  OZZ d          37.819  -2.323 -10.314  0.00  0.00    -0.337 N 
ATOM     19  C26 OZZ d          37.164  -2.180  -9.048  0.00  0.00    -0.014 A 
ATOM     20  C27 OZZ d          37.876  -2.172  -7.876  0.00  0.00    -0.020 A 
ATOM     21  H16 OZZ d          36.080  -2.076  -9.016  0.00  0.00     0.111 H 
ATOM     22  C28 OZZ d          39.314  -2.363  -7.872  0.00  0.00     0.174 A 
ATOM     23  H17 OZZ d          37.354  -2.019  -6.933  0.00  0.00     0.091 H 
ATOM     24  C30 OZZ d          39.954  -2.463  -9.204  0.00  0.00    -0.020 A 
ATOM     25  O31 OZZ d          39.935  -2.481  -6.825  0.00  0.00    -0.288 OA
ATOM     26  C29 OZZ d          39.196  -2.427 -10.302  0.00  0.00    -0.014 A 
ATOM     27  H19 OZZ d          41.035  -2.564  -9.288  0.00  0.00     0.091 H 
ATOM     28  H18 OZZ d          39.703  -2.483 -11.264  0.00  0.00     0.111 H 
ENDBRANCH   9  18
ENDBRANCH   1   5
BRANCH   2  29
ATOM     29  C11 OZZ d          33.915  -6.325 -10.779  0.00  0.00     0.010 C 
ATOM     30  H9  OZZ d          33.978  -7.127 -11.530  0.00  0.00     0.070 H 
ATOM     31  H10 OZZ d          32.861  -6.061 -10.611  0.00  0.00     0.070 H 
BRANCH  29  32
ATOM     32  N12 OZZ d          34.504  -6.769  -9.546  0.00  0.00    -0.353 N 
ATOM     33  C13 OZZ d          34.998  -5.941  -8.633  0.00  0.00     0.254 C 
ATOM     34  O23 OZZ d          34.870  -4.678  -8.819  0.00  0.00    -0.268 OA
ATOM     35  H11 OZZ d          34.546  -7.752  -9.367  0.00  0.00     0.163 HD
BRANCH  33  36
ATOM     36  C14 OZZ d          35.684  -6.455  -7.437  0.00  0.00     0.070 A 
ATOM     37  C15 OZZ d          35.389  -7.741  -6.861  0.00  0.00     0.114 A 
ATOM     38  C16 OZZ d          36.160  -8.115  -5.739  0.00  0.00     0.102 A 
ATOM     39  C17 OZZ d          37.170  -7.361  -5.149  0.00  0.00    -0.016 A 
ATOM     40  C18 OZZ d          37.449  -6.107  -5.809  0.00  0.00     0.106 A 
ATOM     41  H12 OZZ d          37.705  -7.689  -4.265  0.00  0.00     0.091 H 
ATOM     42  C19 OZZ d          36.680  -5.714  -6.911  0.00  0.00    -0.033 A 
ATOM     43  H13 OZZ d          36.899  -4.756  -7.368  0.00  0.00     0.089 H 
BRANCH  37  44
ATOM     44  O21 OZZ d          34.422  -8.480  -7.324  0.00  0.00    -0.357 OA
ATOM     45  H14 OZZ d          34.686  -9.392  -7.309  0.00  0.00     0.217 HD
ENDBRANCH  37  44
BRANCH  38  46
ATOM     46  O22 OZZ d          35.833  -9.352  -5.178  0.00  0.00    -0.358 OA
ATOM     47  H15 OZZ d          36.527  -9.626  -4.591  0.00  0.00     0.217 HD
ENDBRANCH  38  46
BRANCH  40  48
ATOM     48  N20 OZZ d          38.485  -5.280  -5.222  0.00  0.00    -0.116 N 
ATOM     49  O24 OZZ d          38.240  -4.186  -4.835  0.00  0.00    -0.532 OA
ATOM     50  O25 OZZ d          39.609  -5.745  -5.136  0.00  0.00    -0.532 OA
ENDBRANCH  40  48
ENDBRANCH  33  36
ENDBRANCH  29  32
ENDBRANCH   2  29
TORSDOF 10
ENDMDL
