MODEL 1
REMARK VINA RESULT:      -7.7      0.000      0.000
REMARK  9 active torsions:
REMARK  status: ('A' for Active; 'I' for Inactive)
REMARK    1  A    between atoms: C20_6  and  C17_7 
REMARK    2  A    between atoms: C4_11  and  C1_12 
REMARK    3  A    between atoms: N12_24  and  C19_25 
REMARK    4  A    between atoms: C19_25  and  C21_26 
REMARK    5  A    between atoms: C21_26  and  C23_27 
REMARK    6  A    between atoms: C23_27  and  N29_28 
REMARK    7  A    between atoms: N29_28  and  C32_29 
REMARK    8  A    between atoms: N29_28  and  C31_30 
REMARK    9  A    between atoms: N29_28  and  C30_31 
ROOT
ATOM      1  C1  Y5H d          -3.291  12.995  23.035  0.00  0.00     0.160 C 
ATOM      2  N3  Y5H d          -4.685  13.015  23.550  0.00  0.00    -0.055 N 
ATOM      3  C7  Y5H d          -5.438  13.658  22.460  0.00  0.00     0.117 C 
ATOM      4  C14 Y5H d          -5.186  15.167  22.632  0.00  0.00    -0.036 C 
ATOM      5  C15 Y5H d          -4.985  15.321  24.149  0.00  0.00    -0.040 C 
ATOM      6  C8  Y5H d          -4.863  13.900  24.730  0.00  0.00     0.085 C 
ATOM      7  C5  Y5H d          -4.899  13.077  21.157  0.00  0.00     0.066 A 
ATOM      8  C2  Y5H d          -3.492  12.552  21.546  0.00  0.00     0.071 A 
ATOM      9  C6  Y5H d          -3.613  11.055  21.296  0.00  0.00     0.234 A 
ATOM     10  O13 Y5H d          -2.754  10.198  21.418  0.00  0.00    -0.272 OA
ATOM     11  C11 Y5H d          -5.695  11.867  20.737  0.00  0.00     0.233 A 
ATOM     12  O18 Y5H d          -6.851  11.800  20.319  0.00  0.00    -0.272 OA
ATOM     13  N12 Y5H d          -4.914  10.706  20.897  0.00  0.00    -0.288 N 
ATOM     14  H4  Y5H d          -2.846  13.999  23.091  0.00  0.00     0.096 H 
ATOM     15  H5  Y5H d          -5.011  12.083  23.753  0.00  0.00     0.281 HD
ATOM     16  H6  Y5H d          -6.515  13.449  22.539  0.00  0.00     0.086 H 
ATOM     17  H7  Y5H d          -6.050  15.753  22.288  0.00  0.00     0.036 H 
ATOM     18  H8  Y5H d          -4.286  15.481  22.083  0.00  0.00     0.036 H 
ATOM     19  H9  Y5H d          -5.848  15.839  24.594  0.00  0.00     0.035 H 
ATOM     20  H10 Y5H d          -4.069  15.894  24.353  0.00  0.00     0.035 H 
ATOM     21  H11 Y5H d          -3.994  13.829  25.400  0.00  0.00     0.076 H 
ATOM     22  H12 Y5H d          -5.774  13.628  25.282  0.00  0.00     0.076 H 
ATOM     23  H13 Y5H d          -4.867  13.831  20.357  0.00  0.00     0.059 H 
ATOM     24  H14 Y5H d          -2.694  12.978  20.921  0.00  0.00     0.059 H 
ENDROOT
BRANCH  13  25
ATOM     25  C19 Y5H d          -5.334   9.329  20.591  0.00  0.00     0.007 C 
ATOM     26  H15 Y5H d          -6.403   9.217  20.825  0.00  0.00     0.065 H 
ATOM     27  H16 Y5H d          -4.748   8.628  21.204  0.00  0.00     0.065 H 
BRANCH  25  28
ATOM     28  C21 Y5H d          -5.105   9.016  19.106  0.00  0.00    -0.027 C 
ATOM     29  H17 Y5H d          -4.093   9.314  18.797  0.00  0.00     0.037 H 
ATOM     30  H18 Y5H d          -5.847   9.534  18.481  0.00  0.00     0.037 H 
BRANCH  28  31
ATOM     31  C23 Y5H d          -5.277   7.488  19.002  0.00  0.00     0.086 C 
ATOM     32  H19 Y5H d          -5.553   7.102  19.994  0.00  0.00     0.076 H 
ATOM     33  H20 Y5H d          -4.316   7.051  18.693  0.00  0.00     0.076 H 
BRANCH  31  34
ATOM     34  N29 Y5H d          -6.339   7.057  18.010  0.00  0.00    -0.079 N 
BRANCH  34  35
ATOM     35  C32 Y5H d          -7.222   8.224  17.667  0.00  0.00     0.067 C 
ATOM     36  H21 Y5H d          -8.142   8.177  18.268  0.00  0.00     0.068 H 
ATOM     37  H22 Y5H d          -7.481   8.186  16.598  0.00  0.00     0.068 H 
ATOM     38  H23 Y5H d          -6.691   9.162  17.883  0.00  0.00     0.068 H 
ENDBRANCH  34  35
BRANCH  34  39
ATOM     39  C31 Y5H d          -7.201   6.048  18.733  0.00  0.00     0.067 C 
ATOM     40  H24 Y5H d          -7.204   6.274  19.809  0.00  0.00     0.068 H 
ATOM     41  H25 Y5H d          -6.798   5.038  18.570  0.00  0.00     0.068 H 
ATOM     42  H26 Y5H d          -8.229   6.099  18.344  0.00  0.00     0.068 H 
ENDBRANCH  34  39
BRANCH  34  43
ATOM     43  C30 Y5H d          -5.773   6.477  16.759  0.00  0.00     0.067 C 
ATOM     44  H27 Y5H d          -5.757   5.380  16.838  0.00  0.00     0.068 H 
ATOM     45  H28 Y5H d          -4.748   6.848  16.614  0.00  0.00     0.068 H 
ATOM     46  H29 Y5H d          -6.395   6.774  15.902  0.00  0.00     0.068 H 
ENDBRANCH  34  43
ENDBRANCH  31  34
ENDBRANCH  28  31
ENDBRANCH  25  28
ENDBRANCH  13  25
BRANCH   1  47
ATOM     47  C4  Y5H d          -2.396  12.027  23.766  0.00  0.00     0.091 A 
ATOM     48  N16 Y5H d          -2.851  11.115  24.692  0.00  0.00    -0.224 NA
ATOM     49  C17 Y5H d          -1.772  10.455  25.059  0.00  0.00     0.186 A 
ATOM     50  O10 Y5H d          -0.619  10.932  24.524  0.00  0.00    -0.301 OA
ATOM     51  C9  Y5H d          -1.068  11.924  23.668  0.00  0.00     0.047 A 
ATOM     52  H3  Y5H d          -0.437  12.525  23.015  0.00  0.00     0.126 H 
BRANCH  49  53
ATOM     53  C20 Y5H d          -1.651   9.462  26.116  0.00  0.00     0.059 A 
ATOM     54  C22 Y5H d          -2.503   9.272  27.197  0.00  0.00    -0.060 A 
ATOM     55  C24 Y5H d          -2.186   8.128  27.967  0.00  0.00    -0.054 A 
ATOM     56  H2  Y5H d          -3.333   9.937  27.430  0.00  0.00     0.085 H 
ATOM     57  C25 Y5H d          -1.141   7.438  27.410  0.00  0.00     0.075 A 
ATOM     58  H1  Y5H d          -2.703   7.836  28.880  0.00  0.00     0.086 H 
ATOM     59 CL1  Y5H d          -0.428   5.941  27.971  0.00  0.00    -0.076 Cl
ATOM     60  S1  Y5H d          -0.455   8.210  26.009  0.00  0.00    -0.074 SA
ENDBRANCH  49  53
ENDBRANCH   1  47
TORSDOF 9
ENDMDL
MODEL 2
REMARK VINA RESULT:      -7.5      1.778      2.354
REMARK  9 active torsions:
REMARK  status: ('A' for Active; 'I' for Inactive)
REMARK    1  A    between atoms: C20_6  and  C17_7 
REMARK    2  A    between atoms: C4_11  and  C1_12 
REMARK    3  A    between atoms: N12_24  and  C19_25 
REMARK    4  A    between atoms: C19_25  and  C21_26 
REMARK    5  A    between atoms: C21_26  and  C23_27 
REMARK    6  A    between atoms: C23_27  and  N29_28 
REMARK    7  A    between atoms: N29_28  and  C32_29 
REMARK    8  A    between atoms: N29_28  and  C31_30 
REMARK    9  A    between atoms: N29_28  and  C30_31 
ROOT
ATOM      1  C1  Y5H d          -1.710  12.092  21.969  0.00  0.00     0.160 C 
ATOM      2  N3  Y5H d          -2.325  13.403  21.630  0.00  0.00    -0.055 N 
ATOM      3  C7  Y5H d          -2.369  13.384  20.158  0.00  0.00     0.117 C 
ATOM      4  C14 Y5H d          -0.946  13.759  19.709  0.00  0.00    -0.036 C 
ATOM      5  C15 Y5H d          -0.445  14.672  20.841  0.00  0.00    -0.040 C 
ATOM      6  C8  Y5H d          -1.470  14.563  21.986  0.00  0.00     0.085 C 
ATOM      7  C5  Y5H d          -2.806  11.980  19.753  0.00  0.00     0.066 A 
ATOM      8  C2  Y5H d          -2.447  11.116  20.991  0.00  0.00     0.071 A 
ATOM      9  C6  Y5H d          -3.807  10.602  21.445  0.00  0.00     0.234 A 
ATOM     10  O13 Y5H d          -4.057   9.843  22.366  0.00  0.00    -0.272 OA
ATOM     11  C11 Y5H d          -4.304  11.902  19.609  0.00  0.00     0.233 A 
ATOM     12  O18 Y5H d          -5.034  12.404  18.754  0.00  0.00    -0.272 OA
ATOM     13  N12 Y5H d          -4.843  11.135  20.661  0.00  0.00    -0.288 N 
ATOM     14  H4  Y5H d          -0.629  12.111  21.766  0.00  0.00     0.096 H 
ATOM     15  H5  Y5H d          -3.239  13.494  22.047  0.00  0.00     0.281 HD
ATOM     16  H6  Y5H d          -3.089  14.120  19.769  0.00  0.00     0.086 H 
ATOM     17  H7  Y5H d          -0.964  14.296  18.749  0.00  0.00     0.036 H 
ATOM     18  H8  Y5H d          -0.313  12.863  19.617  0.00  0.00     0.036 H 
ATOM     19  H9  Y5H d          -0.381  15.711  20.488  0.00  0.00     0.035 H 
ATOM     20  H10 Y5H d           0.545  14.339  21.185  0.00  0.00     0.035 H 
ATOM     21  H11 Y5H d          -0.960  14.388  22.945  0.00  0.00     0.076 H 
ATOM     22  H12 Y5H d          -2.072  15.481  22.054  0.00  0.00     0.076 H 
ATOM     23  H13 Y5H d          -2.299  11.644  18.837  0.00  0.00     0.059 H 
ATOM     24  H14 Y5H d          -1.787  10.272  20.741  0.00  0.00     0.059 H 
ENDROOT
BRANCH  13  25
ATOM     25  C19 Y5H d          -6.267  10.825  20.867  0.00  0.00     0.007 C 
ATOM     26  H15 Y5H d          -6.874  11.451  20.197  0.00  0.00     0.065 H 
ATOM     27  H16 Y5H d          -6.536  11.039  21.912  0.00  0.00     0.065 H 
BRANCH  25  28
ATOM     28  C21 Y5H d          -6.544   9.346  20.567  0.00  0.00    -0.027 C 
ATOM     29  H17 Y5H d          -7.391   8.979  21.165  0.00  0.00     0.037 H 
ATOM     30  H18 Y5H d          -5.655   8.733  20.777  0.00  0.00     0.037 H 
BRANCH  28  31
ATOM     31  C23 Y5H d          -6.884   9.313  19.064  0.00  0.00     0.086 C 
ATOM     32  H19 Y5H d          -6.394  10.169  18.579  0.00  0.00     0.076 H 
ATOM     33  H20 Y5H d          -7.975   9.404  18.954  0.00  0.00     0.076 H 
BRANCH  31  34
ATOM     34  N29 Y5H d          -6.437   8.046  18.362  0.00  0.00    -0.079 N 
BRANCH  34  35
ATOM     35  C32 Y5H d          -7.386   6.924  18.676  0.00  0.00     0.067 C 
ATOM     36  H21 Y5H d          -7.444   6.786  19.766  0.00  0.00     0.068 H 
ATOM     37  H22 Y5H d          -7.026   5.996  18.208  0.00  0.00     0.068 H 
ATOM     38  H23 Y5H d          -8.385   7.169  18.285  0.00  0.00     0.068 H 
ENDBRANCH  34  35
BRANCH  34  39
ATOM     39  C31 Y5H d          -5.104   7.679  18.972  0.00  0.00     0.067 C 
ATOM     40  H24 Y5H d          -4.525   8.594  19.164  0.00  0.00     0.068 H 
ATOM     41  H25 Y5H d          -4.548   7.033  18.277  0.00  0.00     0.068 H 
ATOM     42  H26 Y5H d          -5.268   7.143  19.918  0.00  0.00     0.068 H 
ENDBRANCH  34  39
BRANCH  34  43
ATOM     43  C30 Y5H d          -6.323   8.203  16.884  0.00  0.00     0.067 C 
ATOM     44  H27 Y5H d          -5.603   9.003  16.655  0.00  0.00     0.068 H 
ATOM     45  H28 Y5H d          -7.306   8.464  16.466  0.00  0.00     0.068 H 
ATOM     46  H29 Y5H d          -5.975   7.259  16.441  0.00  0.00     0.068 H 
ENDBRANCH  34  43
ENDBRANCH  31  34
ENDBRANCH  28  31
ENDBRANCH  25  28
ENDBRANCH  13  25
BRANCH   1  47
ATOM     47  C4  Y5H d          -1.928  11.681  23.402  0.00  0.00     0.091 A 
ATOM     48  N16 Y5H d          -1.444  10.511  23.943  0.00  0.00    -0.224 NA
ATOM     49  C17 Y5H d          -1.823  10.552  25.205  0.00  0.00     0.186 A 
ATOM     50  O10 Y5H d          -2.612  11.612  25.514  0.00  0.00    -0.301 OA
ATOM     51  C9  Y5H d          -2.627  12.336  24.333  0.00  0.00     0.047 A 
ATOM     52  H3  Y5H d          -3.130  13.291  24.185  0.00  0.00     0.126 H 
BRANCH  49  53
ATOM     53  C20 Y5H d          -1.693   9.508  26.209  0.00  0.00     0.059 A 
ATOM     54  C22 Y5H d          -2.566   9.228  27.255  0.00  0.00    -0.060 A 
ATOM     55  C24 Y5H d          -2.228   8.056  27.970  0.00  0.00    -0.054 A 
ATOM     56  H2  Y5H d          -3.425   9.851  27.499  0.00  0.00     0.085 H 
ATOM     57  C25 Y5H d          -1.144   7.434  27.406  0.00  0.00     0.075 A 
ATOM     58  H1  Y5H d          -2.757   7.696  28.851  0.00  0.00     0.086 H 
ATOM     59 CL1  Y5H d          -0.393   5.935  27.905  0.00  0.00    -0.076 Cl
ATOM     60  S1  Y5H d          -0.450   8.305  26.068  0.00  0.00    -0.074 SA
ENDBRANCH  49  53
ENDBRANCH   1  47
TORSDOF 9
ENDMDL
MODEL 3
REMARK VINA RESULT:      -7.0      2.456      4.295
REMARK  9 active torsions:
REMARK  status: ('A' for Active; 'I' for Inactive)
REMARK    1  A    between atoms: C20_6  and  C17_7 
REMARK    2  A    between atoms: C4_11  and  C1_12 
REMARK    3  A    between atoms: N12_24  and  C19_25 
REMARK    4  A    between atoms: C19_25  and  C21_26 
REMARK    5  A    between atoms: C21_26  and  C23_27 
REMARK    6  A    between atoms: C23_27  and  N29_28 
REMARK    7  A    between atoms: N29_28  and  C32_29 
REMARK    8  A    between atoms: N29_28  and  C31_30 
REMARK    9  A    between atoms: N29_28  and  C30_31 
ROOT
ATOM      1  C1  Y5H d          -1.647  12.116  21.986  0.00  0.00     0.160 C 
ATOM      2  N3  Y5H d          -2.203  13.452  21.648  0.00  0.00    -0.055 N 
ATOM      3  C7  Y5H d          -2.239  13.440  20.176  0.00  0.00     0.117 C 
ATOM      4  C14 Y5H d          -0.798  13.755  19.737  0.00  0.00    -0.036 C 
ATOM      5  C15 Y5H d          -0.267  14.643  20.875  0.00  0.00    -0.040 C 
ATOM      6  C8  Y5H d          -1.302  14.574  22.014  0.00  0.00     0.085 C 
ATOM      7  C5  Y5H d          -2.732  12.057  19.764  0.00  0.00     0.066 A 
ATOM      8  C2  Y5H d          -2.418  11.174  21.001  0.00  0.00     0.071 A 
ATOM      9  C6  Y5H d          -3.801  10.717  21.444  0.00  0.00     0.234 A 
ATOM     10  O13 Y5H d          -4.089   9.967  22.361  0.00  0.00    -0.272 OA
ATOM     11  C11 Y5H d          -4.231  12.043  19.610  0.00  0.00     0.233 A 
ATOM     12  O18 Y5H d          -4.934  12.578  18.752  0.00  0.00    -0.272 OA
ATOM     13  N12 Y5H d          -4.809  11.296  20.655  0.00  0.00    -0.288 N 
ATOM     14  H4  Y5H d          -0.564  12.090  21.790  0.00  0.00     0.096 H 
ATOM     15  H5  Y5H d          -3.115  13.580  22.059  0.00  0.00     0.281 HD
ATOM     16  H6  Y5H d          -2.924  14.207  19.785  0.00  0.00     0.086 H 
ATOM     17  H7  Y5H d          -0.787  14.296  18.779  0.00  0.00     0.036 H 
ATOM     18  H8  Y5H d          -0.203  12.834  19.645  0.00  0.00     0.036 H 
ATOM     19  H9  Y5H d          -0.156  15.680  20.526  0.00  0.00     0.035 H 
ATOM     20  H10 Y5H d           0.706  14.267  21.224  0.00  0.00     0.035 H 
ATOM     21  H11 Y5H d          -0.806  14.374  22.975  0.00  0.00     0.076 H 
ATOM     22  H12 Y5H d          -1.865  15.516  22.081  0.00  0.00     0.076 H 
ATOM     23  H13 Y5H d          -2.234  11.703  18.850  0.00  0.00     0.059 H 
ATOM     24  H14 Y5H d          -1.792  10.304  20.751  0.00  0.00     0.059 H 
ENDROOT
BRANCH  13  25
ATOM     25  C19 Y5H d          -6.246  11.046  20.852  0.00  0.00     0.007 C 
ATOM     26  H15 Y5H d          -6.377  10.286  21.637  0.00  0.00     0.065 H 
ATOM     27  H16 Y5H d          -6.681  10.680  19.910  0.00  0.00     0.065 H 
BRANCH  25  28
ATOM     28  C21 Y5H d          -6.962  12.337  21.273  0.00  0.00    -0.027 C 
ATOM     29  H17 Y5H d          -8.054  12.207  21.233  0.00  0.00     0.037 H 
ATOM     30  H18 Y5H d          -6.669  13.174  20.623  0.00  0.00     0.037 H 
BRANCH  28  31
ATOM     31  C23 Y5H d          -6.497  12.583  22.721  0.00  0.00     0.086 C 
ATOM     32  H19 Y5H d          -5.423  12.355  22.784  0.00  0.00     0.076 H 
ATOM     33  H20 Y5H d          -7.055  11.906  23.384  0.00  0.00     0.076 H 
BRANCH  31  34
ATOM     34  N29 Y5H d          -6.712  14.005  23.200  0.00  0.00    -0.079 N 
BRANCH  34  35
ATOM     35  C32 Y5H d          -7.662  14.717  22.279  0.00  0.00     0.067 C 
ATOM     36  H21 Y5H d          -7.783  14.134  21.354  0.00  0.00     0.068 H 
ATOM     37  H22 Y5H d          -7.261  15.712  22.036  0.00  0.00     0.068 H 
ATOM     38  H23 Y5H d          -8.639  14.826  22.773  0.00  0.00     0.068 H 
ENDBRANCH  34  35
BRANCH  34  39
ATOM     39  C31 Y5H d          -5.374  14.696  23.074  0.00  0.00     0.067 C 
ATOM     40  H24 Y5H d          -4.707  14.089  22.443  0.00  0.00     0.068 H 
ATOM     41  H25 Y5H d          -4.927  14.815  24.071  0.00  0.00     0.068 H 
ATOM     42  H26 Y5H d          -5.514  15.685  22.615  0.00  0.00     0.068 H 
ENDBRANCH  34  39
BRANCH  34  43
ATOM     43  C30 Y5H d          -7.223  14.082  24.599  0.00  0.00     0.067 C 
ATOM     44  H27 Y5H d          -6.565  13.501  25.262  0.00  0.00     0.068 H 
ATOM     45  H28 Y5H d          -8.242  13.670  24.641  0.00  0.00     0.068 H 
ATOM     46  H29 Y5H d          -7.238  15.132  24.927  0.00  0.00     0.068 H 
ENDBRANCH  34  43
ENDBRANCH  31  34
ENDBRANCH  28  31
ENDBRANCH  25  28
ENDBRANCH  13  25
BRANCH   1  47
ATOM     47  C4  Y5H d          -1.891  11.709  23.417  0.00  0.00     0.091 A 
ATOM     48  N16 Y5H d          -1.434  10.532  23.965  0.00  0.00    -0.224 NA
ATOM     49  C17 Y5H d          -1.829  10.581  25.221  0.00  0.00     0.186 A 
ATOM     50  O10 Y5H d          -2.604  11.654  25.519  0.00  0.00    -0.301 OA
ATOM     51  C9  Y5H d          -2.591  12.377  24.337  0.00  0.00     0.047 A 
ATOM     52  H3  Y5H d          -3.076  13.339  24.182  0.00  0.00     0.126 H 
BRANCH  49  53
ATOM     53  C20 Y5H d          -1.730   9.535  26.228  0.00  0.00     0.059 A 
ATOM     54  C22 Y5H d          -2.644   9.243  27.234  0.00  0.00    -0.060 A 
ATOM     55  C24 Y5H d          -2.324   8.073  27.961  0.00  0.00    -0.054 A 
ATOM     56  H2  Y5H d          -3.521   9.854  27.442  0.00  0.00     0.085 H 
ATOM     57  C25 Y5H d          -1.209   7.465  27.443  0.00  0.00     0.075 A 
ATOM     58  H1  Y5H d          -2.886   7.704  28.817  0.00  0.00     0.086 H 
ATOM     59 CL1  Y5H d          -0.461   5.973  27.971  0.00  0.00    -0.076 Cl
ATOM     60  S1  Y5H d          -0.468   8.348  26.139  0.00  0.00    -0.074 SA
ENDBRANCH  49  53
ENDBRANCH   1  47
TORSDOF 9
ENDMDL
MODEL 4
REMARK VINA RESULT:      -6.7      1.966      2.585
REMARK  9 active torsions:
REMARK  status: ('A' for Active; 'I' for Inactive)
REMARK    1  A    between atoms: C20_6  and  C17_7 
REMARK    2  A    between atoms: C4_11  and  C1_12 
REMARK    3  A    between atoms: N12_24  and  C19_25 
REMARK    4  A    between atoms: C19_25  and  C21_26 
REMARK    5  A    between atoms: C21_26  and  C23_27 
REMARK    6  A    between atoms: C23_27  and  N29_28 
REMARK    7  A    between atoms: N29_28  and  C32_29 
REMARK    8  A    between atoms: N29_28  and  C31_30 
REMARK    9  A    between atoms: N29_28  and  C30_31 
ROOT
ATOM      1  C1  Y5H d          -3.391  12.654  19.962  0.00  0.00     0.160 C 
ATOM      2  N3  Y5H d          -4.449  13.535  20.521  0.00  0.00    -0.055 N 
ATOM      3  C7  Y5H d          -5.301  13.822  19.355  0.00  0.00     0.117 C 
ATOM      4  C14 Y5H d          -4.565  14.932  18.584  0.00  0.00    -0.036 C 
ATOM      5  C15 Y5H d          -3.820  15.698  19.690  0.00  0.00    -0.040 C 
ATOM      6  C8  Y5H d          -3.938  14.853  20.973  0.00  0.00     0.085 C 
ATOM      7  C5  Y5H d          -5.442  12.513  18.586  0.00  0.00     0.066 A 
ATOM      8  C2  Y5H d          -4.213  11.685  19.046  0.00  0.00     0.071 A 
ATOM      9  C6  Y5H d          -4.856  10.487  19.732  0.00  0.00     0.234 A 
ATOM     10  O13 Y5H d          -4.306   9.521  20.234  0.00  0.00    -0.272 OA
ATOM     11  C11 Y5H d          -6.657  11.747  19.044  0.00  0.00     0.233 A 
ATOM     12  O18 Y5H d          -7.850  12.003  18.878  0.00  0.00    -0.272 OA
ATOM     13  N12 Y5H d          -6.255  10.604  19.762  0.00  0.00    -0.288 N 
ATOM     14  H4  Y5H d          -2.674  13.242  19.370  0.00  0.00     0.096 H 
ATOM     15  H5  Y5H d          -4.950  13.073  21.265  0.00  0.00     0.281 HD
ATOM     16  H6  Y5H d          -6.295  14.178  19.662  0.00  0.00     0.086 H 
ATOM     17  H7  Y5H d          -5.277  15.589  18.062  0.00  0.00     0.036 H 
ATOM     18  H8  Y5H d          -3.858  14.506  17.857  0.00  0.00     0.036 H 
ATOM     19  H9  Y5H d          -4.280  16.685  19.843  0.00  0.00     0.035 H 
ATOM     20  H10 Y5H d          -2.762  15.824  19.416  0.00  0.00     0.035 H 
ATOM     21  H11 Y5H d          -2.956  14.742  21.455  0.00  0.00     0.076 H 
ATOM     22  H12 Y5H d          -4.641  15.319  21.679  0.00  0.00     0.076 H 
ATOM     23  H13 Y5H d          -5.462  12.679  17.499  0.00  0.00     0.059 H 
ATOM     24  H14 Y5H d          -3.589  11.350  18.204  0.00  0.00     0.059 H 
ENDROOT
BRANCH  13  25
ATOM     25  C19 Y5H d          -7.147   9.602  20.368  0.00  0.00     0.007 C 
ATOM     26  H15 Y5H d          -7.932  10.116  20.941  0.00  0.00     0.065 H 
ATOM     27  H16 Y5H d          -6.562   8.958  21.042  0.00  0.00     0.065 H 
BRANCH  25  28
ATOM     28  C21 Y5H d          -7.799   8.737  19.281  0.00  0.00    -0.027 C 
ATOM     29  H17 Y5H d          -7.683   9.204  18.291  0.00  0.00     0.037 H 
ATOM     30  H18 Y5H d          -8.867   8.587  19.492  0.00  0.00     0.037 H 
BRANCH  28  31
ATOM     31  C23 Y5H d          -7.038   7.398  19.342  0.00  0.00     0.086 C 
ATOM     32  H19 Y5H d          -7.721   6.629  19.732  0.00  0.00     0.076 H 
ATOM     33  H20 Y5H d          -6.187   7.515  20.030  0.00  0.00     0.076 H 
BRANCH  31  34
ATOM     34  N29 Y5H d          -6.508   6.932  18.001  0.00  0.00    -0.079 N 
BRANCH  34  35
ATOM     35  C32 Y5H d          -7.563   6.140  17.282  0.00  0.00     0.067 C 
ATOM     36  H21 Y5H d          -7.833   5.259  17.882  0.00  0.00     0.068 H 
ATOM     37  H22 Y5H d          -7.175   5.814  16.305  0.00  0.00     0.068 H 
ATOM     38  H23 Y5H d          -8.454   6.768  17.131  0.00  0.00     0.068 H 
ENDBRANCH  34  35
BRANCH  34  39
ATOM     39  C31 Y5H d          -5.374   5.981  18.307  0.00  0.00     0.067 C 
ATOM     40  H24 Y5H d          -4.420   6.528  18.280  0.00  0.00     0.068 H 
ATOM     41  H25 Y5H d          -5.358   5.177  17.557  0.00  0.00     0.068 H 
ATOM     42  H26 Y5H d          -5.520   5.547  19.307  0.00  0.00     0.068 H 
ENDBRANCH  34  39
BRANCH  34  43
ATOM     43  C30 Y5H d          -6.046   8.052  17.131  0.00  0.00     0.067 C 
ATOM     44  H27 Y5H d          -6.346   7.856  16.091  0.00  0.00     0.068 H 
ATOM     45  H28 Y5H d          -4.951   8.133  17.188  0.00  0.00     0.068 H 
ATOM     46  H29 Y5H d          -6.502   8.993  17.472  0.00  0.00     0.068 H 
ENDBRANCH  34  43
ENDBRANCH  31  34
ENDBRANCH  28  31
ENDBRANCH  25  28
ENDBRANCH  13  25
BRANCH   1  47
ATOM     47  C4  Y5H d          -2.634  11.883  21.013  0.00  0.00     0.091 A 
ATOM     48  N16 Y5H d          -3.086  11.702  22.301  0.00  0.00    -0.224 NA
ATOM     49  C17 Y5H d          -2.159  10.960  22.872  0.00  0.00     0.186 A 
ATOM     50  O10 Y5H d          -1.075  10.724  22.090  0.00  0.00    -0.301 OA
ATOM     51  C9  Y5H d          -1.436  11.307  20.885  0.00  0.00     0.047 A 
ATOM     52  H3  Y5H d          -0.836  11.297  19.976  0.00  0.00     0.126 H 
BRANCH  49  53
ATOM     53  C20 Y5H d          -2.061  10.577  24.272  0.00  0.00     0.059 A 
ATOM     54  C22 Y5H d          -2.981  10.829  25.283  0.00  0.00    -0.060 A 
ATOM     55  C24 Y5H d          -2.657  10.199  26.507  0.00  0.00    -0.054 A 
ATOM     56  H2  Y5H d          -3.864  11.452  25.147  0.00  0.00     0.085 H 
ATOM     57  C25 Y5H d          -1.534   9.424  26.375  0.00  0.00     0.075 A 
ATOM     58  H1  Y5H d          -3.224  10.313  27.429  0.00  0.00     0.086 H 
ATOM     59 CL1  Y5H d          -0.779   8.420  27.595  0.00  0.00    -0.076 Cl
ATOM     60  S1  Y5H d          -0.789   9.524  24.806  0.00  0.00    -0.074 SA
ENDBRANCH  49  53
ENDBRANCH   1  47
TORSDOF 9
ENDMDL
MODEL 5
REMARK VINA RESULT:      -6.4      4.210      6.769
REMARK  9 active torsions:
REMARK  status: ('A' for Active; 'I' for Inactive)
REMARK    1  A    between atoms: C20_6  and  C17_7 
REMARK    2  A    between atoms: C4_11  and  C1_12 
REMARK    3  A    between atoms: N12_24  and  C19_25 
REMARK    4  A    between atoms: C19_25  and  C21_26 
REMARK    5  A    between atoms: C21_26  and  C23_27 
REMARK    6  A    between atoms: C23_27  and  N29_28 
REMARK    7  A    between atoms: N29_28  and  C32_29 
REMARK    8  A    between atoms: N29_28  and  C31_30 
REMARK    9  A    between atoms: N29_28  and  C30_31 
ROOT
ATOM      1  C1  Y5H d          -4.436  11.931  22.380  0.00  0.00     0.160 C 
ATOM      2  N3  Y5H d          -4.600  13.409  22.354  0.00  0.00    -0.055 N 
ATOM      3  C7  Y5H d          -3.599  13.877  23.327  0.00  0.00     0.117 C 
ATOM      4  C14 Y5H d          -4.252  13.671  24.706  0.00  0.00    -0.036 C 
ATOM      5  C15 Y5H d          -5.753  13.840  24.416  0.00  0.00    -0.040 C 
ATOM      6  C8  Y5H d          -5.911  13.863  22.884  0.00  0.00     0.085 C 
ATOM      7  C5  Y5H d          -2.344  13.042  23.097  0.00  0.00     0.066 A 
ATOM      8  C2  Y5H d          -2.878  11.769  22.385  0.00  0.00     0.071 A 
ATOM      9  C6  Y5H d          -2.186  11.829  21.031  0.00  0.00     0.234 A 
ATOM     10  O13 Y5H d          -2.250  11.026  20.116  0.00  0.00    -0.272 OA
ATOM     11  C11 Y5H d          -1.422  13.714  22.112  0.00  0.00     0.233 A 
ATOM     12  O18 Y5H d          -0.749  14.737  22.245  0.00  0.00    -0.272 OA
ATOM     13  N12 Y5H d          -1.416  12.996  20.900  0.00  0.00    -0.288 N 
ATOM     14  H4  Y5H d          -4.879  11.511  23.294  0.00  0.00     0.096 H 
ATOM     15  H5  Y5H d          -4.444  13.775  21.427  0.00  0.00     0.281 HD
ATOM     16  H6  Y5H d          -3.365  14.941  23.181  0.00  0.00     0.086 H 
ATOM     17  H7  Y5H d          -3.902  14.426  25.424  0.00  0.00     0.036 H 
ATOM     18  H8  Y5H d          -4.038  12.665  25.097  0.00  0.00     0.036 H 
ATOM     19  H9  Y5H d          -6.117  14.784  24.848  0.00  0.00     0.035 H 
ATOM     20  H10 Y5H d          -6.318  12.999  24.842  0.00  0.00     0.035 H 
ATOM     21  H11 Y5H d          -6.713  13.181  22.567  0.00  0.00     0.076 H 
ATOM     22  H12 Y5H d          -6.137  14.881  22.533  0.00  0.00     0.076 H 
ATOM     23  H13 Y5H d          -1.825  12.817  24.040  0.00  0.00     0.059 H 
ATOM     24  H14 Y5H d          -2.602  10.844  22.912  0.00  0.00     0.059 H 
ENDROOT
BRANCH  13  25
ATOM     25  C19 Y5H d          -0.638  13.333  19.697  0.00  0.00     0.007 C 
ATOM     26  H15 Y5H d          -0.543  12.437  19.065  0.00  0.00     0.065 H 
ATOM     27  H16 Y5H d           0.362  13.677  19.998  0.00  0.00     0.065 H 
BRANCH  25  28
ATOM     28  C21 Y5H d          -1.337  14.443  18.899  0.00  0.00    -0.027 C 
ATOM     29  H17 Y5H d          -0.600  15.149  18.489  0.00  0.00     0.037 H 
ATOM     30  H18 Y5H d          -2.052  14.986  19.533  0.00  0.00     0.037 H 
BRANCH  28  31
ATOM     31  C23 Y5H d          -2.069  13.701  17.764  0.00  0.00     0.086 C 
ATOM     32  H19 Y5H d          -3.150  13.871  17.880  0.00  0.00     0.076 H 
ATOM     33  H20 Y5H d          -1.855  12.626  17.857  0.00  0.00     0.076 H 
BRANCH  31  34
ATOM     34  N29 Y5H d          -1.662  14.151  16.375  0.00  0.00    -0.079 N 
BRANCH  34  35
ATOM     35  C32 Y5H d          -2.630  13.616  15.359  0.00  0.00     0.067 C 
ATOM     36  H21 Y5H d          -2.075  13.232  14.490  0.00  0.00     0.068 H 
ATOM     37  H22 Y5H d          -3.306  14.422  15.035  0.00  0.00     0.068 H 
ATOM     38  H23 Y5H d          -3.218  12.801  15.807  0.00  0.00     0.068 H 
ENDBRANCH  34  35
BRANCH  34  39
ATOM     39  C31 Y5H d          -0.327  13.499  16.100  0.00  0.00     0.067 C 
ATOM     40  H24 Y5H d          -0.049  13.663  15.048  0.00  0.00     0.068 H 
ATOM     41  H25 Y5H d          -0.399  12.419  16.296  0.00  0.00     0.068 H 
ATOM     42  H26 Y5H d           0.439  13.939  16.755  0.00  0.00     0.068 H 
ENDBRANCH  34  39
BRANCH  34  43
ATOM     43  C30 Y5H d          -1.569  15.633  16.242  0.00  0.00     0.067 C 
ATOM     44  H27 Y5H d          -2.531  16.087  16.525  0.00  0.00     0.068 H 
ATOM     45  H28 Y5H d          -1.332  15.894  15.201  0.00  0.00     0.068 H 
ATOM     46  H29 Y5H d          -0.777  16.012  16.905  0.00  0.00     0.068 H 
ENDBRANCH  34  43
ENDBRANCH  31  34
ENDBRANCH  28  31
ENDBRANCH  25  28
ENDBRANCH  13  25
BRANCH   1  47
ATOM     47  C4  Y5H d          -5.041  11.240  21.185  0.00  0.00     0.091 A 
ATOM     48  N16 Y5H d          -4.990   9.879  20.983  0.00  0.00    -0.224 NA
ATOM     49  C17 Y5H d          -5.654   9.690  19.861  0.00  0.00     0.186 A 
ATOM     50  O10 Y5H d          -6.050  10.835  19.249  0.00  0.00    -0.301 OA
ATOM     51  C9  Y5H d          -5.667  11.812  20.153  0.00  0.00     0.047 A 
ATOM     52  H3  Y5H d          -5.848  12.880  20.040  0.00  0.00     0.126 H 
BRANCH  49  53
ATOM     53  C20 Y5H d          -5.799   8.453  19.109  0.00  0.00     0.059 A 
ATOM     54  C22 Y5H d          -4.867   7.430  18.976  0.00  0.00    -0.060 A 
ATOM     55  C24 Y5H d          -5.369   6.297  18.296  0.00  0.00    -0.054 A 
ATOM     56  H2  Y5H d          -3.850   7.495  19.358  0.00  0.00     0.085 H 
ATOM     57  C25 Y5H d          -6.696   6.459  17.988  0.00  0.00     0.075 A 
ATOM     58  H1  Y5H d          -4.782   5.414  18.049  0.00  0.00     0.086 H 
ATOM     59 CL1  Y5H d          -7.757   5.315  17.195  0.00  0.00    -0.076 Cl
ATOM     60  S1  Y5H d          -7.332   8.021  18.420  0.00  0.00    -0.074 SA
ENDBRANCH  49  53
ENDBRANCH   1  47
TORSDOF 9
ENDMDL
MODEL 6
REMARK VINA RESULT:      -6.2      4.178      7.943
REMARK  9 active torsions:
REMARK  status: ('A' for Active; 'I' for Inactive)
REMARK    1  A    between atoms: C20_6  and  C17_7 
REMARK    2  A    between atoms: C4_11  and  C1_12 
REMARK    3  A    between atoms: N12_24  and  C19_25 
REMARK    4  A    between atoms: C19_25  and  C21_26 
REMARK    5  A    between atoms: C21_26  and  C23_27 
REMARK    6  A    between atoms: C23_27  and  N29_28 
REMARK    7  A    between atoms: N29_28  and  C32_29 
REMARK    8  A    between atoms: N29_28  and  C31_30 
REMARK    9  A    between atoms: N29_28  and  C30_31 
ROOT
ATOM      1  C1  Y5H d          -3.080  13.759  17.660  0.00  0.00     0.160 C 
ATOM      2  N3  Y5H d          -1.742  13.197  17.336  0.00  0.00    -0.055 N 
ATOM      3  C7  Y5H d          -0.813  14.179  17.922  0.00  0.00     0.117 C 
ATOM      4  C14 Y5H d          -0.751  15.330  16.902  0.00  0.00    -0.036 C 
ATOM      5  C15 Y5H d          -0.994  14.626  15.557  0.00  0.00    -0.040 C 
ATOM      6  C8  Y5H d          -1.445  13.189  15.881  0.00  0.00     0.085 C 
ATOM      7  C5  Y5H d          -1.392  14.571  19.277  0.00  0.00     0.066 A 
ATOM      8  C2  Y5H d          -2.898  14.217  19.147  0.00  0.00     0.071 A 
ATOM      9  C6  Y5H d          -3.082  13.147  20.213  0.00  0.00     0.234 A 
ATOM     10  O13 Y5H d          -4.108  12.571  20.533  0.00  0.00    -0.272 OA
ATOM     11  C11 Y5H d          -0.849  13.689  20.371  0.00  0.00     0.233 A 
ATOM     12  O18 Y5H d           0.288  13.639  20.842  0.00  0.00    -0.272 OA
ATOM     13  N12 Y5H d          -1.865  12.834  20.840  0.00  0.00    -0.288 N 
ATOM     14  H4  Y5H d          -3.305  14.615  17.008  0.00  0.00     0.096 H 
ATOM     15  H5  Y5H d          -1.631  12.274  17.727  0.00  0.00     0.281 HD
ATOM     16  H6  Y5H d           0.190  13.749  18.060  0.00  0.00     0.086 H 
ATOM     17  H7  Y5H d           0.235  15.817  16.918  0.00  0.00     0.036 H 
ATOM     18  H8  Y5H d          -1.533  16.077  17.103  0.00  0.00     0.036 H 
ATOM     19  H9  Y5H d          -0.067  14.607  14.966  0.00  0.00     0.035 H 
ATOM     20  H10 Y5H d          -1.779  15.150  14.992  0.00  0.00     0.035 H 
ATOM     21  H11 Y5H d          -2.344  12.926  15.305  0.00  0.00     0.076 H 
ATOM     22  H12 Y5H d          -0.642  12.472  15.655  0.00  0.00     0.076 H 
ATOM     23  H13 Y5H d          -1.222  15.635  19.500  0.00  0.00     0.059 H 
ATOM     24  H14 Y5H d          -3.553  15.077  19.354  0.00  0.00     0.059 H 
ENDROOT
BRANCH  13  25
ATOM     25  C19 Y5H d          -1.729  11.829  21.907  0.00  0.00     0.007 C 
ATOM     26  H15 Y5H d          -0.736  11.361  21.839  0.00  0.00     0.065 H 
ATOM     27  H16 Y5H d          -2.506  11.061  21.781  0.00  0.00     0.065 H 
BRANCH  25  28
ATOM     28  C21 Y5H d          -1.885  12.486  23.286  0.00  0.00    -0.027 C 
ATOM     29  H17 Y5H d          -1.900  13.582  23.195  0.00  0.00     0.037 H 
ATOM     30  H18 Y5H d          -1.065  12.185  23.954  0.00  0.00     0.037 H 
BRANCH  28  31
ATOM     31  C23 Y5H d          -3.237  11.966  23.812  0.00  0.00     0.086 C 
ATOM     32  H19 Y5H d          -3.047  11.347  24.701  0.00  0.00     0.076 H 
ATOM     33  H20 Y5H d          -3.699  11.349  23.027  0.00  0.00     0.076 H 
BRANCH  31  34
ATOM     34  N29 Y5H d          -4.209  13.064  24.193  0.00  0.00    -0.079 N 
BRANCH  34  35
ATOM     35  C32 Y5H d          -4.328  13.147  25.688  0.00  0.00     0.067 C 
ATOM     36  H21 Y5H d          -3.869  14.082  26.041  0.00  0.00     0.068 H 
ATOM     37  H22 Y5H d          -3.811  12.289  26.145  0.00  0.00     0.068 H 
ATOM     38  H23 Y5H d          -5.390  13.130  25.973  0.00  0.00     0.068 H 
ENDBRANCH  34  35
BRANCH  34  39
ATOM     39  C31 Y5H d          -5.557  12.629  23.666  0.00  0.00     0.067 C 
ATOM     40  H24 Y5H d          -6.304  12.693  24.472  0.00  0.00     0.068 H 
ATOM     41  H25 Y5H d          -5.494  11.591  23.308  0.00  0.00     0.068 H 
ATOM     42  H26 Y5H d          -5.856  13.285  22.836  0.00  0.00     0.068 H 
ENDBRANCH  34  39
BRANCH  34  43
ATOM     43  C30 Y5H d          -3.829  14.399  23.648  0.00  0.00     0.067 C 
ATOM     44  H27 Y5H d          -4.458  14.632  22.776  0.00  0.00     0.068 H 
ATOM     45  H28 Y5H d          -2.773  14.384  23.345  0.00  0.00     0.068 H 
ATOM     46  H29 Y5H d          -3.978  15.166  24.422  0.00  0.00     0.068 H 
ENDBRANCH  34  43
ENDBRANCH  31  34
ENDBRANCH  28  31
ENDBRANCH  25  28
ENDBRANCH  13  25
BRANCH   1  47
ATOM     47  C4  Y5H d          -4.197  12.753  17.543  0.00  0.00     0.091 A 
ATOM     48  N16 Y5H d          -4.008  11.391  17.611  0.00  0.00    -0.224 NA
ATOM     49  C17 Y5H d          -5.220  10.887  17.498  0.00  0.00     0.186 A 
ATOM     50  O10 Y5H d          -6.186  11.809  17.255  0.00  0.00    -0.301 OA
ATOM     51  C9  Y5H d          -5.490  13.005  17.327  0.00  0.00     0.047 A 
ATOM     52  H3  Y5H d          -5.929  13.997  17.224  0.00  0.00     0.126 H 
BRANCH  49  53
ATOM     53  C20 Y5H d          -5.596   9.487  17.374  0.00  0.00     0.059 A 
ATOM     54  C22 Y5H d          -5.974   8.814  16.218  0.00  0.00    -0.060 A 
ATOM     55  C24 Y5H d          -6.138   7.422  16.407  0.00  0.00    -0.054 A 
ATOM     56  H2  Y5H d          -6.129   9.309  15.261  0.00  0.00     0.085 H 
ATOM     57  C25 Y5H d          -5.812   7.061  17.688  0.00  0.00     0.075 A 
ATOM     58  H1  Y5H d          -6.478   6.730  15.638  0.00  0.00     0.086 H 
ATOM     59 CL1  Y5H d          -5.811   5.452  18.378  0.00  0.00    -0.076 Cl
ATOM     60  S1  Y5H d          -5.404   8.405  18.716  0.00  0.00    -0.074 SA
ENDBRANCH  49  53
ENDBRANCH   1  47
TORSDOF 9
ENDMDL
MODEL 7
REMARK VINA RESULT:      -6.1      3.008      4.935
REMARK  9 active torsions:
REMARK  status: ('A' for Active; 'I' for Inactive)
REMARK    1  A    between atoms: C20_6  and  C17_7 
REMARK    2  A    between atoms: C4_11  and  C1_12 
REMARK    3  A    between atoms: N12_24  and  C19_25 
REMARK    4  A    between atoms: C19_25  and  C21_26 
REMARK    5  A    between atoms: C21_26  and  C23_27 
REMARK    6  A    between atoms: C23_27  and  N29_28 
REMARK    7  A    between atoms: N29_28  and  C32_29 
REMARK    8  A    between atoms: N29_28  and  C31_30 
REMARK    9  A    between atoms: N29_28  and  C30_31 
ROOT
ATOM      1  C1  Y5H d          -1.992  13.091  20.666  0.00  0.00     0.160 C 
ATOM      2  N3  Y5H d          -2.316  14.377  21.338  0.00  0.00    -0.055 N 
ATOM      3  C7  Y5H d          -3.036  15.130  20.297  0.00  0.00     0.117 C 
ATOM      4  C14 Y5H d          -1.937  15.703  19.384  0.00  0.00    -0.036 C 
ATOM      5  C15 Y5H d          -0.748  15.896  20.340  0.00  0.00    -0.040 C 
ATOM      6  C8  Y5H d          -1.116  15.191  21.659  0.00  0.00     0.085 C 
ATOM      7  C5  Y5H d          -3.968  14.138  19.609  0.00  0.00     0.066 A 
ATOM      8  C2  Y5H d          -3.327  12.759  19.918  0.00  0.00     0.071 A 
ATOM      9  C6  Y5H d          -4.407  12.066  20.737  0.00  0.00     0.234 A 
ATOM     10  O13 Y5H d          -4.399  10.934  21.191  0.00  0.00    -0.272 OA
ATOM     11  C11 Y5H d          -5.324  14.126  20.268  0.00  0.00     0.233 A 
ATOM     12  O18 Y5H d          -6.200  14.991  20.268  0.00  0.00    -0.272 OA
ATOM     13  N12 Y5H d          -5.502  12.916  20.965  0.00  0.00    -0.288 N 
ATOM     14  H4  Y5H d          -1.165  13.228  19.953  0.00  0.00     0.096 H 
ATOM     15  H5  Y5H d          -2.873  14.224  22.164  0.00  0.00     0.281 HD
ATOM     16  H6  Y5H d          -3.626  15.950  20.731  0.00  0.00     0.086 H 
ATOM     17  H7  Y5H d          -2.250  16.662  18.946  0.00  0.00     0.036 H 
ATOM     18  H8  Y5H d          -1.684  14.997  18.580  0.00  0.00     0.036 H 
ATOM     19  H9  Y5H d          -0.576  16.968  20.519  0.00  0.00     0.035 H 
ATOM     20  H10 Y5H d           0.160  15.447  19.910  0.00  0.00     0.035 H 
ATOM     21  H11 Y5H d          -0.292  14.547  21.997  0.00  0.00     0.076 H 
ATOM     22  H12 Y5H d          -1.349  15.929  22.440  0.00  0.00     0.076 H 
ATOM     23  H13 Y5H d          -4.051  14.338  18.531  0.00  0.00     0.059 H 
ATOM     24  H14 Y5H d          -3.110  12.180  19.008  0.00  0.00     0.059 H 
ENDROOT
BRANCH  13  25
ATOM     25  C19 Y5H d          -6.695  12.524  21.733  0.00  0.00     0.007 C 
ATOM     26  H15 Y5H d          -7.006  11.514  21.428  0.00  0.00     0.065 H 
ATOM     27  H16 Y5H d          -7.507  13.237  21.527  0.00  0.00     0.065 H 
BRANCH  25  28
ATOM     28  C21 Y5H d          -6.390  12.527  23.237  0.00  0.00    -0.027 C 
ATOM     29  H17 Y5H d          -5.316  12.371  23.417  0.00  0.00     0.037 H 
ATOM     30  H18 Y5H d          -6.965  11.744  23.752  0.00  0.00     0.037 H 
BRANCH  28  31
ATOM     31  C23 Y5H d          -6.824  13.925  23.718  0.00  0.00     0.086 C 
ATOM     32  H19 Y5H d          -7.680  13.808  24.398  0.00  0.00     0.076 H 
ATOM     33  H20 Y5H d          -7.130  14.514  22.841  0.00  0.00     0.076 H 
BRANCH  31  34
ATOM     34  N29 Y5H d          -5.735  14.687  24.448  0.00  0.00    -0.079 N 
BRANCH  34  35
ATOM     35  C32 Y5H d          -6.278  15.252  25.730  0.00  0.00     0.067 C 
ATOM     36  H21 Y5H d          -5.448  15.634  26.343  0.00  0.00     0.068 H 
ATOM     37  H22 Y5H d          -6.808  14.462  26.283  0.00  0.00     0.068 H 
ATOM     38  H23 Y5H d          -6.974  16.073  25.504  0.00  0.00     0.068 H 
ENDBRANCH  34  35
BRANCH  34  39
ATOM     39  C31 Y5H d          -5.381  15.860  23.564  0.00  0.00     0.067 C 
ATOM     40  H24 Y5H d          -6.043  15.869  22.685  0.00  0.00     0.068 H 
ATOM     41  H25 Y5H d          -4.336  15.770  23.235  0.00  0.00     0.068 H 
ATOM     42  H26 Y5H d          -5.508  16.796  24.128  0.00  0.00     0.068 H 
ENDBRANCH  34  39
BRANCH  34  43
ATOM     43  C30 Y5H d          -4.532  13.856  24.739  0.00  0.00     0.067 C 
ATOM     44  H27 Y5H d          -4.299  13.230  23.865  0.00  0.00     0.068 H 
ATOM     45  H28 Y5H d          -4.732  13.212  25.608  0.00  0.00     0.068 H 
ATOM     46  H29 Y5H d          -3.677  14.512  24.958  0.00  0.00     0.068 H 
ENDBRANCH  34  43
ENDBRANCH  31  34
ENDBRANCH  28  31
ENDBRANCH  25  28
ENDBRANCH  13  25
BRANCH   1  47
ATOM     47  C4  Y5H d          -1.627  11.988  21.626  0.00  0.00     0.091 A 
ATOM     48  N16 Y5H d          -2.088  11.919  22.921  0.00  0.00    -0.224 NA
ATOM     49  C17 Y5H d          -1.567  10.805  23.395  0.00  0.00     0.186 A 
ATOM     50  O10 Y5H d          -0.710  10.186  22.544  0.00  0.00    -0.301 OA
ATOM     51  C9  Y5H d          -0.803  10.961  21.400  0.00  0.00     0.047 A 
ATOM     52  H3  Y5H d          -0.285  10.764  20.462  0.00  0.00     0.126 H 
BRANCH  49  53
ATOM     53  C20 Y5H d          -1.620  10.307  24.761  0.00  0.00     0.059 A 
ATOM     54  C22 Y5H d          -2.583  10.583  25.724  0.00  0.00    -0.060 A 
ATOM     55  C24 Y5H d          -2.425   9.828  26.910  0.00  0.00    -0.054 A 
ATOM     56  H2  Y5H d          -3.381  11.310  25.581  0.00  0.00     0.085 H 
ATOM     57  C25 Y5H d          -1.384   8.945  26.791  0.00  0.00     0.075 A 
ATOM     58  H1  Y5H d          -3.046   9.935  27.797  0.00  0.00     0.086 H 
ATOM     59 CL1  Y5H d          -0.837   7.772  27.970  0.00  0.00    -0.076 Cl
ATOM     60  S1  Y5H d          -0.513   9.081  25.290  0.00  0.00    -0.074 SA
ENDBRANCH  49  53
ENDBRANCH   1  47
TORSDOF 9
ENDMDL
MODEL 8
REMARK VINA RESULT:      -6.0      1.751      2.263
REMARK  9 active torsions:
REMARK  status: ('A' for Active; 'I' for Inactive)
REMARK    1  A    between atoms: C20_6  and  C17_7 
REMARK    2  A    between atoms: C4_11  and  C1_12 
REMARK    3  A    between atoms: N12_24  and  C19_25 
REMARK    4  A    between atoms: C19_25  and  C21_26 
REMARK    5  A    between atoms: C21_26  and  C23_27 
REMARK    6  A    between atoms: C23_27  and  N29_28 
REMARK    7  A    between atoms: N29_28  and  C32_29 
REMARK    8  A    between atoms: N29_28  and  C31_30 
REMARK    9  A    between atoms: N29_28  and  C30_31 
ROOT
ATOM      1  C1  Y5H d          -4.611  14.144  21.318  0.00  0.00     0.160 C 
ATOM      2  N3  Y5H d          -5.984  13.637  21.578  0.00  0.00    -0.055 N 
ATOM      3  C7  Y5H d          -6.722  14.025  20.364  0.00  0.00     0.117 C 
ATOM      4  C14 Y5H d          -7.065  15.513  20.561  0.00  0.00    -0.036 C 
ATOM      5  C15 Y5H d          -7.194  15.647  22.087  0.00  0.00    -0.040 C 
ATOM      6  C8  Y5H d          -6.667  14.335  22.697  0.00  0.00     0.085 C 
ATOM      7  C5  Y5H d          -5.798  13.746  19.184  0.00  0.00     0.066 A 
ATOM      8  C2  Y5H d          -4.383  13.739  19.822  0.00  0.00     0.071 A 
ATOM      9  C6  Y5H d          -3.911  12.313  19.571  0.00  0.00     0.234 A 
ATOM     10  O13 Y5H d          -2.834  11.815  19.854  0.00  0.00    -0.272 OA
ATOM     11  C11 Y5H d          -6.019  12.356  18.643  0.00  0.00     0.233 A 
ATOM     12  O18 Y5H d          -6.984  11.901  18.028  0.00  0.00    -0.272 OA
ATOM     13  N12 Y5H d          -4.910  11.544  18.953  0.00  0.00    -0.288 N 
ATOM     14  H4  Y5H d          -4.575  15.237  21.440  0.00  0.00     0.096 H 
ATOM     15  H5  Y5H d          -5.981  12.640  21.729  0.00  0.00     0.281 HD
ATOM     16  H6  Y5H d          -7.648  13.441  20.253  0.00  0.00     0.086 H 
ATOM     17  H7  Y5H d          -8.011  15.768  20.062  0.00  0.00     0.036 H 
ATOM     18  H8  Y5H d          -6.261  16.157  20.175  0.00  0.00     0.036 H 
ATOM     19  H9  Y5H d          -8.247  15.798  22.366  0.00  0.00     0.035 H 
ATOM     20  H10 Y5H d          -6.595  16.498  22.444  0.00  0.00     0.035 H 
ATOM     21  H11 Y5H d          -5.958  14.544  23.511  0.00  0.00     0.076 H 
ATOM     22  H12 Y5H d          -7.498  13.726  23.082  0.00  0.00     0.076 H 
ATOM     23  H13 Y5H d          -5.905  14.503  18.394  0.00  0.00     0.059 H 
ATOM     24  H14 Y5H d          -3.699  14.455  19.343  0.00  0.00     0.059 H 
ENDROOT
BRANCH  13  25
ATOM     25  C19 Y5H d          -4.746  10.127  18.593  0.00  0.00     0.007 C 
ATOM     26  H15 Y5H d          -3.696   9.834  18.746  0.00  0.00     0.065 H 
ATOM     27  H16 Y5H d          -5.015   9.988  17.535  0.00  0.00     0.065 H 
BRANCH  25  28
ATOM     28  C21 Y5H d          -5.649   9.243  19.465  0.00  0.00    -0.027 C 
ATOM     29  H17 Y5H d          -6.709   9.414  19.224  0.00  0.00     0.037 H 
ATOM     30  H18 Y5H d          -5.478   9.447  20.532  0.00  0.00     0.037 H 
BRANCH  28  31
ATOM     31  C23 Y5H d          -5.237   7.801  19.113  0.00  0.00     0.086 C 
ATOM     32  H19 Y5H d          -5.171   7.222  20.046  0.00  0.00     0.076 H 
ATOM     33  H20 Y5H d          -4.249   7.831  18.630  0.00  0.00     0.076 H 
BRANCH  31  34
ATOM     34  N29 Y5H d          -6.203   7.098  18.181  0.00  0.00    -0.079 N 
BRANCH  34  35
ATOM     35  C32 Y5H d          -5.969   7.547  16.766  0.00  0.00     0.067 C 
ATOM     36  H21 Y5H d          -5.212   6.901  16.297  0.00  0.00     0.068 H 
ATOM     37  H22 Y5H d          -5.613   8.588  16.766  0.00  0.00     0.068 H 
ATOM     38  H23 Y5H d          -6.909   7.480  16.200  0.00  0.00     0.068 H 
ENDBRANCH  34  35
BRANCH  34  39
ATOM     39  C31 Y5H d          -7.583   7.575  18.572  0.00  0.00     0.067 C 
ATOM     40  H24 Y5H d          -8.335   6.859  18.209  0.00  0.00     0.068 H 
ATOM     41  H25 Y5H d          -7.770   8.562  18.124  0.00  0.00     0.068 H 
ATOM     42  H26 Y5H d          -7.647   7.652  19.667  0.00  0.00     0.068 H 
ENDBRANCH  34  39
BRANCH  34  43
ATOM     43  C30 Y5H d          -6.112   5.611  18.253  0.00  0.00     0.067 C 
ATOM     44  H27 Y5H d          -6.176   5.291  19.304  0.00  0.00     0.068 H 
ATOM     45  H28 Y5H d          -5.153   5.282  17.827  0.00  0.00     0.068 H 
ATOM     46  H29 Y5H d          -6.940   5.165  17.683  0.00  0.00     0.068 H 
ENDBRANCH  34  43
ENDBRANCH  31  34
ENDBRANCH  28  31
ENDBRANCH  25  28
ENDBRANCH  13  25
BRANCH   1  47
ATOM     47  C4  Y5H d          -3.564  13.522  22.207  0.00  0.00     0.091 A 
ATOM     48  N16 Y5H d          -3.825  12.506  23.098  0.00  0.00    -0.224 NA
ATOM     49  C17 Y5H d          -2.654  12.238  23.640  0.00  0.00     0.186 A 
ATOM     50  O10 Y5H d          -1.657  13.073  23.251  0.00  0.00    -0.301 OA
ATOM     51  C9  Y5H d          -2.277  13.865  22.299  0.00  0.00     0.047 A 
ATOM     52  H3  Y5H d          -1.790  14.646  21.716  0.00  0.00     0.126 H 
BRANCH  49  53
ATOM     53  C20 Y5H d          -2.368  11.335  24.744  0.00  0.00     0.059 A 
ATOM     54  C22 Y5H d          -3.111  11.161  25.906  0.00  0.00    -0.060 A 
ATOM     55  C24 Y5H d          -2.643  10.101  26.718  0.00  0.00    -0.054 A 
ATOM     56  H2  Y5H d          -3.969  11.779  26.166  0.00  0.00     0.085 H 
ATOM     57  C25 Y5H d          -1.597   9.451  26.118  0.00  0.00     0.075 A 
ATOM     58  H1  Y5H d          -3.059   9.838  27.690  0.00  0.00     0.086 H 
ATOM     59 CL1  Y5H d          -0.724   8.054  26.712  0.00  0.00    -0.076 Cl
ATOM     60  S1  Y5H d          -1.091  10.168  24.615  0.00  0.00    -0.074 SA
ENDBRANCH  49  53
ENDBRANCH   1  47
TORSDOF 9
ENDMDL
MODEL 9
REMARK VINA RESULT:      -5.9      2.335      2.955
REMARK  9 active torsions:
REMARK  status: ('A' for Active; 'I' for Inactive)
REMARK    1  A    between atoms: C20_6  and  C17_7 
REMARK    2  A    between atoms: C4_11  and  C1_12 
REMARK    3  A    between atoms: N12_24  and  C19_25 
REMARK    4  A    between atoms: C19_25  and  C21_26 
REMARK    5  A    between atoms: C21_26  and  C23_27 
REMARK    6  A    between atoms: C23_27  and  N29_28 
REMARK    7  A    between atoms: N29_28  and  C32_29 
REMARK    8  A    between atoms: N29_28  and  C31_30 
REMARK    9  A    between atoms: N29_28  and  C30_31 
ROOT
ATOM      1  C1  Y5H d          -1.610  13.174  20.566  0.00  0.00     0.160 C 
ATOM      2  N3  Y5H d          -2.334  14.347  21.123  0.00  0.00    -0.055 N 
ATOM      3  C7  Y5H d          -2.922  14.978  19.930  0.00  0.00     0.117 C 
ATOM      4  C14 Y5H d          -1.776  15.787  19.297  0.00  0.00    -0.036 C 
ATOM      5  C15 Y5H d          -0.909  16.179  20.505  0.00  0.00    -0.040 C 
ATOM      6  C8  Y5H d          -1.431  15.371  21.708  0.00  0.00     0.085 C 
ATOM      7  C5  Y5H d          -3.449  13.846  19.054  0.00  0.00     0.066 A 
ATOM      8  C2  Y5H d          -2.638  12.611  19.527  0.00  0.00     0.071 A 
ATOM      9  C6  Y5H d          -3.720  11.691  20.076  0.00  0.00     0.234 A 
ATOM     10  O13 Y5H d          -3.594  10.568  20.535  0.00  0.00    -0.272 OA
ATOM     11  C11 Y5H d          -4.892  13.545  19.372  0.00  0.00     0.233 A 
ATOM     12  O18 Y5H d          -5.897  14.220  19.150  0.00  0.00    -0.272 OA
ATOM     13  N12 Y5H d          -4.984  12.300  20.024  0.00  0.00    -0.288 N 
ATOM     14  H4  Y5H d          -0.683  13.495  20.069  0.00  0.00     0.096 H 
ATOM     15  H5  Y5H d          -3.029  14.060  21.795  0.00  0.00     0.281 HD
ATOM     16  H6  Y5H d          -3.749  15.651  20.199  0.00  0.00     0.086 H 
ATOM     17  H7  Y5H d          -2.161  16.680  18.783  0.00  0.00     0.036 H 
ATOM     18  H8  Y5H d          -1.205  15.172  18.586  0.00  0.00     0.036 H 
ATOM     19  H9  Y5H d          -1.002  17.256  20.704  0.00  0.00     0.035 H 
ATOM     20  H10 Y5H d           0.145  15.931  20.311  0.00  0.00     0.035 H 
ATOM     21  H11 Y5H d          -0.598  14.891  22.242  0.00  0.00     0.076 H 
ATOM     22  H12 Y5H d          -1.983  16.022  22.401  0.00  0.00     0.076 H 
ATOM     23  H13 Y5H d          -3.313  14.061  17.984  0.00  0.00     0.059 H 
ATOM     24  H14 Y5H d          -2.101  12.117  18.703  0.00  0.00     0.059 H 
ENDROOT
BRANCH  13  25
ATOM     25  C19 Y5H d          -6.222  11.656  20.491  0.00  0.00     0.007 C 
ATOM     26  H15 Y5H d          -7.074  12.326  20.298  0.00  0.00     0.065 H 
ATOM     27  H16 Y5H d          -6.145  11.464  21.571  0.00  0.00     0.065 H 
BRANCH  25  28
ATOM     28  C21 Y5H d          -6.447  10.328  19.755  0.00  0.00    -0.027 C 
ATOM     29  H17 Y5H d          -7.282   9.771  20.205  0.00  0.00     0.037 H 
ATOM     30  H18 Y5H d          -5.538   9.710  19.782  0.00  0.00     0.037 H 
BRANCH  28  31
ATOM     31  C23 Y5H d          -6.785  10.739  18.309  0.00  0.00     0.086 C 
ATOM     32  H19 Y5H d          -6.533  11.802  18.183  0.00  0.00     0.076 H 
ATOM     33  H20 Y5H d          -7.864  10.596  18.151  0.00  0.00     0.076 H 
BRANCH  31  34
ATOM     34  N29 Y5H d          -6.039   9.943  17.256  0.00  0.00    -0.079 N 
BRANCH  34  35
ATOM     35  C32 Y5H d          -5.312   8.797  17.901  0.00  0.00     0.067 C 
ATOM     36  H21 Y5H d          -4.228   8.973  17.846  0.00  0.00     0.068 H 
ATOM     37  H22 Y5H d          -5.559   7.863  17.373  0.00  0.00     0.068 H 
ATOM     38  H23 Y5H d          -5.618   8.715  18.954  0.00  0.00     0.068 H 
ENDBRANCH  34  35
BRANCH  34  39
ATOM     39  C31 Y5H d          -4.988  10.874  16.697  0.00  0.00     0.067 C 
ATOM     40  H24 Y5H d          -4.129  10.911  17.383  0.00  0.00     0.068 H 
ATOM     41  H25 Y5H d          -5.412  11.882  16.585  0.00  0.00     0.068 H 
ATOM     42  H26 Y5H d          -4.657  10.505  15.715  0.00  0.00     0.068 H 
ENDBRANCH  34  39
BRANCH  34  43
ATOM     43  C30 Y5H d          -6.925   9.426  16.174  0.00  0.00     0.067 C 
ATOM     44  H27 Y5H d          -7.873   9.985  16.178  0.00  0.00     0.068 H 
ATOM     45  H28 Y5H d          -7.128   8.359  16.345  0.00  0.00     0.068 H 
ATOM     46  H29 Y5H d          -6.429   9.554  15.201  0.00  0.00     0.068 H 
ENDBRANCH  34  43
ENDBRANCH  31  34
ENDBRANCH  28  31
ENDBRANCH  25  28
ENDBRANCH  13  25
BRANCH   1  47
ATOM     47  C4  Y5H d          -1.270  12.132  21.602  0.00  0.00     0.091 A 
ATOM     48  N16 Y5H d          -1.939  11.997  22.797  0.00  0.00    -0.224 NA
ATOM     49  C17 Y5H d          -1.360  10.968  23.382  0.00  0.00     0.186 A 
ATOM     50  O10 Y5H d          -0.287  10.478  22.710  0.00  0.00    -0.301 OA
ATOM     51  C9  Y5H d          -0.284  11.234  21.548  0.00  0.00     0.047 A 
ATOM     52  H3  Y5H d           0.414  11.113  20.721  0.00  0.00     0.126 H 
BRANCH  49  53
ATOM     53  C20 Y5H d          -1.583  10.466  24.729  0.00  0.00     0.059 A 
ATOM     54  C22 Y5H d          -2.618  10.800  25.594  0.00  0.00    -0.060 A 
ATOM     55  C24 Y5H d          -2.630  10.029  26.780  0.00  0.00    -0.054 A 
ATOM     56  H2  Y5H d          -3.348  11.580  25.381  0.00  0.00     0.085 H 
ATOM     57  C25 Y5H d          -1.643   9.078  26.754  0.00  0.00     0.075 A 
ATOM     58  H1  Y5H d          -3.330  10.172  27.602  0.00  0.00     0.086 H 
ATOM     59 CL1  Y5H d          -1.298   7.864  27.967  0.00  0.00    -0.076 Cl
ATOM     60  S1  Y5H d          -0.618   9.165  25.351  0.00  0.00    -0.074 SA
ENDBRANCH  49  53
ENDBRANCH   1  47
TORSDOF 9
ENDMDL
MODEL 10
REMARK VINA RESULT:      -5.9      2.941      6.183
REMARK  9 active torsions:
REMARK  status: ('A' for Active; 'I' for Inactive)
REMARK    1  A    between atoms: C20_6  and  C17_7 
REMARK    2  A    between atoms: C4_11  and  C1_12 
REMARK    3  A    between atoms: N12_24  and  C19_25 
REMARK    4  A    between atoms: C19_25  and  C21_26 
REMARK    5  A    between atoms: C21_26  and  C23_27 
REMARK    6  A    between atoms: C23_27  and  N29_28 
REMARK    7  A    between atoms: N29_28  and  C32_29 
REMARK    8  A    between atoms: N29_28  and  C31_30 
REMARK    9  A    between atoms: N29_28  and  C30_31 
ROOT
ATOM      1  C1  Y5H d          -5.683  10.952  19.381  0.00  0.00     0.160 C 
ATOM      2  N3  Y5H d          -4.698  10.032  18.754  0.00  0.00    -0.055 N 
ATOM      3  C7  Y5H d          -4.956  10.194  17.313  0.00  0.00     0.117 C 
ATOM      4  C14 Y5H d          -6.190   9.320  17.026  0.00  0.00    -0.036 C 
ATOM      5  C15 Y5H d          -6.073   8.190  18.062  0.00  0.00    -0.040 C 
ATOM      6  C8  Y5H d          -4.961   8.601  19.046  0.00  0.00     0.085 C 
ATOM      7  C5  Y5H d          -5.173  11.684  17.074  0.00  0.00     0.066 A 
ATOM      8  C2  Y5H d          -5.580  12.223  18.471  0.00  0.00     0.071 A 
ATOM      9  C6  Y5H d          -4.456  13.197  18.794  0.00  0.00     0.234 A 
ATOM     10  O13 Y5H d          -4.335  13.910  19.776  0.00  0.00    -0.272 OA
ATOM     11  C11 Y5H d          -3.877  12.369  16.724  0.00  0.00     0.233 A 
ATOM     12  O18 Y5H d          -3.196  12.277  15.702  0.00  0.00    -0.272 OA
ATOM     13  N12 Y5H d          -3.472  13.194  17.791  0.00  0.00    -0.288 N 
ATOM     14  H4  Y5H d          -6.693  10.519  19.340  0.00  0.00     0.096 H 
ATOM     15  H5  Y5H d          -3.755  10.280  19.011  0.00  0.00     0.281 HD
ATOM     16  H6  Y5H d          -4.104   9.844  16.711  0.00  0.00     0.086 H 
ATOM     17  H7  Y5H d          -6.160   8.920  16.002  0.00  0.00     0.036 H 
ATOM     18  H8  Y5H d          -7.119   9.891  17.170  0.00  0.00     0.036 H 
ATOM     19  H9  Y5H d          -5.807   7.246  17.564  0.00  0.00     0.035 H 
ATOM     20  H10 Y5H d          -7.026   8.066  18.597  0.00  0.00     0.035 H 
ATOM     21  H11 Y5H d          -5.299   8.474  20.085  0.00  0.00     0.076 H 
ATOM     22  H12 Y5H d          -4.055   7.999  18.880  0.00  0.00     0.076 H 
ATOM     23  H13 Y5H d          -5.940  11.866  16.307  0.00  0.00     0.059 H 
ATOM     24  H14 Y5H d          -6.546  12.749  18.456  0.00  0.00     0.059 H 
ENDROOT
BRANCH  13  25
ATOM     25  C19 Y5H d          -2.261  14.029  17.831  0.00  0.00     0.007 C 
ATOM     26  H15 Y5H d          -2.528  15.037  18.181  0.00  0.00     0.065 H 
ATOM     27  H16 Y5H d          -1.833  14.093  16.820  0.00  0.00     0.065 H 
BRANCH  25  28
ATOM     28  C21 Y5H d          -1.221  13.423  18.783  0.00  0.00    -0.027 C 
ATOM     29  H17 Y5H d          -0.404  12.951  18.217  0.00  0.00     0.037 H 
ATOM     30  H18 Y5H d          -1.687  12.677  19.443  0.00  0.00     0.037 H 
BRANCH  28  31
ATOM     31  C23 Y5H d          -0.698  14.620  19.599  0.00  0.00     0.086 C 
ATOM     32  H19 Y5H d          -1.177  15.535  19.219  0.00  0.00     0.076 H 
ATOM     33  H20 Y5H d           0.390  14.689  19.455  0.00  0.00     0.076 H 
BRANCH  31  34
ATOM     34  N29 Y5H d          -0.977  14.518  21.086  0.00  0.00    -0.079 N 
BRANCH  34  35
ATOM     35  C32 Y5H d           0.283  14.777  21.862  0.00  0.00     0.067 C 
ATOM     36  H21 Y5H d           0.135  15.644  22.523  0.00  0.00     0.068 H 
ATOM     37  H22 Y5H d           1.108  14.985  21.164  0.00  0.00     0.068 H 
ATOM     38  H23 Y5H d           0.528  13.892  22.467  0.00  0.00     0.068 H 
ENDBRANCH  34  35
BRANCH  34  39
ATOM     39  C31 Y5H d          -1.364  13.080  21.340  0.00  0.00     0.067 C 
ATOM     40  H24 Y5H d          -1.147  12.821  22.386  0.00  0.00     0.068 H 
ATOM     41  H25 Y5H d          -0.788  12.422  20.672  0.00  0.00     0.068 H 
ATOM     42  H26 Y5H d          -2.439  12.949  21.144  0.00  0.00     0.068 H 
ENDBRANCH  34  39
BRANCH  34  43
ATOM     43  C30 Y5H d          -2.047  15.448  21.547  0.00  0.00     0.067 C 
ATOM     44  H27 Y5H d          -2.475  15.076  22.490  0.00  0.00     0.068 H 
ATOM     45  H28 Y5H d          -2.836  15.507  20.784  0.00  0.00     0.068 H 
ATOM     46  H29 Y5H d          -1.618  16.448  21.709  0.00  0.00     0.068 H 
ENDBRANCH  34  43
ENDBRANCH  31  34
ENDBRANCH  28  31
ENDBRANCH  25  28
ENDBRANCH  13  25
BRANCH   1  47
ATOM     47  C4  Y5H d          -5.358  11.292  20.814  0.00  0.00     0.091 A 
ATOM     48  N16 Y5H d          -4.227  10.855  21.465  0.00  0.00    -0.224 NA
ATOM     49  C17 Y5H d          -4.311  11.394  22.664  0.00  0.00     0.186 A 
ATOM     50  O10 Y5H d          -5.467  12.068  22.892  0.00  0.00    -0.301 OA
ATOM     51  C9  Y5H d          -6.101  12.009  21.661  0.00  0.00     0.047 A 
ATOM     52  H3  Y5H d          -7.055  12.476  21.421  0.00  0.00     0.126 H 
BRANCH  49  53
ATOM     53  C20 Y5H d          -3.446  11.158  23.810  0.00  0.00     0.059 A 
ATOM     54  C22 Y5H d          -3.723  11.424  25.146  0.00  0.00    -0.060 A 
ATOM     55  C24 Y5H d          -2.729  10.946  26.032  0.00  0.00    -0.054 A 
ATOM     56  H2  Y5H d          -4.616  11.950  25.479  0.00  0.00     0.085 H 
ATOM     57  C25 Y5H d          -1.754  10.265  25.350  0.00  0.00     0.075 A 
ATOM     58  H1  Y5H d          -2.737  11.098  27.110  0.00  0.00     0.086 H 
ATOM     59 CL1  Y5H d          -0.353   9.454  26.015  0.00  0.00    -0.076 Cl
ATOM     60  S1  Y5H d          -1.962  10.279  23.622  0.00  0.00    -0.074 SA
ENDBRANCH  49  53
ENDBRANCH   1  47
TORSDOF 9
ENDMDL
