MODEL 1
REMARK VINA RESULT:     -10.9      0.000      0.000
REMARK  13 active torsions:
REMARK  status: ('A' for Active; 'I' for Inactive)
REMARK    1  A    between atoms: C_1  and  CA_4 
REMARK       I    between atoms: NAV_21  and  C_1 
REMARK    2  A    between atoms: CAH_9  and  CAL_13 
REMARK    3  A    between atoms: CAL_13  and  CAT_20 
REMARK    4  A    between atoms: CAL_13  and  CBZ_50 
REMARK    5  A    between atoms: CAL_13  and  CCA_51 
REMARK    6  A    between atoms: CAR_18  and  CAS_19 
REMARK    7  A    between atoms: CAZ_24  and  CAR_18 
REMARK    8  A    between atoms: CAX_22  and  NAV_21 
REMARK    9  A    between atoms: CAX_22  and  CAY_23 
REMARK       I    between atoms: CAY_23  and  NBK_35 
REMARK   10  A    between atoms: NBK_35  and  SBM_37 
REMARK   11  A    between atoms: SBM_37  and  CBN_38 
REMARK   12  A    between atoms: CBV_46  and  CBX_48 
REMARK   13  A    between atoms: CBV_46  and  CBY_49 
ROOT
ATOM      1  N   SU3 d         -15.077  -9.727  13.618  0.00  0.00    -0.334 N 
ATOM      2  CA  SU3 d         -13.684  -9.753  14.125  0.00  0.00     0.094 C 
ATOM      3  CB  SU3 d         -12.953 -10.627  13.125  0.00  0.00    -0.011 C 
ATOM      4  CG  SU3 d         -14.038 -11.631  12.691  0.00  0.00     0.067 C 
ATOM      5  CAF SU3 d         -16.031  -8.969  14.153  0.00  0.00     0.244 C 
ATOM      6  OAG SU3 d         -15.740  -8.187  15.066  0.00  0.00    -0.271 OA
ATOM      7  CAH SU3 d         -17.426  -8.943  13.541  0.00  0.00     0.098 C 
ATOM      8  NAI SU3 d         -18.354  -9.189  14.632  0.00  0.00    -0.323 N 
ATOM      9  CAJ SU3 d         -18.936 -10.362  14.782  0.00  0.00     0.361 C 
ATOM     10  OAK SU3 d         -19.741 -10.433  15.864  0.00  0.00    -0.303 OA
ATOM     11  OAM SU3 d         -18.806 -11.311  14.009  0.00  0.00    -0.238 OA
ATOM     12  CAO SU3 d         -13.527 -13.623  13.893  0.00  0.00     0.371 C 
ATOM     13  OAP SU3 d         -12.616 -13.866  13.097  0.00  0.00    -0.238 OA
ATOM     14  NAQ SU3 d         -13.734 -14.391  14.916  0.00  0.00    -0.278 N 
ATOM     15  CBB SU3 d         -13.060 -15.642  15.278  0.00  0.00     0.000 A 
ATOM     16  CBC SU3 d         -13.673 -16.052  16.584  0.00  0.00    -0.008 A 
ATOM     17  CBD SU3 d         -14.638 -15.118  16.953  0.00  0.00    -0.002 A 
ATOM     18  CBE SU3 d         -14.760 -14.036  15.905  0.00  0.00     0.001 A 
ATOM     19  CBF SU3 d         -13.401 -17.141  17.399  0.00  0.00    -0.071 A 
ATOM     20  CBG SU3 d         -14.103 -17.282  18.580  0.00  0.00    -0.082 A 
ATOM     21  CBH SU3 d         -15.074 -16.348  18.939  0.00  0.00    -0.076 A 
ATOM     22  CBI SU3 d         -15.365 -15.239  18.132  0.00  0.00    -0.046 A 
ATOM     23  CBJ SU3 d         -16.398 -14.173  18.565  0.00  0.00    -0.040 C 
ATOM     24  CBS SU3 d         -17.814 -14.598  18.830  0.00  0.00    -0.061 C 
ATOM     25  CBT SU3 d         -18.633 -13.306  18.917  0.00  0.00    -0.064 C 
ATOM     26  CBU SU3 d         -18.976 -12.761  17.524  0.00  0.00    -0.057 C 
ATOM     27  CBV SU3 d         -20.355 -12.114  17.476  0.00  0.00    -0.025 C 
ATOM     28  CBW SU3 d         -20.531 -11.609  16.075  0.00  0.00     0.037 C 
ATOM     29  CD1 SU3 d         -15.265 -10.741  12.543  0.00  0.00     0.023 C 
ATOM     30  OD2 SU3 d         -14.304 -12.530  13.780  0.00  0.00    -0.296 OA
ATOM     31  H1  SU3 d         -13.618 -10.176  15.138  0.00  0.00     0.088 H 
ATOM     32  H2  SU3 d         -12.103 -11.142  13.595  0.00  0.00     0.040 H 
ATOM     33  H3  SU3 d         -12.596 -10.036  12.268  0.00  0.00     0.040 H 
ATOM     34  H4  SU3 d         -13.777 -12.169  11.768  0.00  0.00     0.086 H 
ATOM     35  H5  SU3 d         -17.504  -9.763  12.813  0.00  0.00     0.088 H 
ATOM     36  H6  SU3 d         -18.556  -8.456  15.281  0.00  0.00     0.165 HD
ATOM     37  H19 SU3 d         -12.282 -16.161  14.720  0.00  0.00     0.113 H 
ATOM     38  H20 SU3 d         -15.446 -13.191  15.888  0.00  0.00     0.113 H 
ATOM     39  H21 SU3 d         -12.651 -17.870  17.115  0.00  0.00     0.084 H 
ATOM     40  H22 SU3 d         -13.898 -18.123  19.231  0.00  0.00     0.083 H 
ATOM     41  H23 SU3 d         -15.619 -16.483  19.866  0.00  0.00     0.084 H 
ATOM     42  H24 SU3 d         -16.432 -13.415  17.769  0.00  0.00     0.040 H 
ATOM     43  H25 SU3 d         -16.020 -13.716  19.491  0.00  0.00     0.040 H 
ATOM     44  H32 SU3 d         -17.876 -15.154  19.778  0.00  0.00     0.033 H 
ATOM     45  H33 SU3 d         -18.184 -15.230  18.010  0.00  0.00     0.033 H 
ATOM     46  H34 SU3 d         -18.049 -12.550  19.462  0.00  0.00     0.033 H 
ATOM     47  H35 SU3 d         -19.567 -13.511  19.460  0.00  0.00     0.033 H 
ATOM     48  H36 SU3 d         -18.950 -13.592  16.804  0.00  0.00     0.034 H 
ATOM     49  H37 SU3 d         -18.224 -12.010  17.244  0.00  0.00     0.034 H 
ATOM     50  H38 SU3 d         -20.215 -12.389  15.366  0.00  0.00     0.076 H 
ATOM     51  H39 SU3 d         -21.591 -11.368  15.906  0.00  0.00     0.076 H 
ATOM     52  H52 SU3 d         -15.290 -10.265  11.551  0.00  0.00     0.068 H 
ATOM     53  H53 SU3 d         -16.190 -11.315  12.699  0.00  0.00     0.068 H 
ENDROOT
BRANCH   2  54
ATOM     54  C   SU3 d         -13.180  -8.299  14.117  0.00  0.00     0.241 C 
ATOM     55  O   SU3 d         -13.110  -7.629  13.080  0.00  0.00    -0.271 OA
ATOM     56  NAV SU3 d         -12.737  -7.853  15.286  0.00  0.00    -0.341 N 
ATOM     57  H15 SU3 d         -12.588  -8.511  16.024  0.00  0.00     0.163 HD
BRANCH  56  58
ATOM     58  CAX SU3 d         -12.460  -6.449  15.543  0.00  0.00     0.119 A 
ATOM     59  CAZ SU3 d         -13.759  -5.584  15.573  0.00  0.00    -0.018 A 
ATOM     60  CBA SU3 d         -13.036  -5.902  16.859  0.00  0.00    -0.027 A 
ATOM     61  H16 SU3 d         -14.733  -6.036  15.338  0.00  0.00     0.044 H 
ATOM     62  H17 SU3 d         -12.504  -5.105  17.398  0.00  0.00     0.038 H 
ATOM     63  H18 SU3 d         -13.491  -6.594  17.584  0.00  0.00     0.038 H 
BRANCH  58  64
ATOM     64  CAY SU3 d         -11.115  -5.875  15.126  0.00  0.00     0.259 C 
ATOM     65  NBK SU3 d         -10.501  -6.485  14.149  0.00  0.00    -0.252 N 
ATOM     66  H26 SU3 d         -10.879  -7.300  13.712  0.00  0.00     0.181 HD
ATOM     67  OBL SU3 d         -10.676  -4.908  15.743  0.00  0.00    -0.270 OA
BRANCH  65  68
ATOM     68  SBM SU3 d          -9.115  -5.849  13.700  0.00  0.00     0.237 S 
ATOM     69  OBO SU3 d          -9.311  -4.696  12.793  0.00  0.00    -0.205 OA
ATOM     70  OBP SU3 d          -8.227  -5.545  14.824  0.00  0.00    -0.205 OA
BRANCH  68  71
ATOM     71  CBN SU3 d          -8.344  -7.138  12.727  0.00  0.00     0.063 A 
ATOM     72  CBQ SU3 d          -6.942  -6.804  12.206  0.00  0.00    -0.046 A 
ATOM     73  CBR SU3 d          -7.131  -7.746  13.392  0.00  0.00    -0.046 A 
ATOM     74  H28 SU3 d          -6.521  -5.800  12.360  0.00  0.00     0.035 H 
ATOM     75  H29 SU3 d          -6.604  -7.198  11.235  0.00  0.00     0.035 H 
ATOM     76  H30 SU3 d          -6.924  -8.821  13.277  0.00  0.00     0.035 H 
ATOM     77  H31 SU3 d          -6.839  -7.422  14.402  0.00  0.00     0.035 H 
ATOM     78  H27 SU3 d          -9.068  -7.727  12.143  0.00  0.00     0.066 H 
ENDBRANCH  68  71
ENDBRANCH  65  68
ENDBRANCH  58  64
BRANCH  59  79
ATOM     79  CAR SU3 d         -13.712  -4.136  15.099  0.00  0.00    -0.062 C 
ATOM     80  H7  SU3 d         -13.782  -3.471  15.972  0.00  0.00     0.033 H 
ATOM     81  H8  SU3 d         -12.759  -3.960  14.579  0.00  0.00     0.033 H 
BRANCH  79  82
ATOM     82  CAS SU3 d         -14.862  -3.827  14.144  0.00  0.00    -0.076 C 
ATOM     83  H9  SU3 d         -14.517  -3.126  13.369  0.00  0.00     0.027 H 
ATOM     84  H10 SU3 d         -15.692  -3.373  14.706  0.00  0.00     0.027 H 
ATOM     85  H11 SU3 d         -15.206  -4.758  13.671  0.00  0.00     0.027 H 
ENDBRANCH  79  82
ENDBRANCH  59  79
ENDBRANCH  56  58
ENDBRANCH   2  54
BRANCH   7  86
ATOM     86  CAL SU3 d         -17.750  -7.622  12.794  0.00  0.00    -0.022 C 
BRANCH  86  87
ATOM     87  CAT SU3 d         -18.213  -6.569  13.823  0.00  0.00    -0.067 C 
ATOM     88  H12 SU3 d         -17.381  -5.885  14.048  0.00  0.00     0.028 H 
ATOM     89  H13 SU3 d         -18.533  -7.074  14.746  0.00  0.00     0.028 H 
ATOM     90  H14 SU3 d         -19.056  -5.996  13.408  0.00  0.00     0.028 H 
ENDBRANCH  86  87
BRANCH  86  91
ATOM     91  CBZ SU3 d         -16.563  -7.053  12.027  0.00  0.00    -0.067 C 
ATOM     92  H46 SU3 d         -15.819  -6.663  12.738  0.00  0.00     0.028 H 
ATOM     93  H47 SU3 d         -16.906  -6.239  11.372  0.00  0.00     0.028 H 
ATOM     94  H48 SU3 d         -16.106  -7.847  11.417  0.00  0.00     0.028 H 
ENDBRANCH  86  91
BRANCH  86  95
ATOM     95  CCA SU3 d         -18.913  -7.878  11.822  0.00  0.00    -0.067 C 
ATOM     96  H49 SU3 d         -18.548  -8.450  10.956  0.00  0.00     0.028 H 
ATOM     97  H50 SU3 d         -19.324  -6.916  11.480  0.00  0.00     0.028 H 
ATOM     98  H51 SU3 d         -19.701  -8.451  12.335  0.00  0.00     0.028 H 
ENDBRANCH  86  95
ENDBRANCH   7  86
BRANCH  27  99
ATOM     99  CBX SU3 d         -21.463 -13.153  17.707  0.00  0.00    -0.067 C 
ATOM    100  H40 SU3 d         -21.142 -14.126  17.307  0.00  0.00     0.028 H 
ATOM    101  H41 SU3 d         -22.381 -12.830  17.193  0.00  0.00     0.028 H 
ATOM    102  H42 SU3 d         -21.659 -13.246  18.785  0.00  0.00     0.028 H 
ENDBRANCH  27  99
BRANCH  27 103
ATOM    103  CBY SU3 d         -20.466 -10.968  18.503  0.00  0.00    -0.067 C 
ATOM    104  H43 SU3 d         -21.475 -10.531  18.457  0.00  0.00     0.028 H 
ATOM    105  H44 SU3 d         -19.721 -10.193  18.269  0.00  0.00     0.028 H 
ATOM    106  H45 SU3 d         -20.282 -11.362  19.513  0.00  0.00     0.028 H 
ENDBRANCH  27 103
TORSDOF 13
ENDMDL
MODEL 2
REMARK VINA RESULT:      -8.4      1.386      1.765
REMARK  13 active torsions:
REMARK  status: ('A' for Active; 'I' for Inactive)
REMARK    1  A    between atoms: C_1  and  CA_4 
REMARK       I    between atoms: NAV_21  and  C_1 
REMARK    2  A    between atoms: CAH_9  and  CAL_13 
REMARK    3  A    between atoms: CAL_13  and  CAT_20 
REMARK    4  A    between atoms: CAL_13  and  CBZ_50 
REMARK    5  A    between atoms: CAL_13  and  CCA_51 
REMARK    6  A    between atoms: CAR_18  and  CAS_19 
REMARK    7  A    between atoms: CAZ_24  and  CAR_18 
REMARK    8  A    between atoms: CAX_22  and  NAV_21 
REMARK    9  A    between atoms: CAX_22  and  CAY_23 
REMARK       I    between atoms: CAY_23  and  NBK_35 
REMARK   10  A    between atoms: NBK_35  and  SBM_37 
REMARK   11  A    between atoms: SBM_37  and  CBN_38 
REMARK   12  A    between atoms: CBV_46  and  CBX_48 
REMARK   13  A    between atoms: CBV_46  and  CBY_49 
ROOT
ATOM      1  N   SU3 d         -15.637  -9.441  13.705  0.00  0.00    -0.334 N 
ATOM      2  CA  SU3 d         -14.279  -9.364  14.297  0.00  0.00     0.094 C 
ATOM      3  CB  SU3 d         -13.430 -10.198  13.358  0.00  0.00    -0.011 C 
ATOM      4  CG  SU3 d         -14.414 -11.280  12.875  0.00  0.00     0.067 C 
ATOM      5  CAF SU3 d         -16.672  -8.745  14.168  0.00  0.00     0.244 C 
ATOM      6  OAG SU3 d         -16.493  -7.934  15.084  0.00  0.00    -0.271 OA
ATOM      7  CAH SU3 d         -18.024  -8.824  13.471  0.00  0.00     0.098 C 
ATOM      8  NAI SU3 d         -19.000  -9.121  14.506  0.00  0.00    -0.323 N 
ATOM      9  CAJ SU3 d         -19.509 -10.329  14.639  0.00  0.00     0.361 C 
ATOM     10  OAK SU3 d         -20.373 -10.443  15.671  0.00  0.00    -0.303 OA
ATOM     11  OAM SU3 d         -19.266 -11.276  13.892  0.00  0.00    -0.238 OA
ATOM     12  CAO SU3 d         -13.843 -13.217  14.138  0.00  0.00     0.371 C 
ATOM     13  OAP SU3 d         -12.870 -13.406  13.403  0.00  0.00    -0.238 OA
ATOM     14  NAQ SU3 d         -14.061 -13.985  15.159  0.00  0.00    -0.278 N 
ATOM     15  CBB SU3 d         -13.327 -15.182  15.582  0.00  0.00     0.000 A 
ATOM     16  CBC SU3 d         -13.990 -15.618  16.854  0.00  0.00    -0.008 A 
ATOM     17  CBD SU3 d         -15.038 -14.749  17.148  0.00  0.00    -0.002 A 
ATOM     18  CBE SU3 d         -15.168 -13.690  16.077  0.00  0.00     0.001 A 
ATOM     19  CBF SU3 d         -13.696 -16.675  17.702  0.00  0.00    -0.071 A 
ATOM     20  CBG SU3 d         -14.459 -16.850  18.840  0.00  0.00    -0.082 A 
ATOM     21  CBH SU3 d         -15.512 -15.982  19.123  0.00  0.00    -0.076 A 
ATOM     22  CBI SU3 d         -15.827 -14.906  18.282  0.00  0.00    -0.046 A 
ATOM     23  CBJ SU3 d         -16.956 -13.909  18.633  0.00  0.00    -0.040 C 
ATOM     24  CBS SU3 d         -18.354 -14.428  18.818  0.00  0.00    -0.061 C 
ATOM     25  CBT SU3 d         -19.263 -13.195  18.833  0.00  0.00    -0.064 C 
ATOM     26  CBU SU3 d         -19.555 -12.692  17.413  0.00  0.00    -0.057 C 
ATOM     27  CBV SU3 d         -20.970 -12.143  17.269  0.00  0.00    -0.025 C 
ATOM     28  CBW SU3 d         -21.092 -11.668  15.852  0.00  0.00     0.037 C 
ATOM     29  CD1 SU3 d         -15.687 -10.479  12.637  0.00  0.00     0.023 C 
ATOM     30  OD2 SU3 d         -14.685 -12.182  13.959  0.00  0.00    -0.296 OA
ATOM     31  H1  SU3 d         -14.249  -9.770  15.319  0.00  0.00     0.088 H 
ATOM     32  H2  SU3 d         -12.577 -10.646  13.888  0.00  0.00     0.040 H 
ATOM     33  H3  SU3 d         -13.061  -9.594  12.515  0.00  0.00     0.040 H 
ATOM     34  H4  SU3 d         -14.060 -11.810  11.978  0.00  0.00     0.086 H 
ATOM     35  H5  SU3 d         -18.001  -9.656  12.752  0.00  0.00     0.088 H 
ATOM     36  H6  SU3 d         -19.292  -8.395  15.129  0.00  0.00     0.165 HD
ATOM     37  H19 SU3 d         -12.482 -15.652  15.081  0.00  0.00     0.113 H 
ATOM     38  H20 SU3 d         -15.908 -12.895  16.004  0.00  0.00     0.113 H 
ATOM     39  H21 SU3 d         -12.881 -17.353  17.476  0.00  0.00     0.084 H 
ATOM     40  H22 SU3 d         -14.238 -17.667  19.516  0.00  0.00     0.083 H 
ATOM     41  H23 SU3 d         -16.103 -16.143  20.018  0.00  0.00     0.084 H 
ATOM     42  H24 SU3 d         -16.992 -13.165  17.824  0.00  0.00     0.040 H 
ATOM     43  H25 SU3 d         -16.669 -13.415  19.573  0.00  0.00     0.040 H 
ATOM     44  H32 SU3 d         -18.436 -14.975  19.768  0.00  0.00     0.033 H 
ATOM     45  H33 SU3 d         -18.627 -15.094  17.986  0.00  0.00     0.033 H 
ATOM     46  H34 SU3 d         -18.768 -12.393  19.400  0.00  0.00     0.033 H 
ATOM     47  H35 SU3 d         -20.213 -13.458  19.321  0.00  0.00     0.033 H 
ATOM     48  H36 SU3 d         -19.428 -13.528  16.709  0.00  0.00     0.034 H 
ATOM     49  H37 SU3 d         -18.840 -11.894  17.167  0.00  0.00     0.034 H 
ATOM     50  H38 SU3 d         -20.680 -12.433  15.177  0.00  0.00     0.076 H 
ATOM     51  H39 SU3 d         -22.153 -11.504  15.615  0.00  0.00     0.076 H 
ATOM     52  H52 SU3 d         -15.683 -10.018  11.638  0.00  0.00     0.068 H 
ATOM     53  H53 SU3 d         -16.579 -11.114  12.745  0.00  0.00     0.068 H 
ENDROOT
BRANCH   2  54
ATOM     54  C   SU3 d         -13.877  -7.879  14.296  0.00  0.00     0.241 C 
ATOM     55  O   SU3 d         -13.476  -7.303  15.314  0.00  0.00    -0.271 OA
ATOM     56  NAV SU3 d         -14.086  -7.242  13.151  0.00  0.00    -0.341 N 
ATOM     57  H15 SU3 d         -14.637  -7.691  12.448  0.00  0.00     0.163 HD
BRANCH  56  58
ATOM     58  CAX SU3 d         -13.547  -5.921  12.871  0.00  0.00     0.119 A 
ATOM     59  CAZ SU3 d         -14.535  -5.042  12.041  0.00  0.00    -0.018 A 
ATOM     60  CBA SU3 d         -14.322  -4.755  13.508  0.00  0.00    -0.027 A 
ATOM     61  H16 SU3 d         -15.481  -5.465  11.674  0.00  0.00     0.044 H 
ATOM     62  H17 SU3 d         -13.785  -3.846  13.813  0.00  0.00     0.038 H 
ATOM     63  H18 SU3 d         -15.127  -4.964  14.228  0.00  0.00     0.038 H 
BRANCH  58  64
ATOM     64  CAY SU3 d         -12.040  -5.741  12.789  0.00  0.00     0.259 C 
ATOM     65  NBK SU3 d         -11.392  -6.602  12.052  0.00  0.00    -0.252 N 
ATOM     66  H26 SU3 d         -11.854  -7.355  11.585  0.00  0.00     0.181 HD
ATOM     67  OBL SU3 d         -11.524  -4.833  13.435  0.00  0.00    -0.270 OA
BRANCH  65  68
ATOM     68  SBM SU3 d          -9.822  -6.376  11.946  0.00  0.00     0.237 S 
ATOM     69  OBO SU3 d          -9.197  -7.320  10.991  0.00  0.00    -0.205 OA
ATOM     70  OBP SU3 d          -9.454  -4.982  11.692  0.00  0.00    -0.205 OA
BRANCH  68  71
ATOM     71  CBN SU3 d          -9.212  -6.816  13.570  0.00  0.00     0.063 A 
ATOM     72  CBQ SU3 d          -7.702  -7.071  13.647  0.00  0.00    -0.046 A 
ATOM     73  CBR SU3 d          -8.303  -5.769  14.172  0.00  0.00    -0.046 A 
ATOM     74  H28 SU3 d          -7.095  -7.068  12.730  0.00  0.00     0.035 H 
ATOM     75  H29 SU3 d          -7.303  -7.818  14.349  0.00  0.00     0.035 H 
ATOM     76  H30 SU3 d          -8.331  -5.576  15.255  0.00  0.00     0.035 H 
ATOM     77  H31 SU3 d          -8.122  -4.826  13.636  0.00  0.00     0.035 H 
ATOM     78  H27 SU3 d          -9.941  -7.391  14.162  0.00  0.00     0.066 H 
ENDBRANCH  68  71
ENDBRANCH  65  68
ENDBRANCH  58  64
BRANCH  59  79
ATOM     79  CAR SU3 d         -13.987  -4.019  11.054  0.00  0.00    -0.062 C 
ATOM     80  H7  SU3 d         -12.944  -3.790  11.317  0.00  0.00     0.033 H 
ATOM     81  H8  SU3 d         -14.025  -4.444  10.040  0.00  0.00     0.033 H 
BRANCH  79  82
ATOM     82  CAS SU3 d         -14.801  -2.728  11.082  0.00  0.00    -0.076 C 
ATOM     83  H9  SU3 d         -14.259  -1.966  11.662  0.00  0.00     0.027 H 
ATOM     84  H10 SU3 d         -15.777  -2.920  11.550  0.00  0.00     0.027 H 
ATOM     85  H11 SU3 d         -14.952  -2.367  10.054  0.00  0.00     0.027 H 
ENDBRANCH  79  82
ENDBRANCH  59  79
ENDBRANCH  56  58
ENDBRANCH   2  54
BRANCH   7  86
ATOM     86  CAL SU3 d         -18.391  -7.537  12.684  0.00  0.00    -0.022 C 
BRANCH  86  87
ATOM     87  CAT SU3 d         -17.349  -7.322  11.566  0.00  0.00    -0.067 C 
ATOM     88  H12 SU3 d         -17.440  -6.299  11.173  0.00  0.00     0.028 H 
ATOM     89  H13 SU3 d         -17.528  -8.045  10.756  0.00  0.00     0.028 H 
ATOM     90  H14 SU3 d         -16.338  -7.472  11.974  0.00  0.00     0.028 H 
ENDBRANCH  86  87
BRANCH  86  91
ATOM     91  CBZ SU3 d         -19.774  -7.591  12.047  0.00  0.00    -0.067 C 
ATOM     92  H46 SU3 d         -19.769  -7.013  11.111  0.00  0.00     0.028 H 
ATOM     93  H47 SU3 d         -20.513  -7.161  12.740  0.00  0.00     0.028 H 
ATOM     94  H48 SU3 d         -20.038  -8.637  11.832  0.00  0.00     0.028 H 
ENDBRANCH  86  91
BRANCH  86  95
ATOM     95  CCA SU3 d         -18.314  -6.336  13.641  0.00  0.00    -0.067 C 
ATOM     96  H49 SU3 d         -18.495  -5.408  13.079  0.00  0.00     0.028 H 
ATOM     97  H50 SU3 d         -17.315  -6.297  14.101  0.00  0.00     0.028 H 
ATOM     98  H51 SU3 d         -19.075  -6.444  14.428  0.00  0.00     0.028 H 
ENDBRANCH  86  95
ENDBRANCH   7  86
BRANCH  27  99
ATOM     99  CBX SU3 d         -22.016 -13.253  17.449  0.00  0.00    -0.067 C 
ATOM    100  H40 SU3 d         -21.675 -13.957  18.223  0.00  0.00     0.028 H 
ATOM    101  H41 SU3 d         -22.147 -13.790  16.497  0.00  0.00     0.028 H 
ATOM    102  H42 SU3 d         -22.974 -12.808  17.754  0.00  0.00     0.028 H 
ENDBRANCH  27  99
BRANCH  27 103
ATOM    103  CBY SU3 d         -21.223 -10.995  18.268  0.00  0.00    -0.067 C 
ATOM    104  H43 SU3 d         -20.647 -11.176  19.188  0.00  0.00     0.028 H 
ATOM    105  H44 SU3 d         -22.295 -10.949  18.511  0.00  0.00     0.028 H 
ATOM    106  H45 SU3 d         -20.907 -10.042  17.819  0.00  0.00     0.028 H 
ENDBRANCH  27 103
TORSDOF 13
ENDMDL
