MODEL 1
REMARK VINA RESULT:      -9.7      0.000      0.000
REMARK  6 active torsions:
REMARK  status: ('A' for Active; 'I' for Inactive)
REMARK    1  A    between atoms: C07_7  and  N03_3 
REMARK    2  A    between atoms: N03_3  and  C09_9 
REMARK    3  A    between atoms: C06_6  and  N04_4 
REMARK    4  A    between atoms: N04_4  and  C16_16 
REMARK    5  A    between atoms: C14_14  and  C15_15 
REMARK    6  A    between atoms: C19_19  and  C22_22 
ROOT
ATOM      1  N01 MOL d           3.511  31.835   8.871  0.00  0.00    -0.075 NA
ATOM      2  N02 MOL d           4.259  30.758   6.931  0.00  0.00    -0.045 NA
ATOM      3  C05 MOL d           3.869  30.778   9.620  0.00  0.00     0.025 A 
ATOM      4  C06 MOL d           3.704  31.809   7.549  0.00  0.00     0.728 A 
ATOM      5  C07 MOL d           4.635  29.674   7.643  0.00  0.00     0.148 A 
ATOM      6  C08 MOL d           4.443  29.661   9.023  0.00  0.00    -0.021 A 
ATOM      7  H3  MOL d           3.709  30.797  10.692  0.00  0.00     0.115 H 
ATOM      8  H4  MOL d           4.735  28.802   9.617  0.00  0.00     0.091 H 
ENDROOT
BRANCH   5   9
ATOM      9  N03 MOL d           5.229  28.525   7.009  0.00  0.00    -0.340 N 
ATOM     10  H1  MOL d           4.614  27.831   6.559  0.00  0.00     0.167 HD
BRANCH   9  11
ATOM     11  C09 MOL d           6.650  28.314   6.983  0.00  0.00     0.044 A 
ATOM     12  C10 MOL d           7.336  28.090   8.167  0.00  0.00    -0.056 A 
ATOM     13  C11 MOL d           8.709  27.891   8.147  0.00  0.00    -0.081 A 
ATOM     14  H5  MOL d           6.799  28.070   9.109  0.00  0.00     0.086 H 
ATOM     15  C12 MOL d           9.409  27.917   6.953  0.00  0.00    -0.082 A 
ATOM     16  H6  MOL d           9.238  27.713   9.076  0.00  0.00     0.083 H 
ATOM     17  C13 MOL d           8.725  28.145   5.769  0.00  0.00    -0.070 A 
ATOM     18  H7  MOL d          10.481  27.761   6.944  0.00  0.00     0.083 H 
ATOM     19  C14 MOL d           7.351  28.345   5.780  0.00  0.00     0.001 A 
ATOM     20  H8  MOL d           9.266  28.168   4.830  0.00  0.00     0.084 H 
BRANCH  19  21
ATOM     21  C15 MOL d           6.648  28.582   4.483  0.00  0.00    -0.024 A 
ATOM     22  C23 MOL d           6.298  29.867   4.095  0.00  0.00    -0.072 A 
ATOM     23  C24 MOL d           5.651  30.070   2.886  0.00  0.00    -0.082 A 
ATOM     24  H13 MOL d           6.529  30.711   4.735  0.00  0.00     0.084 H 
ATOM     25  C25 MOL d           5.358  28.989   2.067  0.00  0.00    -0.083 A 
ATOM     26  H14 MOL d           5.374  31.072   2.580  0.00  0.00     0.083 H 
ATOM     27  C26 MOL d           5.707  27.705   2.451  0.00  0.00    -0.082 A 
ATOM     28  H15 MOL d           4.852  29.151   1.121  0.00  0.00     0.083 H 
ATOM     29  C27 MOL d           6.355  27.504   3.660  0.00  0.00    -0.072 A 
ATOM     30  H16 MOL d           5.475  26.862   1.810  0.00  0.00     0.083 H 
ATOM     31  H17 MOL d           6.634  26.501   3.963  0.00  0.00     0.084 H 
ENDBRANCH  19  21
ENDBRANCH   9  11
ENDBRANCH   5   9
BRANCH   4  32
ATOM     32  N04 MOL d           3.303  32.980   6.820  0.00  0.00    -0.188 N 
ATOM     33  H2  MOL d           3.424  33.886   7.295  0.00  0.00     0.184 HD
BRANCH  32  34
ATOM     34  C16 MOL d           2.751  33.013   5.498  0.00  0.00     0.049 A 
ATOM     35  C17 MOL d           1.465  33.511   5.335  0.00  0.00    -0.056 A 
ATOM     36  C18 MOL d           0.892  33.578   4.075  0.00  0.00    -0.064 A 
ATOM     37  H9  MOL d           0.905  33.849   6.200  0.00  0.00     0.087 H 
ATOM     38  C19 MOL d           1.611  33.147   2.968  0.00  0.00     0.041 A 
ATOM     39  H10 MOL d          -0.113  33.966   3.954  0.00  0.00     0.085 H 
ATOM     40  C20 MOL d           2.902  32.655   3.125  0.00  0.00    -0.064 A 
ATOM     41  C21 MOL d           3.474  32.592   4.390  0.00  0.00    -0.056 A 
ATOM     42  H11 MOL d           3.462  32.319   2.260  0.00  0.00     0.085 H 
ATOM     43  H12 MOL d           4.482  32.213   4.511  0.00  0.00     0.087 H 
BRANCH  38  44
ATOM     44  C22 MOL d           0.988  33.218   1.613  0.00  0.00     0.209 C 
ATOM     45  O28 MOL d           1.231  32.317   0.766  0.00  0.00    -0.644 OA
ATOM     46  O29 MOL d           0.223  34.178   1.316  0.00  0.00    -0.644 OA
ENDBRANCH  38  44
ENDBRANCH  32  34
ENDBRANCH   4  32
TORSDOF 6
ENDMDL
MODEL 2
REMARK VINA RESULT:      -8.9      2.485      4.674
REMARK  6 active torsions:
REMARK  status: ('A' for Active; 'I' for Inactive)
REMARK    1  A    between atoms: C07_7  and  N03_3 
REMARK    2  A    between atoms: N03_3  and  C09_9 
REMARK    3  A    between atoms: C06_6  and  N04_4 
REMARK    4  A    between atoms: N04_4  and  C16_16 
REMARK    5  A    between atoms: C14_14  and  C15_15 
REMARK    6  A    between atoms: C19_19  and  C22_22 
ROOT
ATOM      1  N01 MOL d           5.546  29.338   0.251  0.00  0.00    -0.075 NA
ATOM      2  N02 MOL d           5.515  29.581   2.581  0.00  0.00    -0.045 NA
ATOM      3  C05 MOL d           6.149  28.144   0.364  0.00  0.00     0.025 A 
ATOM      4  C06 MOL d           5.244  30.037   1.350  0.00  0.00     0.728 A 
ATOM      5  C07 MOL d           6.120  28.386   2.742  0.00  0.00     0.148 A 
ATOM      6  C08 MOL d           6.457  27.631   1.620  0.00  0.00    -0.021 A 
ATOM      7  H3  MOL d           6.397  27.578  -0.527  0.00  0.00     0.115 H 
ATOM      8  H4  MOL d           6.945  26.668   1.723  0.00  0.00     0.091 H 
ENDROOT
BRANCH   5   9
ATOM      9  N03 MOL d           6.431  27.869   4.051  0.00  0.00    -0.340 N 
ATOM     10  H1  MOL d           5.742  27.266   4.524  0.00  0.00     0.167 HD
BRANCH   9  11
ATOM     11  C09 MOL d           7.668  28.166   4.717  0.00  0.00     0.044 A 
ATOM     12  C10 MOL d           8.873  27.831   4.117  0.00  0.00    -0.056 A 
ATOM     13  C11 MOL d          10.070  28.112   4.759  0.00  0.00    -0.081 A 
ATOM     14  H5  MOL d           8.879  27.351   3.145  0.00  0.00     0.086 H 
ATOM     15  C12 MOL d          10.078  28.722   6.003  0.00  0.00    -0.082 A 
ATOM     16  H6  MOL d          11.008  27.850   4.283  0.00  0.00     0.083 H 
ATOM     17  C13 MOL d           8.875  29.053   6.605  0.00  0.00    -0.070 A 
ATOM     18  H7  MOL d          11.017  28.938   6.499  0.00  0.00     0.083 H 
ATOM     19  C14 MOL d           7.673  28.777   5.969  0.00  0.00     0.001 A 
ATOM     20  H8  MOL d           8.873  29.530   7.578  0.00  0.00     0.084 H 
BRANCH  19  21
ATOM     21  C15 MOL d           6.396  29.153   6.647  0.00  0.00    -0.024 A 
ATOM     22  C23 MOL d           5.491  30.003   6.027  0.00  0.00    -0.072 A 
ATOM     23  C24 MOL d           4.309  30.337   6.669  0.00  0.00    -0.082 A 
ATOM     24  H13 MOL d           5.707  30.405   5.044  0.00  0.00     0.084 H 
ATOM     25  C25 MOL d           4.033  29.822   7.927  0.00  0.00    -0.083 A 
ATOM     26  H14 MOL d           3.600  31.002   6.189  0.00  0.00     0.083 H 
ATOM     27  C26 MOL d           4.934  28.972   8.547  0.00  0.00    -0.082 A 
ATOM     28  H15 MOL d           3.107  30.085   8.426  0.00  0.00     0.083 H 
ATOM     29  C27 MOL d           6.115  28.637   7.904  0.00  0.00    -0.072 A 
ATOM     30  H16 MOL d           4.716  28.571   9.531  0.00  0.00     0.083 H 
ATOM     31  H17 MOL d           6.821  27.969   8.385  0.00  0.00     0.084 H 
ENDBRANCH  19  21
ENDBRANCH   9  11
ENDBRANCH   5   9
BRANCH   4  32
ATOM     32  N04 MOL d           4.592  31.301   1.146  0.00  0.00    -0.188 N 
ATOM     33  H2  MOL d           4.780  31.782   0.255  0.00  0.00     0.184 HD
BRANCH  32  34
ATOM     34  C16 MOL d           3.705  31.960   2.060  0.00  0.00     0.049 A 
ATOM     35  C17 MOL d           2.448  32.332   1.601  0.00  0.00    -0.056 A 
ATOM     36  C18 MOL d           1.548  32.958   2.449  0.00  0.00    -0.064 A 
ATOM     37  H9  MOL d           2.170  32.133   0.572  0.00  0.00     0.087 H 
ATOM     38  C19 MOL d           1.905  33.211   3.766  0.00  0.00     0.041 A 
ATOM     39  H10 MOL d           0.569  33.248   2.085  0.00  0.00     0.085 H 
ATOM     40  C20 MOL d           3.160  32.834   4.232  0.00  0.00    -0.064 A 
ATOM     41  C21 MOL d           4.058  32.204   3.380  0.00  0.00    -0.056 A 
ATOM     42  H11 MOL d           3.437  33.031   5.261  0.00  0.00     0.085 H 
ATOM     43  H12 MOL d           5.034  31.904   3.745  0.00  0.00     0.087 H 
BRANCH  38  44
ATOM     44  C22 MOL d           0.933  33.888   4.675  0.00  0.00     0.209 C 
ATOM     45  O28 MOL d           0.778  33.464   5.852  0.00  0.00    -0.644 OA
ATOM     46  O29 MOL d           0.270  34.882   4.267  0.00  0.00    -0.644 OA
ENDBRANCH  38  44
ENDBRANCH  32  34
ENDBRANCH   4  32
TORSDOF 6
ENDMDL
MODEL 3
REMARK VINA RESULT:      -8.2      3.955      8.109
REMARK  6 active torsions:
REMARK  status: ('A' for Active; 'I' for Inactive)
REMARK    1  A    between atoms: C07_7  and  N03_3 
REMARK    2  A    between atoms: N03_3  and  C09_9 
REMARK    3  A    between atoms: C06_6  and  N04_4 
REMARK    4  A    between atoms: N04_4  and  C16_16 
REMARK    5  A    between atoms: C14_14  and  C15_15 
REMARK    6  A    between atoms: C19_19  and  C22_22 
ROOT
ATOM      1  N01 MOL d           7.585  29.850   1.250  0.00  0.00    -0.075 NA
ATOM      2  N02 MOL d           6.265  29.661   3.176  0.00  0.00    -0.045 NA
ATOM      3  C05 MOL d           6.524  30.269   0.540  0.00  0.00     0.025 A 
ATOM      4  C06 MOL d           7.442  29.550   2.544  0.00  0.00     0.728 A 
ATOM      5  C07 MOL d           5.172  30.078   2.502  0.00  0.00     0.148 A 
ATOM      6  C08 MOL d           5.280  30.394   1.148  0.00  0.00    -0.021 A 
ATOM      7  H3  MOL d           6.639  30.510  -0.511  0.00  0.00     0.115 H 
ATOM      8  H4  MOL d           4.416  30.729   0.585  0.00  0.00     0.091 H 
ENDROOT
BRANCH   5   9
ATOM      9  N03 MOL d           3.890  30.202   3.148  0.00  0.00    -0.340 N 
ATOM     10  H1  MOL d           3.426  29.353   3.501  0.00  0.00     0.167 HD
BRANCH   9  11
ATOM     11  C09 MOL d           3.238  31.471   3.317  0.00  0.00     0.044 A 
ATOM     12  C10 MOL d           2.799  32.174   2.205  0.00  0.00    -0.056 A 
ATOM     13  C11 MOL d           2.173  33.402   2.363  0.00  0.00    -0.081 A 
ATOM     14  H5  MOL d           2.944  31.764   1.213  0.00  0.00     0.086 H 
ATOM     15  C12 MOL d           1.984  33.941   3.625  0.00  0.00    -0.082 A 
ATOM     16  H6  MOL d           1.829  33.945   1.490  0.00  0.00     0.083 H 
ATOM     17  C13 MOL d           2.426  33.242   4.736  0.00  0.00    -0.070 A 
ATOM     18  H7  MOL d           1.494  34.901   3.742  0.00  0.00     0.083 H 
ATOM     19  C14 MOL d           3.052  32.011   4.587  0.00  0.00     0.001 A 
ATOM     20  H8  MOL d           2.282  33.657   5.727  0.00  0.00     0.084 H 
BRANCH  19  21
ATOM     21  C15 MOL d           3.510  31.284   5.809  0.00  0.00    -0.024 A 
ATOM     22  C23 MOL d           2.997  31.607   7.057  0.00  0.00    -0.072 A 
ATOM     23  C24 MOL d           3.429  30.918   8.179  0.00  0.00    -0.082 A 
ATOM     24  H13 MOL d           2.260  32.396   7.154  0.00  0.00     0.084 H 
ATOM     25  C25 MOL d           4.371  29.908   8.053  0.00  0.00    -0.083 A 
ATOM     26  H14 MOL d           3.031  31.169   9.156  0.00  0.00     0.083 H 
ATOM     27  C26 MOL d           4.884  29.582   6.808  0.00  0.00    -0.082 A 
ATOM     28  H15 MOL d           4.707  29.370   8.933  0.00  0.00     0.083 H 
ATOM     29  C27 MOL d           4.451  30.270   5.686  0.00  0.00    -0.072 A 
ATOM     30  H16 MOL d           5.621  28.793   6.712  0.00  0.00     0.083 H 
ATOM     31  H17 MOL d           4.847  30.016   4.710  0.00  0.00     0.084 H 
ENDBRANCH  19  21
ENDBRANCH   9  11
ENDBRANCH   5   9
BRANCH   4  32
ATOM     32  N04 MOL d           8.625  29.118   3.236  0.00  0.00    -0.188 N 
ATOM     33  H2  MOL d           9.510  29.161   2.712  0.00  0.00     0.184 HD
BRANCH  32  34
ATOM     34  C16 MOL d           8.695  28.634   4.584  0.00  0.00     0.049 A 
ATOM     35  C17 MOL d           8.645  29.561   5.617  0.00  0.00    -0.056 A 
ATOM     36  C18 MOL d           8.694  29.143   6.937  0.00  0.00    -0.064 A 
ATOM     37  H9  MOL d           8.567  30.618   5.389  0.00  0.00     0.087 H 
ATOM     38  C19 MOL d           8.791  27.790   7.228  0.00  0.00     0.041 A 
ATOM     39  H10 MOL d           8.656  29.871   7.740  0.00  0.00     0.085 H 
ATOM     40  C20 MOL d           8.835  26.857   6.197  0.00  0.00    -0.064 A 
ATOM     41  C21 MOL d           8.782  27.280   4.874  0.00  0.00    -0.056 A 
ATOM     42  H11 MOL d           8.910  25.800   6.425  0.00  0.00     0.085 H 
ATOM     43  H12 MOL d           8.810  26.553   4.071  0.00  0.00     0.087 H 
BRANCH  38  44
ATOM     44  C22 MOL d           8.847  27.344   8.652  0.00  0.00     0.209 C 
ATOM     45  O28 MOL d           7.988  27.764   9.472  0.00  0.00    -0.644 OA
ATOM     46  O29 MOL d           9.753  26.551   9.033  0.00  0.00    -0.644 OA
ENDBRANCH  38  44
ENDBRANCH  32  34
ENDBRANCH   4  32
TORSDOF 6
ENDMDL
MODEL 4
REMARK VINA RESULT:      -8.2      3.532      5.743
REMARK  6 active torsions:
REMARK  status: ('A' for Active; 'I' for Inactive)
REMARK    1  A    between atoms: C07_7  and  N03_3 
REMARK    2  A    between atoms: N03_3  and  C09_9 
REMARK    3  A    between atoms: C06_6  and  N04_4 
REMARK    4  A    between atoms: N04_4  and  C16_16 
REMARK    5  A    between atoms: C14_14  and  C15_15 
REMARK    6  A    between atoms: C19_19  and  C22_22 
ROOT
ATOM      1  N01 MOL d           4.702  31.550   1.052  0.00  0.00    -0.075 NA
ATOM      2  N02 MOL d           4.984  29.869   2.659  0.00  0.00    -0.045 NA
ATOM      3  C05 MOL d           5.311  30.794   0.125  0.00  0.00     0.025 A 
ATOM      4  C06 MOL d           4.552  31.085   2.296  0.00  0.00     0.728 A 
ATOM      5  C07 MOL d           5.601  29.074   1.760  0.00  0.00     0.148 A 
ATOM      6  C08 MOL d           5.782  29.527   0.454  0.00  0.00    -0.021 A 
ATOM      7  H3  MOL d           5.436  31.171  -0.884  0.00  0.00     0.115 H 
ATOM      8  H4  MOL d           6.277  28.908  -0.286  0.00  0.00     0.091 H 
ENDROOT
BRANCH   5   9
ATOM      9  N03 MOL d           6.083  27.764   2.118  0.00  0.00    -0.340 N 
ATOM     10  H1  MOL d           5.432  27.097   2.557  0.00  0.00     0.167 HD
BRANCH   9  11
ATOM     11  C09 MOL d           7.441  27.358   1.884  0.00  0.00     0.044 A 
ATOM     12  C10 MOL d           7.831  26.953   0.615  0.00  0.00    -0.056 A 
ATOM     13  C11 MOL d           9.139  26.554   0.386  0.00  0.00    -0.081 A 
ATOM     14  H5  MOL d           7.112  26.948  -0.196  0.00  0.00     0.086 H 
ATOM     15  C12 MOL d          10.068  26.551   1.414  0.00  0.00    -0.082 A 
ATOM     16  H6  MOL d           9.438  26.241  -0.608  0.00  0.00     0.083 H 
ATOM     17  C13 MOL d           9.678  26.951   2.682  0.00  0.00    -0.070 A 
ATOM     18  H7  MOL d          11.089  26.238   1.228  0.00  0.00     0.083 H 
ATOM     19  C14 MOL d           8.370  27.352   2.920  0.00  0.00     0.001 A 
ATOM     20  H8  MOL d          10.398  26.951   3.492  0.00  0.00     0.084 H 
BRANCH  19  21
ATOM     21  C15 MOL d           7.990  27.782   4.300  0.00  0.00    -0.024 A 
ATOM     22  C23 MOL d           8.130  29.106   4.690  0.00  0.00    -0.072 A 
ATOM     23  C24 MOL d           7.766  29.489   5.972  0.00  0.00    -0.082 A 
ATOM     24  H13 MOL d           8.522  29.840   3.996  0.00  0.00     0.084 H 
ATOM     25  C25 MOL d           7.262  28.550   6.859  0.00  0.00    -0.083 A 
ATOM     26  H14 MOL d           7.876  30.522   6.282  0.00  0.00     0.083 H 
ATOM     27  C26 MOL d           7.120  27.227   6.472  0.00  0.00    -0.082 A 
ATOM     28  H15 MOL d           6.978  28.852   7.861  0.00  0.00     0.083 H 
ATOM     29  C27 MOL d           7.482  26.846   5.190  0.00  0.00    -0.072 A 
ATOM     30  H16 MOL d           6.727  26.495   7.168  0.00  0.00     0.083 H 
ATOM     31  H17 MOL d           7.369  25.813   4.881  0.00  0.00     0.084 H 
ENDBRANCH  19  21
ENDBRANCH   9  11
ENDBRANCH   5   9
BRANCH   4  32
ATOM     32  N04 MOL d           3.882  31.951   3.227  0.00  0.00    -0.188 N 
ATOM     33  H2  MOL d           3.457  32.806   2.842  0.00  0.00     0.184 HD
BRANCH  32  34
ATOM     34  C16 MOL d           3.747  31.741   4.639  0.00  0.00     0.049 A 
ATOM     35  C17 MOL d           4.365  30.631   5.200  0.00  0.00    -0.056 A 
ATOM     36  C18 MOL d           4.277  30.393   6.562  0.00  0.00    -0.064 A 
ATOM     37  H9  MOL d           4.920  29.947   4.568  0.00  0.00     0.087 H 
ATOM     38  C19 MOL d           3.569  31.270   7.371  0.00  0.00     0.041 A 
ATOM     39  H10 MOL d           4.761  29.524   6.995  0.00  0.00     0.085 H 
ATOM     40  C20 MOL d           2.954  32.387   6.815  0.00  0.00    -0.064 A 
ATOM     41  C21 MOL d           3.046  32.625   5.449  0.00  0.00    -0.056 A 
ATOM     42  H11 MOL d           2.401  33.072   7.447  0.00  0.00     0.085 H 
ATOM     43  H12 MOL d           2.572  33.498   5.016  0.00  0.00     0.087 H 
BRANCH  38  44
ATOM     44  C22 MOL d           3.473  31.007   8.838  0.00  0.00     0.209 C 
ATOM     45  O28 MOL d           2.496  31.459   9.491  0.00  0.00    -0.644 OA
ATOM     46  O29 MOL d           4.369  30.335   9.421  0.00  0.00    -0.644 OA
ENDBRANCH  38  44
ENDBRANCH  32  34
ENDBRANCH   4  32
TORSDOF 6
ENDMDL
MODEL 5
REMARK VINA RESULT:      -8.0      4.064      7.886
REMARK  6 active torsions:
REMARK  status: ('A' for Active; 'I' for Inactive)
REMARK    1  A    between atoms: C07_7  and  N03_3 
REMARK    2  A    between atoms: N03_3  and  C09_9 
REMARK    3  A    between atoms: C06_6  and  N04_4 
REMARK    4  A    between atoms: N04_4  and  C16_16 
REMARK    5  A    between atoms: C14_14  and  C15_15 
REMARK    6  A    between atoms: C19_19  and  C22_22 
ROOT
ATOM      1  N01 MOL d           8.409  29.384   1.561  0.00  0.00    -0.075 NA
ATOM      2  N02 MOL d           6.868  29.208   3.316  0.00  0.00    -0.045 NA
ATOM      3  C05 MOL d           7.463  29.889   0.753  0.00  0.00     0.025 A 
ATOM      4  C06 MOL d           8.102  29.048   2.818  0.00  0.00     0.728 A 
ATOM      5  C07 MOL d           5.885  29.713   2.540  0.00  0.00     0.148 A 
ATOM      6  C08 MOL d           6.166  30.068   1.222  0.00  0.00    -0.021 A 
ATOM      7  H3  MOL d           7.711  30.158  -0.267  0.00  0.00     0.115 H 
ATOM      8  H4  MOL d           5.393  30.474   0.579  0.00  0.00     0.091 H 
ENDROOT
BRANCH   5   9
ATOM      9  N03 MOL d           4.546  29.893   3.042  0.00  0.00    -0.340 N 
ATOM     10  H1  MOL d           3.750  29.706   2.415  0.00  0.00     0.167 HD
BRANCH   9  11
ATOM     11  C09 MOL d           4.284  30.323   4.388  0.00  0.00     0.044 A 
ATOM     12  C10 MOL d           4.717  29.550   5.455  0.00  0.00    -0.056 A 
ATOM     13  C11 MOL d           4.461  29.958   6.756  0.00  0.00    -0.081 A 
ATOM     14  H5  MOL d           5.254  28.627   5.273  0.00  0.00     0.086 H 
ATOM     15  C12 MOL d           3.771  31.134   7.005  0.00  0.00    -0.082 A 
ATOM     16  H6  MOL d           4.804  29.351   7.586  0.00  0.00     0.083 H 
ATOM     17  C13 MOL d           3.336  31.904   5.939  0.00  0.00    -0.070 A 
ATOM     18  H7  MOL d           3.575  31.447   8.024  0.00  0.00     0.083 H 
ATOM     19  C14 MOL d           3.588  31.503   4.634  0.00  0.00     0.001 A 
ATOM     20  H8  MOL d           2.795  32.825   6.125  0.00  0.00     0.084 H 
BRANCH  19  21
ATOM     21  C15 MOL d           3.107  32.363   3.511  0.00  0.00    -0.024 A 
ATOM     22  C23 MOL d           4.001  32.875   2.581  0.00  0.00    -0.072 A 
ATOM     23  C24 MOL d           3.536  33.667   1.542  0.00  0.00    -0.082 A 
ATOM     24  H13 MOL d           5.059  32.657   2.666  0.00  0.00     0.084 H 
ATOM     25  C25 MOL d           2.182  33.943   1.433  0.00  0.00    -0.083 A 
ATOM     26  H14 MOL d           4.231  34.070   0.815  0.00  0.00     0.083 H 
ATOM     27  C26 MOL d           1.287  33.432   2.359  0.00  0.00    -0.082 A 
ATOM     28  H15 MOL d           1.821  34.562   0.619  0.00  0.00     0.083 H 
ATOM     29  C27 MOL d           1.752  32.640   3.397  0.00  0.00    -0.072 A 
ATOM     30  H16 MOL d           0.229  33.651   2.272  0.00  0.00     0.083 H 
ATOM     31  H17 MOL d           1.055  32.234   4.121  0.00  0.00     0.084 H 
ENDBRANCH  19  21
ENDBRANCH   9  11
ENDBRANCH   5   9
BRANCH   4  32
ATOM     32  N04 MOL d           9.171  28.522   3.620  0.00  0.00    -0.188 N 
ATOM     33  H2  MOL d          10.080  28.392   3.155  0.00  0.00     0.184 HD
BRANCH  32  34
ATOM     34  C16 MOL d           9.098  28.162   5.006  0.00  0.00     0.049 A 
ATOM     35  C17 MOL d           8.808  29.159   5.929  0.00  0.00    -0.056 A 
ATOM     36  C18 MOL d           8.712  28.859   7.279  0.00  0.00    -0.064 A 
ATOM     37  H9  MOL d           8.657  30.178   5.591  0.00  0.00     0.087 H 
ATOM     38  C19 MOL d           8.904  27.554   7.710  0.00  0.00     0.041 A 
ATOM     39  H10 MOL d           8.487  29.641   7.995  0.00  0.00     0.085 H 
ATOM     40  C20 MOL d           9.187  26.551   6.788  0.00  0.00    -0.064 A 
ATOM     41  C21 MOL d           9.280  26.854   5.436  0.00  0.00    -0.056 A 
ATOM     42  H11 MOL d           9.336  25.532   7.126  0.00  0.00     0.085 H 
ATOM     43  H12 MOL d           9.495  26.072   4.717  0.00  0.00     0.087 H 
BRANCH  38  44
ATOM     44  C22 MOL d           8.802  27.236   9.165  0.00  0.00     0.209 C 
ATOM     45  O28 MOL d           7.816  27.655   9.828  0.00  0.00    -0.644 OA
ATOM     46  O29 MOL d           9.700  26.551   9.728  0.00  0.00    -0.644 OA
ENDBRANCH  38  44
ENDBRANCH  32  34
ENDBRANCH   4  32
TORSDOF 6
ENDMDL
