MODEL 1
REMARK VINA RESULT:     -10.6      0.000      0.000
REMARK  5 active torsions:
REMARK  status: ('A' for Active; 'I' for Inactive)
REMARK    1  A    between atoms: CAW_6  and  C2_7 
REMARK    2  A    between atoms: CAU_12  and  NAQ_13 
REMARK       I    between atoms: NAQ_13  and  CAT_14 
REMARK    3  A    between atoms: CAT_14  and  CAC_16 
REMARK    4  A    between atoms: C6_21  and  NAR_22 
REMARK    5  A    between atoms: NAR_22  and  CAV_23 
ROOT
ATOM      1  C2  G97 d          23.372  -0.859 -19.584  0.00  0.00     0.162 A 
ATOM      2  N1  G97 d          23.362   0.305 -20.274  0.00  0.00    -0.210 NA
ATOM      3  N3  G97 d          22.926  -0.914 -18.313  0.00  0.00    -0.228 NA
ATOM      4  C4  G97 d          22.447   0.182 -17.709  0.00  0.00     0.075 A 
ATOM      5  CAM G97 d          21.979   0.085 -16.398  0.00  0.00    -0.028 A 
ATOM      6  CAU G97 d          21.463   1.204 -15.747  0.00  0.00     0.037 A 
ATOM      7  CAK G97 d          21.428   2.433 -16.431  0.00  0.00    -0.056 A 
ATOM      8  CAL G97 d          21.902   2.529 -17.747  0.00  0.00    -0.065 A 
ATOM      9  C5  G97 d          22.416   1.400 -18.398  0.00  0.00     0.039 A 
ATOM     10  C6  G97 d          22.892   1.442 -19.719  0.00  0.00     0.144 A 
ATOM     11  H6  G97 d          22.017  -0.868 -15.883  0.00  0.00     0.090 H 
ATOM     12  H11 G97 d          21.031   3.312 -15.937  0.00  0.00     0.086 H 
ATOM     13  H12 G97 d          21.871   3.481 -18.264  0.00  0.00     0.085 H 
ENDROOT
BRANCH   1  14
ATOM     14  CAW G97 d          23.878  -2.032 -20.136  0.00  0.00     0.012 A 
ATOM     15  CAH G97 d          24.973  -1.984 -21.010  0.00  0.00    -0.069 A 
ATOM     16  CAE G97 d          25.515  -3.150 -21.548  0.00  0.00    -0.082 A 
ATOM     17  H1  G97 d          25.405  -1.025 -21.270  0.00  0.00     0.085 H 
ATOM     18  CAD G97 d          24.945  -4.369 -21.201  0.00  0.00    -0.083 A 
ATOM     19  H2  G97 d          26.363  -3.107 -22.223  0.00  0.00     0.083 H 
ATOM     20  CAF G97 d          23.864  -4.435 -20.319  0.00  0.00    -0.082 A 
ATOM     21  H3  G97 d          25.346  -5.283 -21.621  0.00  0.00     0.083 H 
ATOM     22  CAI G97 d          23.321  -3.264 -19.782  0.00  0.00    -0.069 A 
ATOM     23  H4  G97 d          23.444  -5.397 -20.051  0.00  0.00     0.083 H 
ATOM     24  H5  G97 d          22.480  -3.310 -19.100  0.00  0.00     0.085 H 
ENDBRANCH   1  14
BRANCH  10  25
ATOM     25  NAR G97 d          22.888   2.588 -20.433  0.00  0.00    -0.325 N 
ATOM     26  H13 G97 d          22.887   3.478 -19.915  0.00  0.00     0.169 HD
BRANCH  25  27
ATOM     27  CAV G97 d          22.885   2.642 -21.788  0.00  0.00     0.124 A 
ATOM     28  CAJ G97 d          23.349   3.662 -22.505  0.00  0.00    -0.021 A 
ATOM     29  CAG G97 d          23.151   3.314 -23.780  0.00  0.00     0.025 A 
ATOM     30  H14 G97 d          23.795   4.583 -22.133  0.00  0.00     0.091 H 
ATOM     31  NAS G97 d          22.569   2.104 -23.795  0.00  0.00    -0.186 NA
ATOM     32  H15 G97 d          23.416   3.908 -24.654  0.00  0.00     0.117 H 
ATOM     33  NAN G97 d          22.413   1.709 -22.629  0.00  0.00    -0.263 N 
ATOM     34  H16 G97 d          21.991   0.811 -22.352  0.00  0.00     0.190 HD
ENDBRANCH  25  27
ENDBRANCH  10  25
BRANCH   6  35
ATOM     35  NAQ G97 d          21.044   1.038 -14.476  0.00  0.00    -0.324 N 
ATOM     36  CAT G97 d          19.943   1.543 -13.905  0.00  0.00     0.244 C 
ATOM     37  OAB G97 d          19.114   2.250 -14.488  0.00  0.00    -0.268 OA
ATOM     38  H7  G97 d          21.624   0.472 -13.892  0.00  0.00     0.169 HD
BRANCH  36  39
ATOM     39  CAC G97 d          19.726   1.232 -12.561  0.00  0.00    -0.026 C 
ATOM     40  CAA G97 d          20.610   0.418 -11.854  0.00  0.00    -0.116 C 
ATOM     41  H9  G97 d          20.420   0.189 -10.806  0.00  0.00     0.067 H 
ATOM     42  H10 G97 d          21.492   0.012 -12.349  0.00  0.00     0.067 H 
ATOM     43  H8  G97 d          18.848   1.632 -12.055  0.00  0.00     0.090 H 
ENDBRANCH  36  39
ENDBRANCH   6  35
TORSDOF 5
ENDMDL
MODEL 2
REMARK VINA RESULT:      -9.7      1.436      4.737
REMARK  5 active torsions:
REMARK  status: ('A' for Active; 'I' for Inactive)
REMARK    1  A    between atoms: CAW_6  and  C2_7 
REMARK    2  A    between atoms: CAU_12  and  NAQ_13 
REMARK       I    between atoms: NAQ_13  and  CAT_14 
REMARK    3  A    between atoms: CAT_14  and  CAC_16 
REMARK    4  A    between atoms: C6_21  and  NAR_22 
REMARK    5  A    between atoms: NAR_22  and  CAV_23 
ROOT
ATOM      1  C2  G97 d          22.761   2.003 -20.268  0.00  0.00     0.162 A 
ATOM      2  N1  G97 d          23.149   0.706 -20.288  0.00  0.00    -0.210 NA
ATOM      3  N3  G97 d          22.218   2.545 -19.160  0.00  0.00    -0.228 NA
ATOM      4  C4  G97 d          22.065   1.815 -18.047  0.00  0.00     0.075 A 
ATOM      5  CAM G97 d          21.513   2.414 -16.914  0.00  0.00    -0.028 A 
ATOM      6  CAU G97 d          21.353   1.685 -15.737  0.00  0.00     0.037 A 
ATOM      7  CAK G97 d          21.749   0.336 -15.713  0.00  0.00    -0.056 A 
ATOM      8  CAL G97 d          22.300  -0.265 -16.854  0.00  0.00    -0.065 A 
ATOM      9  C5  G97 d          22.463   0.474 -18.033  0.00  0.00     0.039 A 
ATOM     10  C6  G97 d          23.020  -0.079 -19.198  0.00  0.00     0.144 A 
ATOM     11  H6  G97 d          21.208   3.453 -16.949  0.00  0.00     0.090 H 
ATOM     12  H11 G97 d          21.629  -0.245 -14.805  0.00  0.00     0.086 H 
ATOM     13  H12 G97 d          22.601  -1.306 -16.824  0.00  0.00     0.085 H 
ENDROOT
BRANCH   1  14
ATOM     14  CAW G97 d          22.866   2.815 -21.393  0.00  0.00     0.012 A 
ATOM     15  CAH G97 d          23.087   2.245 -22.655  0.00  0.00    -0.069 A 
ATOM     16  CAE G97 d          23.163   3.038 -23.799  0.00  0.00    -0.082 A 
ATOM     17  H1  G97 d          23.200   1.171 -22.742  0.00  0.00     0.085 H 
ATOM     18  CAD G97 d          23.015   4.413 -23.664  0.00  0.00    -0.083 A 
ATOM     19  H2  G97 d          23.333   2.592 -24.773  0.00  0.00     0.083 H 
ATOM     20  CAF G97 d          22.779   4.995 -22.416  0.00  0.00    -0.082 A 
ATOM     21  H3  G97 d          23.085   5.045 -24.541  0.00  0.00     0.083 H 
ATOM     22  CAI G97 d          22.705   4.197 -21.270  0.00  0.00    -0.069 A 
ATOM     23  H4  G97 d          22.653   6.069 -22.336  0.00  0.00     0.083 H 
ATOM     24  H5  G97 d          22.525   4.645 -20.299  0.00  0.00     0.085 H 
ENDBRANCH   1  14
BRANCH  10  25
ATOM     25  NAR G97 d          23.421  -1.367 -19.245  0.00  0.00    -0.325 N 
ATOM     26  H13 G97 d          23.027  -2.019 -18.552  0.00  0.00     0.169 HD
BRANCH  25  27
ATOM     27  CAV G97 d          24.310  -1.856 -20.145  0.00  0.00     0.124 A 
ATOM     28  CAJ G97 d          24.419  -3.139 -20.479  0.00  0.00    -0.021 A 
ATOM     29  CAG G97 d          25.407  -3.186 -21.378  0.00  0.00     0.025 A 
ATOM     30  H14 G97 d          23.829  -3.973 -20.102  0.00  0.00     0.091 H 
ATOM     31  NAS G97 d          25.869  -1.937 -21.552  0.00  0.00    -0.186 NA
ATOM     32  H15 G97 d          25.773  -4.080 -21.880  0.00  0.00     0.117 H 
ATOM     33  NAN G97 d          25.227  -1.157 -20.831  0.00  0.00    -0.263 N 
ATOM     34  H16 G97 d          25.374  -0.140 -20.770  0.00  0.00     0.190 HD
ENDBRANCH  25  27
ENDBRANCH  10  25
BRANCH   6  35
ATOM     35  NAQ G97 d          20.798   2.325 -14.687  0.00  0.00    -0.324 N 
ATOM     36  CAT G97 d          19.565   2.839 -14.600  0.00  0.00     0.244 C 
ATOM     37  OAB G97 d          18.721   2.786 -15.502  0.00  0.00    -0.268 OA
ATOM     38  H7  G97 d          21.376   2.427 -13.878  0.00  0.00     0.169 HD
BRANCH  36  39
ATOM     39  CAC G97 d          19.220   3.464 -13.399  0.00  0.00    -0.026 C 
ATOM     40  CAA G97 d          19.893   3.174 -12.213  0.00  0.00    -0.116 C 
ATOM     41  H9  G97 d          19.607   3.674 -11.289  0.00  0.00     0.067 H 
ATOM     42  H10 G97 d          20.705   2.447 -12.212  0.00  0.00     0.067 H 
ATOM     43  H8  G97 d          18.410   4.192 -13.389  0.00  0.00     0.090 H 
ENDBRANCH  36  39
ENDBRANCH   6  35
TORSDOF 5
ENDMDL
MODEL 3
REMARK VINA RESULT:      -9.5      1.872      2.384
REMARK  5 active torsions:
REMARK  status: ('A' for Active; 'I' for Inactive)
REMARK    1  A    between atoms: CAW_6  and  C2_7 
REMARK    2  A    between atoms: CAU_12  and  NAQ_13 
REMARK       I    between atoms: NAQ_13  and  CAT_14 
REMARK    3  A    between atoms: CAT_14  and  CAC_16 
REMARK    4  A    between atoms: C6_21  and  NAR_22 
REMARK    5  A    between atoms: NAR_22  and  CAV_23 
ROOT
ATOM      1  C2  G97 d          23.117  -0.375 -18.799  0.00  0.00     0.162 A 
ATOM      2  N1  G97 d          22.993   0.937 -19.106  0.00  0.00    -0.210 NA
ATOM      3  N3  G97 d          22.674  -0.855 -17.620  0.00  0.00    -0.228 NA
ATOM      4  C4  G97 d          22.087  -0.044 -16.729  0.00  0.00     0.075 A 
ATOM      5  CAM G97 d          21.627  -0.578 -15.525  0.00  0.00    -0.028 A 
ATOM      6  CAU G97 d          21.000   0.237 -14.585  0.00  0.00     0.037 A 
ATOM      7  CAK G97 d          20.845   1.606 -14.867  0.00  0.00    -0.056 A 
ATOM      8  CAL G97 d          21.311   2.142 -16.076  0.00  0.00    -0.065 A 
ATOM      9  C5  G97 d          21.937   1.317 -17.020  0.00  0.00     0.039 A 
ATOM     10  C6  G97 d          22.410   1.803 -18.250  0.00  0.00     0.144 A 
ATOM     11  H6  G97 d          21.759  -1.634 -15.320  0.00  0.00     0.090 H 
ATOM     12  H11 G97 d          20.361   2.253 -14.143  0.00  0.00     0.086 H 
ATOM     13  H12 G97 d          21.187   3.199 -16.282  0.00  0.00     0.085 H 
ENDROOT
BRANCH   1  14
ATOM     14  CAW G97 d          23.739  -1.272 -19.663  0.00  0.00     0.012 A 
ATOM     15  CAH G97 d          23.387  -2.630 -19.639  0.00  0.00    -0.069 A 
ATOM     16  CAE G97 d          23.974  -3.539 -20.518  0.00  0.00    -0.082 A 
ATOM     17  H1  G97 d          22.648  -2.977 -18.927  0.00  0.00     0.085 H 
ATOM     18  CAD G97 d          24.920  -3.072 -21.423  0.00  0.00    -0.083 A 
ATOM     19  H2  G97 d          23.699  -4.588 -20.497  0.00  0.00     0.083 H 
ATOM     20  CAF G97 d          25.269  -1.720 -21.469  0.00  0.00    -0.082 A 
ATOM     21  H3  G97 d          25.395  -3.768 -22.103  0.00  0.00     0.083 H 
ATOM     22  CAI G97 d          24.680  -0.811 -20.585  0.00  0.00    -0.069 A 
ATOM     23  H4  G97 d          25.999  -1.376 -22.193  0.00  0.00     0.083 H 
ATOM     24  H5  G97 d          24.951   0.239 -20.616  0.00  0.00     0.085 H 
ENDBRANCH   1  14
BRANCH  10  25
ATOM     25  NAR G97 d          22.294   3.105 -18.584  0.00  0.00    -0.325 N 
ATOM     26  H13 G97 d          22.285   3.799 -17.823  0.00  0.00     0.169 HD
BRANCH  25  27
ATOM     27  CAV G97 d          22.188   3.558 -19.858  0.00  0.00     0.124 A 
ATOM     28  CAJ G97 d          23.082   4.340 -20.460  0.00  0.00    -0.021 A 
ATOM     29  CAG G97 d          22.595   4.553 -21.685  0.00  0.00     0.025 A 
ATOM     30  H14 G97 d          24.011   4.723 -20.042  0.00  0.00     0.091 H 
ATOM     31  NAS G97 d          21.423   3.904 -21.785  0.00  0.00    -0.186 NA
ATOM     32  H15 G97 d          23.065   5.149 -22.466  0.00  0.00     0.117 H 
ATOM     33  NAN G97 d          21.184   3.321 -20.716  0.00  0.00    -0.263 N 
ATOM     34  H16 G97 d          20.351   2.747 -20.519  0.00  0.00     0.190 HD
ENDBRANCH  25  27
ENDBRANCH  10  25
BRANCH   6  35
ATOM     35  NAQ G97 d          20.596  -0.345 -13.437  0.00  0.00    -0.324 N 
ATOM     36  CAT G97 d          21.086  -1.452 -12.865  0.00  0.00     0.244 C 
ATOM     37  OAB G97 d          22.024  -2.117 -13.317  0.00  0.00    -0.268 OA
ATOM     38  H7  G97 d          19.843   0.103 -12.958  0.00  0.00     0.169 HD
BRANCH  36  39
ATOM     39  CAC G97 d          20.492  -1.864 -11.669  0.00  0.00    -0.026 C 
ATOM     40  CAA G97 d          20.891  -3.037 -11.029  0.00  0.00    -0.116 C 
ATOM     41  H9  G97 d          20.414  -3.337 -10.097  0.00  0.00     0.067 H 
ATOM     42  H10 G97 d          21.679  -3.652 -11.461  0.00  0.00     0.067 H 
ATOM     43  H8  G97 d          19.703  -1.257 -11.227  0.00  0.00     0.090 H 
ENDBRANCH  36  39
ENDBRANCH   6  35
TORSDOF 5
ENDMDL
MODEL 4
REMARK VINA RESULT:      -9.3      2.358      6.472
REMARK  5 active torsions:
REMARK  status: ('A' for Active; 'I' for Inactive)
REMARK    1  A    between atoms: CAW_6  and  C2_7 
REMARK    2  A    between atoms: CAU_12  and  NAQ_13 
REMARK       I    between atoms: NAQ_13  and  CAT_14 
REMARK    3  A    between atoms: CAT_14  and  CAC_16 
REMARK    4  A    between atoms: C6_21  and  NAR_22 
REMARK    5  A    between atoms: NAR_22  and  CAV_23 
ROOT
ATOM      1  C2  G97 d          21.704   2.107 -17.456  0.00  0.00     0.162 A 
ATOM      2  N1  G97 d          21.785   3.051 -18.422  0.00  0.00    -0.210 NA
ATOM      3  N3  G97 d          22.162   0.857 -17.671  0.00  0.00    -0.228 NA
ATOM      4  C4  G97 d          22.722   0.526 -18.842  0.00  0.00     0.075 A 
ATOM      5  CAM G97 d          23.199  -0.772 -19.023  0.00  0.00    -0.028 A 
ATOM      6  CAU G97 d          23.799  -1.144 -20.225  0.00  0.00     0.037 A 
ATOM      7  CAK G97 d          23.908  -0.190 -21.254  0.00  0.00    -0.056 A 
ATOM      8  CAL G97 d          23.424   1.113 -21.071  0.00  0.00    -0.065 A 
ATOM      9  C5  G97 d          22.827   1.482 -19.858  0.00  0.00     0.039 A 
ATOM     10  C6  G97 d          22.338   2.778 -19.622  0.00  0.00     0.144 A 
ATOM     11  H6  G97 d          23.103  -1.497 -18.223  0.00  0.00     0.090 H 
ATOM     12  H11 G97 d          24.370  -0.465 -22.195  0.00  0.00     0.086 H 
ATOM     13  H12 G97 d          23.514   1.839 -21.871  0.00  0.00     0.085 H 
ENDROOT
BRANCH   1  14
ATOM     14  CAW G97 d          21.114   2.370 -16.224  0.00  0.00     0.012 A 
ATOM     15  CAH G97 d          20.559   3.631 -15.964  0.00  0.00    -0.069 A 
ATOM     16  CAE G97 d          19.933   3.905 -14.748  0.00  0.00    -0.082 A 
ATOM     17  H1  G97 d          20.617   4.405 -16.720  0.00  0.00     0.085 H 
ATOM     18  CAD G97 d          19.871   2.898 -13.793  0.00  0.00    -0.083 A 
ATOM     19  H2  G97 d          19.505   4.882 -14.553  0.00  0.00     0.083 H 
ATOM     20  CAF G97 d          20.404   1.631 -14.043  0.00  0.00    -0.082 A 
ATOM     21  H3  G97 d          19.400   3.098 -12.838  0.00  0.00     0.083 H 
ATOM     22  CAI G97 d          21.032   1.360 -15.262  0.00  0.00    -0.069 A 
ATOM     23  H4  G97 d          20.331   0.856 -13.288  0.00  0.00     0.083 H 
ATOM     24  H5  G97 d          21.451   0.379 -15.458  0.00  0.00     0.085 H 
ENDBRANCH   1  14
BRANCH  10  25
ATOM     25  NAR G97 d          22.411   3.741 -20.565  0.00  0.00    -0.325 N 
ATOM     26  H13 G97 d          23.216   4.383 -20.537  0.00  0.00     0.169 HD
BRANCH  25  27
ATOM     27  CAV G97 d          21.493   3.917 -21.548  0.00  0.00     0.124 A 
ATOM     28  CAJ G97 d          21.633   4.752 -22.574  0.00  0.00    -0.021 A 
ATOM     29  CAG G97 d          20.513   4.622 -23.289  0.00  0.00     0.025 A 
ATOM     30  H14 G97 d          22.481   5.401 -22.786  0.00  0.00     0.091 H 
ATOM     31  NAS G97 d          19.728   3.724 -22.672  0.00  0.00    -0.186 NA
ATOM     32  H15 G97 d          20.276   5.153 -24.211  0.00  0.00     0.117 H 
ATOM     33  NAN G97 d          20.301   3.309 -21.653  0.00  0.00    -0.263 N 
ATOM     34  H16 G97 d          19.924   2.612 -20.994  0.00  0.00     0.190 HD
ENDBRANCH  25  27
ENDBRANCH  10  25
BRANCH   6  35
ATOM     35  NAQ G97 d          24.221  -2.420 -20.334  0.00  0.00    -0.324 N 
ATOM     36  CAT G97 d          23.671  -3.513 -19.791  0.00  0.00     0.244 C 
ATOM     37  OAB G97 d          22.650  -3.510 -19.096  0.00  0.00    -0.268 OA
ATOM     38  H7  G97 d          25.042  -2.566 -20.885  0.00  0.00     0.169 HD
BRANCH  36  39
ATOM     39  CAC G97 d          24.301  -4.734 -20.046  0.00  0.00    -0.026 C 
ATOM     40  CAA G97 d          24.828  -5.028 -21.303  0.00  0.00    -0.116 C 
ATOM     41  H9  G97 d          25.315  -5.986 -21.479  0.00  0.00     0.067 H 
ATOM     42  H10 G97 d          24.754  -4.298 -22.109  0.00  0.00     0.067 H 
ATOM     43  H8  G97 d          24.381  -5.471 -19.248  0.00  0.00     0.090 H 
ENDBRANCH  36  39
ENDBRANCH   6  35
TORSDOF 5
ENDMDL
MODEL 5
REMARK VINA RESULT:      -8.8      2.577      7.150
REMARK  5 active torsions:
REMARK  status: ('A' for Active; 'I' for Inactive)
REMARK    1  A    between atoms: CAW_6  and  C2_7 
REMARK    2  A    between atoms: CAU_12  and  NAQ_13 
REMARK       I    between atoms: NAQ_13  and  CAT_14 
REMARK    3  A    between atoms: CAT_14  and  CAC_16 
REMARK    4  A    between atoms: C6_21  and  NAR_22 
REMARK    5  A    between atoms: NAR_22  and  CAV_23 
ROOT
ATOM      1  C2  G97 d          22.307   0.413 -17.584  0.00  0.00     0.162 A 
ATOM      2  N1  G97 d          23.095  -0.585 -18.049  0.00  0.00    -0.210 NA
ATOM      3  N3  G97 d          21.968   1.451 -18.373  0.00  0.00    -0.228 NA
ATOM      4  C4  G97 d          22.393   1.512 -19.643  0.00  0.00     0.075 A 
ATOM      5  CAM G97 d          22.010   2.594 -20.435  0.00  0.00    -0.028 A 
ATOM      6  CAU G97 d          22.423   2.679 -21.763  0.00  0.00     0.037 A 
ATOM      7  CAK G97 d          23.239   1.660 -22.288  0.00  0.00    -0.056 A 
ATOM      8  CAL G97 d          23.626   0.575 -21.488  0.00  0.00    -0.065 A 
ATOM      9  C5  G97 d          23.203   0.493 -20.156  0.00  0.00     0.039 A 
ATOM     10  C6  G97 d          23.554  -0.579 -19.318  0.00  0.00     0.144 A 
ATOM     11  H6  G97 d          21.385   3.374 -20.015  0.00  0.00     0.090 H 
ATOM     12  H11 G97 d          23.571   1.714 -23.318  0.00  0.00     0.086 H 
ATOM     13  H12 G97 d          24.256  -0.204 -21.903  0.00  0.00     0.085 H 
ENDROOT
BRANCH   1  14
ATOM     14  CAW G97 d          21.849   0.431 -16.270  0.00  0.00     0.012 A 
ATOM     15  CAH G97 d          21.233   1.580 -15.755  0.00  0.00    -0.069 A 
ATOM     16  CAE G97 d          20.737   1.608 -14.452  0.00  0.00    -0.082 A 
ATOM     17  H1  G97 d          21.140   2.461 -16.380  0.00  0.00     0.085 H 
ATOM     18  CAD G97 d          20.868   0.468 -13.668  0.00  0.00    -0.083 A 
ATOM     19  H2  G97 d          20.261   2.499 -14.059  0.00  0.00     0.083 H 
ATOM     20  CAF G97 d          21.465  -0.690 -14.172  0.00  0.00    -0.082 A 
ATOM     21  H3  G97 d          20.500   0.478 -12.649  0.00  0.00     0.083 H 
ATOM     22  CAI G97 d          21.962  -0.715 -15.478  0.00  0.00    -0.069 A 
ATOM     23  H4  G97 d          21.542  -1.573 -13.547  0.00  0.00     0.083 H 
ATOM     24  H5  G97 d          22.428  -1.611 -15.872  0.00  0.00     0.085 H 
ENDBRANCH   1  14
BRANCH  10  25
ATOM     25  NAR G97 d          24.333  -1.590 -19.757  0.00  0.00    -0.325 N 
ATOM     26  H13 G97 d          25.328  -1.390 -19.932  0.00  0.00     0.169 HD
BRANCH  25  27
ATOM     27  CAV G97 d          23.890  -2.852 -19.982  0.00  0.00     0.124 A 
ATOM     28  CAJ G97 d          24.429  -3.698 -20.856  0.00  0.00    -0.021 A 
ATOM     29  CAG G97 d          23.694  -4.810 -20.768  0.00  0.00     0.025 A 
ATOM     30  H14 G97 d          25.286  -3.522 -21.504  0.00  0.00     0.091 H 
ATOM     31  NAS G97 d          22.733  -4.601 -19.854  0.00  0.00    -0.186 NA
ATOM     32  H15 G97 d          23.848  -5.726 -21.337  0.00  0.00     0.117 H 
ATOM     33  NAN G97 d          22.847  -3.455 -19.392  0.00  0.00    -0.263 N 
ATOM     34  H16 G97 d          22.239  -3.035 -18.674  0.00  0.00     0.190 HD
ENDBRANCH  25  27
ENDBRANCH  10  25
BRANCH   6  35
ATOM     35  NAQ G97 d          22.028   3.762 -22.464  0.00  0.00    -0.324 N 
ATOM     36  CAT G97 d          21.030   3.841 -23.353  0.00  0.00     0.244 C 
ATOM     37  OAB G97 d          20.291   2.899 -23.661  0.00  0.00    -0.268 OA
ATOM     38  H7  G97 d          22.540   4.604 -22.299  0.00  0.00     0.169 HD
BRANCH  36  39
ATOM     39  CAC G97 d          20.815   5.082 -23.957  0.00  0.00    -0.026 C 
ATOM     40  CAA G97 d          19.545   5.471 -24.381  0.00  0.00    -0.116 C 
ATOM     41  H9  G97 d          19.401   6.444 -24.849  0.00  0.00     0.067 H 
ATOM     42  H10 G97 d          18.697   4.801 -24.244  0.00  0.00     0.067 H 
ATOM     43  H8  G97 d          21.656   5.760 -24.099  0.00  0.00     0.090 H 
ENDBRANCH  36  39
ENDBRANCH   6  35
TORSDOF 5
ENDMDL
MODEL 6
REMARK VINA RESULT:      -8.1      3.055      8.758
REMARK  5 active torsions:
REMARK  status: ('A' for Active; 'I' for Inactive)
REMARK    1  A    between atoms: CAW_6  and  C2_7 
REMARK    2  A    between atoms: CAU_12  and  NAQ_13 
REMARK       I    between atoms: NAQ_13  and  CAT_14 
REMARK    3  A    between atoms: CAT_14  and  CAC_16 
REMARK    4  A    between atoms: C6_21  and  NAR_22 
REMARK    5  A    between atoms: NAR_22  and  CAV_23 
ROOT
ATOM      1  C2  G97 d          20.617   2.474 -15.353  0.00  0.00     0.162 A 
ATOM      2  N1  G97 d          21.003   1.239 -14.955  0.00  0.00    -0.210 NA
ATOM      3  N3  G97 d          20.974   2.954 -16.561  0.00  0.00    -0.228 NA
ATOM      4  C4  G97 d          21.707   2.213 -17.402  0.00  0.00     0.075 A 
ATOM      5  CAM G97 d          22.045   2.736 -18.650  0.00  0.00    -0.028 A 
ATOM      6  CAU G97 d          22.796   1.985 -19.552  0.00  0.00     0.037 A 
ATOM      7  CAK G97 d          23.212   0.694 -19.180  0.00  0.00    -0.056 A 
ATOM      8  CAL G97 d          22.875   0.171 -17.923  0.00  0.00    -0.065 A 
ATOM      9  C5  G97 d          22.116   0.929 -17.023  0.00  0.00     0.039 A 
ATOM     10  C6  G97 d          21.742   0.446 -15.758  0.00  0.00     0.144 A 
ATOM     11  H6  G97 d          21.721   3.735 -18.920  0.00  0.00     0.090 H 
ATOM     12  H11 G97 d          23.799   0.098 -19.870  0.00  0.00     0.086 H 
ATOM     13  H12 G97 d          23.202  -0.825 -17.648  0.00  0.00     0.085 H 
ENDROOT
BRANCH   1  14
ATOM     14  CAW G97 d          19.875   3.311 -14.525  0.00  0.00     0.012 A 
ATOM     15  CAH G97 d          19.837   3.079 -13.142  0.00  0.00    -0.069 A 
ATOM     16  CAE G97 d          19.127   3.925 -12.291  0.00  0.00    -0.082 A 
ATOM     17  H1  G97 d          20.368   2.229 -12.730  0.00  0.00     0.085 H 
ATOM     18  CAD G97 d          18.453   5.008 -12.842  0.00  0.00    -0.083 A 
ATOM     19  H2  G97 d          19.101   3.741 -11.222  0.00  0.00     0.083 H 
ATOM     20  CAF G97 d          18.495   5.262 -14.215  0.00  0.00    -0.082 A 
ATOM     21  H3  G97 d          17.886   5.667 -12.195  0.00  0.00     0.083 H 
ATOM     22  CAI G97 d          19.206   4.411 -15.066  0.00  0.00    -0.069 A 
ATOM     23  H4  G97 d          17.974   6.121 -14.621  0.00  0.00     0.083 H 
ATOM     24  H5  G97 d          19.238   4.603 -16.133  0.00  0.00     0.085 H 
ENDBRANCH   1  14
BRANCH  10  25
ATOM     25  NAR G97 d          22.108  -0.784 -15.338  0.00  0.00    -0.325 N 
ATOM     26  H13 G97 d          23.053  -1.115 -15.580  0.00  0.00     0.169 HD
BRANCH  25  27
ATOM     27  CAV G97 d          21.311  -1.611 -14.617  0.00  0.00     0.124 A 
ATOM     28  CAJ G97 d          20.699  -2.687 -15.105  0.00  0.00    -0.021 A 
ATOM     29  CAG G97 d          20.020  -3.203 -14.076  0.00  0.00     0.025 A 
ATOM     30  H14 G97 d          20.743  -3.066 -16.124  0.00  0.00     0.091 H 
ATOM     31  NAS G97 d          20.234  -2.422 -13.004  0.00  0.00    -0.186 NA
ATOM     32  H15 G97 d          19.402  -4.099 -14.102  0.00  0.00     0.117 H 
ATOM     33  NAN G97 d          20.990  -1.490 -13.319  0.00  0.00    -0.263 N 
ATOM     34  H16 G97 d          21.319  -0.745 -12.688  0.00  0.00     0.190 HD
ENDBRANCH  25  27
ENDBRANCH  10  25
BRANCH   6  35
ATOM     35  NAQ G97 d          23.098   2.562 -20.733  0.00  0.00    -0.324 N 
ATOM     36  CAT G97 d          22.938   2.049 -21.959  0.00  0.00     0.244 C 
ATOM     37  OAB G97 d          22.457   0.935 -22.193  0.00  0.00    -0.268 OA
ATOM     38  H7  G97 d          23.488   3.481 -20.687  0.00  0.00     0.169 HD
BRANCH  36  39
ATOM     39  CAC G97 d          23.334   2.845 -23.037  0.00  0.00    -0.026 C 
ATOM     40  CAA G97 d          22.515   3.013 -24.153  0.00  0.00    -0.116 C 
ATOM     41  H9  G97 d          22.845   3.638 -24.981  0.00  0.00     0.067 H 
ATOM     42  H10 G97 d          21.545   2.519 -24.195  0.00  0.00     0.067 H 
ATOM     43  H8  G97 d          24.302   3.344 -23.005  0.00  0.00     0.090 H 
ENDBRANCH  36  39
ENDBRANCH   6  35
TORSDOF 5
ENDMDL
