MODEL 1
REMARK VINA RESULT:      -8.5      0.000      0.000
REMARK  10 active torsions:
REMARK  status: ('A' for Active; 'I' for Inactive)
REMARK    1  A    between atoms: C10_2  and  C11_3 
REMARK    2  A    between atoms: C10_2  and  C9_13 
REMARK    3  A    between atoms: C14_6  and  C17_7 
REMARK    4  A    between atoms: C17_7  and  C18_8 
REMARK    5  A    between atoms: C17_7  and  C19_9 
REMARK    6  A    between atoms: C17_7  and  C20_10 
REMARK    7  A    between atoms: C9_13  and  C5_14 
REMARK    8  A    between atoms: C2_17  and  O2_18 
REMARK    9  A    between atoms: C1_19  and  O1_20 
REMARK   10  A    between atoms: C8_22  and  O8_23 
ROOT
ATOM      1  C9  HN4 d          28.126  66.466   8.427  0.00  0.00     0.022 C 
ATOM      2  H14 HN4 d          28.456  66.718   9.446  0.00  0.00     0.048 H 
ATOM      3  H15 HN4 d          28.130  67.374   7.805  0.00  0.00     0.048 H 
ENDROOT
BRANCH   1   4
ATOM      4  C10 HN4 d          26.698  65.931   8.496  0.00  0.00     0.161 C 
ATOM      5  O10 HN4 d          26.318  64.924   7.902  0.00  0.00    -0.292 OA
BRANCH   4   6
ATOM      6  C11 HN4 d          25.689  66.725   9.273  0.00  0.00     0.010 A 
ATOM      7  C12 HN4 d          26.089  67.731  10.151  0.00  0.00    -0.069 A 
ATOM      8  C13 HN4 d          25.137  68.478  10.852  0.00  0.00    -0.075 A 
ATOM      9  H1  HN4 d          27.144  67.935  10.292  0.00  0.00     0.085 H 
ATOM     10  C14 HN4 d          23.770  68.218  10.689  0.00  0.00    -0.051 A 
ATOM     11  H2  HN4 d          25.460  69.263  11.527  0.00  0.00     0.084 H 
ATOM     12  C15 HN4 d          23.380  67.210   9.806  0.00  0.00    -0.075 A 
ATOM     13  C16 HN4 d          24.325  66.458   9.104  0.00  0.00    -0.069 A 
ATOM     14  H12 HN4 d          22.325  67.007   9.662  0.00  0.00     0.084 H 
ATOM     15  H13 HN4 d          24.004  65.672   8.431  0.00  0.00     0.085 H 
BRANCH  10  16
ATOM     16  C17 HN4 d          22.758  69.044  11.467  0.00  0.00    -0.024 C 
BRANCH  16  17
ATOM     17  C18 HN4 d          23.074  70.529  11.279  0.00  0.00    -0.066 C 
ATOM     18  H3  HN4 d          22.260  71.134  11.707  0.00  0.00     0.028 H 
ATOM     19  H4  HN4 d          23.170  70.750  10.205  0.00  0.00     0.028 H 
ATOM     20  H5  HN4 d          24.018  70.771  11.790  0.00  0.00     0.028 H 
ENDBRANCH  16  17
BRANCH  16  21
ATOM     21  C19 HN4 d          21.334  68.848  10.935  0.00  0.00    -0.066 C 
ATOM     22  H6  HN4 d          21.269  67.887  10.405  0.00  0.00     0.028 H 
ATOM     23  H7  HN4 d          21.085  69.666  10.243  0.00  0.00     0.028 H 
ATOM     24  H8  HN4 d          20.624  68.851  11.775  0.00  0.00     0.028 H 
ENDBRANCH  16  21
BRANCH  16  25
ATOM     25  C20 HN4 d          22.842  68.652  12.943  0.00  0.00    -0.066 C 
ATOM     26  H9  HN4 d          21.829  68.479  13.335  0.00  0.00     0.028 H 
ATOM     27  H10 HN4 d          23.322  69.463  13.511  0.00  0.00     0.028 H 
ATOM     28  H11 HN4 d          23.436  67.732  13.044  0.00  0.00     0.028 H 
ENDBRANCH  16  25
ENDBRANCH  10  16
ENDBRANCH   4   6
ENDBRANCH   1   4
BRANCH   1  29
ATOM     29  C5  HN4 d          29.116  65.465   7.830  0.00  0.00     0.111 C 
ATOM     30  N4  HN4 d          30.519  65.725   8.259  0.00  0.00    -0.055 N 
ATOM     31  C3  HN4 d          30.767  65.814   9.725  0.00  0.00     0.110 C 
ATOM     32  C8A HN4 d          31.122  66.980   7.714  0.00  0.00     0.155 C 
ATOM     33  H17 HN4 d          31.055  64.946   7.908  0.00  0.00     0.281 HD
ATOM     34  C2  HN4 d          32.190  66.396   9.785  0.00  0.00     0.085 C 
ATOM     35  H18 HN4 d          30.724  64.822  10.197  0.00  0.00     0.080 H 
ATOM     36  H19 HN4 d          30.042  66.483  10.211  0.00  0.00     0.080 H 
ATOM     37  C1  HN4 d          32.476  67.038   8.420  0.00  0.00     0.092 C 
ATOM     38  H20 HN4 d          32.241  67.165  10.570  0.00  0.00     0.089 H 
ATOM     39  H22 HN4 d          32.803  68.082   8.536  0.00  0.00     0.090 H 
ATOM     40  C8  HN4 d          31.115  66.985   6.194  0.00  0.00     0.066 C 
ATOM     41  H24 HN4 d          30.526  67.848   8.037  0.00  0.00     0.093 H 
ATOM     42  C7  HN4 d          29.692  66.730   5.673  0.00  0.00    -0.037 C 
ATOM     43  H25 HN4 d          31.787  66.194   5.827  0.00  0.00     0.086 H 
ATOM     44  C6  HN4 d          29.109  65.449   6.287  0.00  0.00    -0.035 C 
ATOM     45  H27 HN4 d          29.722  66.623   4.578  0.00  0.00     0.036 H 
ATOM     46  H28 HN4 d          29.051  67.582   5.941  0.00  0.00     0.036 H 
ATOM     47  H29 HN4 d          28.071  65.335   5.941  0.00  0.00     0.036 H 
ATOM     48  H30 HN4 d          29.705  64.592   5.943  0.00  0.00     0.036 H 
ATOM     49  H16 HN4 d          28.823  64.466   8.187  0.00  0.00     0.085 H 
BRANCH  34  50
ATOM     50  O2  HN4 d          33.154  65.365  10.079  0.00  0.00    -0.391 OA
ATOM     51  H21 HN4 d          33.099  65.134  10.999  0.00  0.00     0.210 HD
ENDBRANCH  34  50
BRANCH  37  52
ATOM     52  O1  HN4 d          33.511  66.294   7.721  0.00  0.00    -0.391 OA
ATOM     53  H23 HN4 d          33.113  65.763   7.041  0.00  0.00     0.210 HD
ENDBRANCH  37  52
BRANCH  40  54
ATOM     54  O8  HN4 d          31.563  68.248   5.710  0.00  0.00    -0.393 OA
ATOM     55  H26 HN4 d          31.821  68.164   4.800  0.00  0.00     0.210 HD
ENDBRANCH  40  54
ENDBRANCH   1  29
TORSDOF 10
ENDMDL
MODEL 2
REMARK VINA RESULT:      -8.1      1.035      1.555
REMARK  10 active torsions:
REMARK  status: ('A' for Active; 'I' for Inactive)
REMARK    1  A    between atoms: C10_2  and  C11_3 
REMARK    2  A    between atoms: C10_2  and  C9_13 
REMARK    3  A    between atoms: C14_6  and  C17_7 
REMARK    4  A    between atoms: C17_7  and  C18_8 
REMARK    5  A    between atoms: C17_7  and  C19_9 
REMARK    6  A    between atoms: C17_7  and  C20_10 
REMARK    7  A    between atoms: C9_13  and  C5_14 
REMARK    8  A    between atoms: C2_17  and  O2_18 
REMARK    9  A    between atoms: C1_19  and  O1_20 
REMARK   10  A    between atoms: C8_22  and  O8_23 
ROOT
ATOM      1  C9  HN4 d          28.199  66.336   8.395  0.00  0.00     0.022 C 
ATOM      2  H14 HN4 d          28.499  66.575   9.426  0.00  0.00     0.048 H 
ATOM      3  H15 HN4 d          28.197  67.257   7.791  0.00  0.00     0.048 H 
ENDROOT
BRANCH   1   4
ATOM      4  C10 HN4 d          26.782  65.770   8.420  0.00  0.00     0.161 C 
ATOM      5  O10 HN4 d          26.331  65.024   7.552  0.00  0.00    -0.292 OA
BRANCH   4   6
ATOM      6  C11 HN4 d          25.869  66.211   9.526  0.00  0.00     0.010 A 
ATOM      7  C12 HN4 d          25.114  67.378   9.410  0.00  0.00    -0.069 A 
ATOM      8  C13 HN4 d          24.251  67.767  10.439  0.00  0.00    -0.075 A 
ATOM      9  H1  HN4 d          25.197  67.987   8.518  0.00  0.00     0.085 H 
ATOM     10  C14 HN4 d          24.141  66.996  11.604  0.00  0.00    -0.051 A 
ATOM     11  H2  HN4 d          23.663  68.672  10.335  0.00  0.00     0.084 H 
ATOM     12  C15 HN4 d          24.900  65.829  11.708  0.00  0.00    -0.075 A 
ATOM     13  C16 HN4 d          25.766  65.435  10.686  0.00  0.00    -0.069 A 
ATOM     14  H12 HN4 d          24.816  65.218  12.599  0.00  0.00     0.084 H 
ATOM     15  H13 HN4 d          26.355  64.531  10.790  0.00  0.00     0.085 H 
BRANCH  10  16
ATOM     16  C17 HN4 d          23.198  67.445  12.708  0.00  0.00    -0.024 C 
BRANCH  16  17
ATOM     17  C18 HN4 d          23.368  66.523  13.917  0.00  0.00    -0.066 C 
ATOM     18  H3  HN4 d          24.247  66.840  14.498  0.00  0.00     0.028 H 
ATOM     19  H4  HN4 d          23.509  65.488  13.572  0.00  0.00     0.028 H 
ATOM     20  H5  HN4 d          22.470  66.579  14.550  0.00  0.00     0.028 H 
ENDBRANCH  16  17
BRANCH  16  21
ATOM     21  C19 HN4 d          23.534  68.855  13.206  0.00  0.00    -0.066 C 
ATOM     22  H6  HN4 d          24.400  69.243  12.650  0.00  0.00     0.028 H 
ATOM     23  H7  HN4 d          23.775  68.817  14.279  0.00  0.00     0.028 H 
ATOM     24  H8  HN4 d          22.670  69.516  13.048  0.00  0.00     0.028 H 
ENDBRANCH  16  21
BRANCH  16  25
ATOM     25  C20 HN4 d          21.765  67.387  12.176  0.00  0.00    -0.066 C 
ATOM     26  H9  HN4 d          21.162  66.727  12.818  0.00  0.00     0.028 H 
ATOM     27  H10 HN4 d          21.771  66.994  11.149  0.00  0.00     0.028 H 
ATOM     28  H11 HN4 d          21.331  68.398  12.180  0.00  0.00     0.028 H 
ENDBRANCH  16  25
ENDBRANCH  10  16
ENDBRANCH   4   6
ENDBRANCH   1   4
BRANCH   1  29
ATOM     29  C5  HN4 d          29.224  65.369   7.802  0.00  0.00     0.111 C 
ATOM     30  N4  HN4 d          30.615  65.668   8.246  0.00  0.00    -0.055 N 
ATOM     31  C3  HN4 d          30.846  65.757   9.715  0.00  0.00     0.110 C 
ATOM     32  C8A HN4 d          31.184  66.945   7.715  0.00  0.00     0.155 C 
ATOM     33  H17 HN4 d          31.177  64.909   7.896  0.00  0.00     0.281 HD
ATOM     34  C2  HN4 d          32.250  66.381   9.792  0.00  0.00     0.085 C 
ATOM     35  H18 HN4 d          30.828  64.761  10.181  0.00  0.00     0.080 H 
ATOM     36  H19 HN4 d          30.097  66.401  10.198  0.00  0.00     0.080 H 
ATOM     37  C1  HN4 d          32.530  67.039   8.433  0.00  0.00     0.092 C 
ATOM     38  H20 HN4 d          32.270  67.147  10.582  0.00  0.00     0.089 H 
ATOM     39  H22 HN4 d          32.824  68.092   8.559  0.00  0.00     0.090 H 
ATOM     40  C8  HN4 d          31.192  66.958   6.194  0.00  0.00     0.066 C 
ATOM     41  H24 HN4 d          30.560  67.792   8.036  0.00  0.00     0.093 H 
ATOM     42  C7  HN4 d          29.783  66.663   5.658  0.00  0.00    -0.037 C 
ATOM     43  H25 HN4 d          31.891  66.190   5.830  0.00  0.00     0.086 H 
ATOM     44  C6  HN4 d          29.233  65.362   6.259  0.00  0.00    -0.035 C 
ATOM     45  H27 HN4 d          29.827  66.564   4.563  0.00  0.00     0.036 H 
ATOM     46  H28 HN4 d          29.114  67.494   5.924  0.00  0.00     0.036 H 
ATOM     47  H29 HN4 d          28.201  65.219   5.902  0.00  0.00     0.036 H 
ATOM     48  H30 HN4 d          29.858  64.525   5.916  0.00  0.00     0.036 H 
ATOM     49  H16 HN4 d          28.958  64.360   8.151  0.00  0.00     0.085 H 
BRANCH  34  50
ATOM     50  O2  HN4 d          33.242  65.377  10.090  0.00  0.00    -0.391 OA
ATOM     51  H21 HN4 d          33.748  65.649  10.846  0.00  0.00     0.210 HD
ENDBRANCH  34  50
BRANCH  37  52
ATOM     52  O1  HN4 d          33.593  66.330   7.741  0.00  0.00    -0.391 OA
ATOM     53  H23 HN4 d          33.220  65.618   7.235  0.00  0.00     0.210 HD
ENDBRANCH  37  52
BRANCH  40  54
ATOM     54  O8  HN4 d          31.607  68.237   5.721  0.00  0.00    -0.393 OA
ATOM     55  H26 HN4 d          32.064  68.136   4.895  0.00  0.00     0.210 HD
ENDBRANCH  40  54
ENDBRANCH   1  29
TORSDOF 10
ENDMDL
MODEL 3
REMARK VINA RESULT:      -6.5      1.622      3.092
REMARK  10 active torsions:
REMARK  status: ('A' for Active; 'I' for Inactive)
REMARK    1  A    between atoms: C10_2  and  C11_3 
REMARK    2  A    between atoms: C10_2  and  C9_13 
REMARK    3  A    between atoms: C14_6  and  C17_7 
REMARK    4  A    between atoms: C17_7  and  C18_8 
REMARK    5  A    between atoms: C17_7  and  C19_9 
REMARK    6  A    between atoms: C17_7  and  C20_10 
REMARK    7  A    between atoms: C9_13  and  C5_14 
REMARK    8  A    between atoms: C2_17  and  O2_18 
REMARK    9  A    between atoms: C1_19  and  O1_20 
REMARK   10  A    between atoms: C8_22  and  O8_23 
ROOT
ATOM      1  C9  HN4 d          27.742  65.648   8.550  0.00  0.00     0.022 C 
ATOM      2  H14 HN4 d          28.196  65.193   7.657  0.00  0.00     0.048 H 
ATOM      3  H15 HN4 d          27.853  64.966   9.406  0.00  0.00     0.048 H 
ENDROOT
BRANCH   1   4
ATOM      4  C10 HN4 d          26.252  65.854   8.284  0.00  0.00     0.161 C 
ATOM      5  O10 HN4 d          25.771  65.972   7.158  0.00  0.00    -0.292 OA
BRANCH   4   6
ATOM      6  C11 HN4 d          25.342  65.998   9.468  0.00  0.00     0.010 A 
ATOM      7  C12 HN4 d          24.487  67.093   9.587  0.00  0.00    -0.069 A 
ATOM      8  C13 HN4 d          23.628  67.204  10.685  0.00  0.00    -0.075 A 
ATOM      9  H1  HN4 d          24.488  67.863   8.825  0.00  0.00     0.085 H 
ATOM     10  C14 HN4 d          23.622  66.221  11.684  0.00  0.00    -0.051 A 
ATOM     11  H2  HN4 d          22.962  68.055  10.763  0.00  0.00     0.084 H 
ATOM     12  C15 HN4 d          24.480  65.128  11.553  0.00  0.00    -0.075 A 
ATOM     13  C16 HN4 d          25.343  65.012  10.461  0.00  0.00    -0.069 A 
ATOM     14  H12 HN4 d          24.478  64.355  12.314  0.00  0.00     0.084 H 
ATOM     15  H13 HN4 d          26.010  64.161  10.383  0.00  0.00     0.085 H 
BRANCH  10  16
ATOM     16  C17 HN4 d          22.680  66.369  12.868  0.00  0.00    -0.024 C 
BRANCH  16  17
ATOM     17  C18 HN4 d          21.369  66.995  12.388  0.00  0.00    -0.066 C 
ATOM     18  H3  HN4 d          21.052  66.510  11.453  0.00  0.00     0.028 H 
ATOM     19  H4  HN4 d          21.519  68.071  12.212  0.00  0.00     0.028 H 
ATOM     20  H5  HN4 d          20.593  66.854  13.155  0.00  0.00     0.028 H 
ENDBRANCH  16  17
BRANCH  16  21
ATOM     21  C19 HN4 d          22.300  65.010  13.467  0.00  0.00    -0.066 C 
ATOM     22  H6  HN4 d          23.200  64.385  13.558  0.00  0.00     0.028 H 
ATOM     23  H7  HN4 d          21.572  64.511  12.811  0.00  0.00     0.028 H 
ATOM     24  H8  HN4 d          21.856  65.160  14.462  0.00  0.00     0.028 H 
ENDBRANCH  16  21
BRANCH  16  25
ATOM     25  C20 HN4 d          23.354  67.254  13.917  0.00  0.00    -0.066 C 
ATOM     26  H9  HN4 d          23.289  66.768  14.903  0.00  0.00     0.028 H 
ATOM     27  H10 HN4 d          22.846  68.229  13.956  0.00  0.00     0.028 H 
ATOM     28  H11 HN4 d          24.411  67.401  13.650  0.00  0.00     0.028 H 
ENDBRANCH  16  25
ENDBRANCH  10  16
ENDBRANCH   4   6
ENDBRANCH   1   4
BRANCH   1  29
ATOM     29  C5  HN4 d          28.483  66.948   8.864  0.00  0.00     0.111 C 
ATOM     30  N4  HN4 d          29.730  67.101   8.064  0.00  0.00    -0.055 N 
ATOM     31  C3  HN4 d          29.599  66.981   6.585  0.00  0.00     0.110 C 
ATOM     32  C8A HN4 d          30.821  66.138   8.407  0.00  0.00     0.155 C 
ATOM     33  H17 HN4 d          30.064  68.031   8.264  0.00  0.00     0.281 HD
ATOM     34  C2  HN4 d          31.064  66.863   6.131  0.00  0.00     0.085 C 
ATOM     35  H18 HN4 d          29.120  67.872   6.155  0.00  0.00     0.080 H 
ATOM     36  H19 HN4 d          29.022  66.086   6.308  0.00  0.00     0.080 H 
ATOM     37  C1  HN4 d          31.888  66.447   7.357  0.00  0.00     0.092 C 
ATOM     38  H20 HN4 d          31.147  66.089   5.353  0.00  0.00     0.089 H 
ATOM     39  H22 HN4 d          32.486  65.549   7.143  0.00  0.00     0.090 H 
ATOM     40  C8  HN4 d          31.218  66.247   9.871  0.00  0.00     0.066 C 
ATOM     41  H24 HN4 d          30.469  65.107   8.250  0.00  0.00     0.093 H 
ATOM     42  C7  HN4 d          29.978  66.091  10.765  0.00  0.00    -0.037 C 
ATOM     43  H25 HN4 d          31.675  67.232  10.049  0.00  0.00     0.086 H 
ATOM     44  C6  HN4 d          28.878  67.079  10.350  0.00  0.00    -0.035 C 
ATOM     45  H27 HN4 d          30.260  66.285  11.811  0.00  0.00     0.036 H 
ATOM     46  H28 HN4 d          29.594  65.065  10.674  0.00  0.00     0.036 H 
ATOM     47  H29 HN4 d          27.987  66.894  10.968  0.00  0.00     0.036 H 
ATOM     48  H30 HN4 d          29.240  68.102  10.527  0.00  0.00     0.036 H 
ATOM     49  H16 HN4 d          27.805  67.777   8.612  0.00  0.00     0.085 H 
BRANCH  34  50
ATOM     50  O2  HN4 d          31.537  68.116   5.595  0.00  0.00    -0.391 OA
ATOM     51  H21 HN4 d          31.218  68.220   4.707  0.00  0.00     0.210 HD
ENDBRANCH  34  50
BRANCH  37  52
ATOM     52  O1  HN4 d          32.778  67.525   7.754  0.00  0.00    -0.391 OA
ATOM     53  H23 HN4 d          32.770  67.608   8.700  0.00  0.00     0.210 HD
ENDBRANCH  37  52
BRANCH  40  54
ATOM     54  O8  HN4 d          32.154  65.224  10.199  0.00  0.00    -0.393 OA
ATOM     55  H26 HN4 d          32.118  65.050  11.132  0.00  0.00     0.210 HD
ENDBRANCH  40  54
ENDBRANCH   1  29
TORSDOF 10
ENDMDL
MODEL 4
REMARK VINA RESULT:      -6.4      1.199      2.814
REMARK  10 active torsions:
REMARK  status: ('A' for Active; 'I' for Inactive)
REMARK    1  A    between atoms: C10_2  and  C11_3 
REMARK    2  A    between atoms: C10_2  and  C9_13 
REMARK    3  A    between atoms: C14_6  and  C17_7 
REMARK    4  A    between atoms: C17_7  and  C18_8 
REMARK    5  A    between atoms: C17_7  and  C19_9 
REMARK    6  A    between atoms: C17_7  and  C20_10 
REMARK    7  A    between atoms: C9_13  and  C5_14 
REMARK    8  A    between atoms: C2_17  and  O2_18 
REMARK    9  A    between atoms: C1_19  and  O1_20 
REMARK   10  A    between atoms: C8_22  and  O8_23 
ROOT
ATOM      1  C9  HN4 d          27.687  65.826   8.564  0.00  0.00     0.022 C 
ATOM      2  H14 HN4 d          27.022  66.046   7.715  0.00  0.00     0.048 H 
ATOM      3  H15 HN4 d          28.382  65.019   8.287  0.00  0.00     0.048 H 
ENDROOT
BRANCH   1   4
ATOM      4  C10 HN4 d          26.833  65.350   9.738  0.00  0.00     0.161 C 
ATOM      5  O10 HN4 d          26.963  64.250  10.272  0.00  0.00    -0.292 OA
BRANCH   4   6
ATOM      6  C11 HN4 d          25.727  66.247  10.209  0.00  0.00     0.010 A 
ATOM      7  C12 HN4 d          25.473  66.418  11.570  0.00  0.00    -0.069 A 
ATOM      8  C13 HN4 d          24.452  67.274  11.997  0.00  0.00    -0.075 A 
ATOM      9  H1  HN4 d          26.069  65.885  12.301  0.00  0.00     0.085 H 
ATOM     10  C14 HN4 d          23.665  67.961  11.063  0.00  0.00    -0.051 A 
ATOM     11  H2  HN4 d          24.269  67.405  13.057  0.00  0.00     0.084 H 
ATOM     12  C15 HN4 d          23.929  67.784   9.704  0.00  0.00    -0.075 A 
ATOM     13  C16 HN4 d          24.945  66.929   9.270  0.00  0.00    -0.069 A 
ATOM     14  H12 HN4 d          23.335  68.318   8.973  0.00  0.00     0.084 H 
ATOM     15  H13 HN4 d          25.128  66.796   8.210  0.00  0.00     0.085 H 
BRANCH  10  16
ATOM     16  C17 HN4 d          22.560  68.882  11.556  0.00  0.00    -0.024 C 
BRANCH  16  17
ATOM     17  C18 HN4 d          22.360  68.663  13.058  0.00  0.00    -0.066 C 
ATOM     18  H3  HN4 d          23.335  68.483  13.535  0.00  0.00     0.028 H 
ATOM     19  H4  HN4 d          21.707  67.792  13.218  0.00  0.00     0.028 H 
ATOM     20  H5  HN4 d          21.895  69.557  13.500  0.00  0.00     0.028 H 
ENDBRANCH  16  17
BRANCH  16  21
ATOM     21  C19 HN4 d          22.935  70.359  11.395  0.00  0.00    -0.066 C 
ATOM     22  H6  HN4 d          23.970  70.437  11.032  0.00  0.00     0.028 H 
ATOM     23  H7  HN4 d          22.849  70.867  12.367  0.00  0.00     0.028 H 
ATOM     24  H8  HN4 d          22.256  70.833  10.671  0.00  0.00     0.028 H 
ENDBRANCH  16  21
BRANCH  16  25
ATOM     25  C20 HN4 d          21.280  68.561  10.784  0.00  0.00    -0.066 C 
ATOM     26  H9  HN4 d          21.274  67.495  10.510  0.00  0.00     0.028 H 
ATOM     27  H10 HN4 d          21.238  69.174   9.872  0.00  0.00     0.028 H 
ATOM     28  H11 HN4 d          20.406  68.782  11.415  0.00  0.00     0.028 H 
ENDBRANCH  16  25
ENDBRANCH  10  16
ENDBRANCH   4   6
ENDBRANCH   1   4
BRANCH   1  29
ATOM     29  C5  HN4 d          28.501  67.080   8.882  0.00  0.00     0.111 C 
ATOM     30  N4  HN4 d          29.735  67.185   8.053  0.00  0.00    -0.055 N 
ATOM     31  C3  HN4 d          29.561  67.099   6.576  0.00  0.00     0.110 C 
ATOM     32  C8A HN4 d          30.783  66.162   8.353  0.00  0.00     0.155 C 
ATOM     33  H17 HN4 d          30.120  68.093   8.260  0.00  0.00     0.281 HD
ATOM     34  C2  HN4 d          31.006  66.915   6.083  0.00  0.00     0.085 C 
ATOM     35  H18 HN4 d          29.118  68.021   6.174  0.00  0.00     0.080 H 
ATOM     36  H19 HN4 d          28.933  66.239   6.299  0.00  0.00     0.080 H 
ATOM     37  C1  HN4 d          31.838  66.436   7.281  0.00  0.00     0.092 C 
ATOM     38  H20 HN4 d          31.031  66.153   5.290  0.00  0.00     0.089 H 
ATOM     39  H22 HN4 d          32.384  65.512   7.036  0.00  0.00     0.090 H 
ATOM     40  C8  HN4 d          31.220  66.224   9.808  0.00  0.00     0.066 C 
ATOM     41  H24 HN4 d          30.375  65.153   8.187  0.00  0.00     0.093 H 
ATOM     42  C7  HN4 d          29.996  66.114  10.730  0.00  0.00    -0.037 C 
ATOM     43  H25 HN4 d          31.731  67.181   9.991  0.00  0.00     0.086 H 
ATOM     44  C6  HN4 d          28.939  67.165  10.360  0.00  0.00    -0.035 C 
ATOM     45  H27 HN4 d          30.313  66.274  11.771  0.00  0.00     0.036 H 
ATOM     46  H28 HN4 d          29.558  65.111  10.631  0.00  0.00     0.036 H 
ATOM     47  H29 HN4 d          28.055  67.013  10.997  0.00  0.00     0.036 H 
ATOM     48  H30 HN4 d          29.357  68.164  10.545  0.00  0.00     0.036 H 
ATOM     49  H16 HN4 d          27.861  67.948   8.662  0.00  0.00     0.085 H 
BRANCH  34  50
ATOM     50  O2  HN4 d          31.530  68.152   5.557  0.00  0.00    -0.391 OA
ATOM     51  H21 HN4 d          32.438  68.030   5.309  0.00  0.00     0.210 HD
ENDBRANCH  34  50
BRANCH  37  52
ATOM     52  O1  HN4 d          32.792  67.459   7.674  0.00  0.00    -0.391 OA
ATOM     53  H23 HN4 d          33.173  67.849   6.896  0.00  0.00     0.210 HD
ENDBRANCH  37  52
BRANCH  40  54
ATOM     54  O8  HN4 d          32.111  65.149  10.094  0.00  0.00    -0.393 OA
ATOM     55  H26 HN4 d          32.767  65.440  10.716  0.00  0.00     0.210 HD
ENDBRANCH  40  54
ENDBRANCH   1  29
TORSDOF 10
ENDMDL
MODEL 5
REMARK VINA RESULT:      -5.7      2.229      3.585
REMARK  10 active torsions:
REMARK  status: ('A' for Active; 'I' for Inactive)
REMARK    1  A    between atoms: C10_2  and  C11_3 
REMARK    2  A    between atoms: C10_2  and  C9_13 
REMARK    3  A    between atoms: C14_6  and  C17_7 
REMARK    4  A    between atoms: C17_7  and  C18_8 
REMARK    5  A    between atoms: C17_7  and  C19_9 
REMARK    6  A    between atoms: C17_7  and  C20_10 
REMARK    7  A    between atoms: C9_13  and  C5_14 
REMARK    8  A    between atoms: C2_17  and  O2_18 
REMARK    9  A    between atoms: C1_19  and  O1_20 
REMARK   10  A    between atoms: C8_22  and  O8_23 
ROOT
ATOM      1  C9  HN4 d          29.093  64.894  10.225  0.00  0.00     0.022 C 
ATOM      2  H14 HN4 d          28.515  64.457   9.397  0.00  0.00     0.048 H 
ATOM      3  H15 HN4 d          30.091  64.431  10.261  0.00  0.00     0.048 H 
ENDROOT
BRANCH   1   4
ATOM      4  C10 HN4 d          28.369  64.589  11.535  0.00  0.00     0.161 C 
ATOM      5  O10 HN4 d          28.827  63.860  12.412  0.00  0.00    -0.292 OA
BRANCH   4   6
ATOM      6  C11 HN4 d          26.991  65.151  11.721  0.00  0.00     0.010 A 
ATOM      7  C12 HN4 d          26.663  65.886  12.860  0.00  0.00    -0.069 A 
ATOM      8  C13 HN4 d          25.381  66.423  13.012  0.00  0.00    -0.075 A 
ATOM      9  H1  HN4 d          27.407  66.042  13.633  0.00  0.00     0.085 H 
ATOM     10  C14 HN4 d          24.405  66.220  12.027  0.00  0.00    -0.051 A 
ATOM     11  H2  HN4 d          25.140  66.999  13.898  0.00  0.00     0.084 H 
ATOM     12  C15 HN4 d          24.744  65.484  10.890  0.00  0.00    -0.075 A 
ATOM     13  C16 HN4 d          26.022  64.943  10.732  0.00  0.00    -0.069 A 
ATOM     14  H12 HN4 d          24.002  65.330  10.115  0.00  0.00     0.084 H 
ATOM     15  H13 HN4 d          26.263  64.365   9.848  0.00  0.00     0.085 H 
BRANCH  10  16
ATOM     16  C17 HN4 d          23.018  66.812  12.220  0.00  0.00    -0.024 C 
BRANCH  16  17
ATOM     17  C18 HN4 d          22.111  65.760  12.863  0.00  0.00    -0.066 C 
ATOM     18  H3  HN4 d          22.631  64.791  12.883  0.00  0.00     0.028 H 
ATOM     19  H4  HN4 d          21.184  65.669  12.278  0.00  0.00     0.028 H 
ATOM     20  H5  HN4 d          21.868  66.066  13.892  0.00  0.00     0.028 H 
ENDBRANCH  16  17
BRANCH  16  21
ATOM     21  C19 HN4 d          23.036  67.999  13.189  0.00  0.00    -0.066 C 
ATOM     22  H6  HN4 d          22.572  67.702  14.141  0.00  0.00     0.028 H 
ATOM     23  H7  HN4 d          22.472  68.836  12.753  0.00  0.00     0.028 H 
ATOM     24  H8  HN4 d          24.075  68.310  13.369  0.00  0.00     0.028 H 
ENDBRANCH  16  21
BRANCH  16  25
ATOM     25  C20 HN4 d          22.476  67.236  10.855  0.00  0.00    -0.066 C 
ATOM     26  H9  HN4 d          23.227  67.853  10.338  0.00  0.00     0.028 H 
ATOM     27  H10 HN4 d          21.554  67.819  10.991  0.00  0.00     0.028 H 
ATOM     28  H11 HN4 d          22.259  66.342  10.252  0.00  0.00     0.028 H 
ENDBRANCH  16  25
ENDBRANCH  10  16
ENDBRANCH   4   6
ENDBRANCH   1   4
BRANCH   1  29
ATOM     29  C5  HN4 d          29.261  66.390   9.964  0.00  0.00     0.111 C 
ATOM     30  N4  HN4 d          29.425  66.703   8.517  0.00  0.00    -0.055 N 
ATOM     31  C3  HN4 d          28.379  66.180   7.595  0.00  0.00     0.110 C 
ATOM     32  C8A HN4 d          30.708  66.229   7.912  0.00  0.00     0.155 C 
ATOM     33  H17 HN4 d          29.407  67.709   8.456  0.00  0.00     0.281 HD
ATOM     34  C2  HN4 d          29.019  66.395   6.212  0.00  0.00     0.085 C 
ATOM     35  H18 HN4 d          27.443  66.749   7.692  0.00  0.00     0.080 H 
ATOM     36  H19 HN4 d          28.181  65.114   7.781  0.00  0.00     0.080 H 
ATOM     37  C1  HN4 d          30.528  66.568   6.432  0.00  0.00     0.092 C 
ATOM     38  H20 HN4 d          28.839  65.512   5.582  0.00  0.00     0.089 H 
ATOM     39  H22 HN4 d          31.100  65.866   5.807  0.00  0.00     0.090 H 
ATOM     40  C8  HN4 d          31.912  66.818   8.631  0.00  0.00     0.066 C 
ATOM     41  H24 HN4 d          30.783  65.136   8.010  0.00  0.00     0.093 H 
ATOM     42  C7  HN4 d          31.818  66.529  10.137  0.00  0.00    -0.037 C 
ATOM     43  H25 HN4 d          31.934  67.906   8.468  0.00  0.00     0.086 H 
ATOM     44  C6  HN4 d          30.471  67.004  10.701  0.00  0.00    -0.035 C 
ATOM     45  H27 HN4 d          32.632  67.055  10.657  0.00  0.00     0.036 H 
ATOM     46  H28 HN4 d          31.916  65.446  10.304  0.00  0.00     0.036 H 
ATOM     47  H29 HN4 d          30.416  66.723  11.763  0.00  0.00     0.036 H 
ATOM     48  H30 HN4 d          30.419  68.099  10.609  0.00  0.00     0.036 H 
ATOM     49  H16 HN4 d          28.349  66.888  10.326  0.00  0.00     0.085 H 
BRANCH  34  50
ATOM     50  O2  HN4 d          28.459  67.554   5.562  0.00  0.00    -0.391 OA
ATOM     51  H21 HN4 d          27.535  67.409   5.399  0.00  0.00     0.210 HD
ENDBRANCH  34  50
BRANCH  37  52
ATOM     52  O1  HN4 d          30.932  67.926   6.109  0.00  0.00    -0.391 OA
ATOM     53  H23 HN4 d          31.648  68.186   6.676  0.00  0.00     0.210 HD
ENDBRANCH  37  52
BRANCH  40  54
ATOM     54  O8  HN4 d          33.111  66.239   8.124  0.00  0.00    -0.393 OA
ATOM     55  H26 HN4 d          33.851  66.550   8.632  0.00  0.00     0.210 HD
ENDBRANCH  40  54
ENDBRANCH   1  29
TORSDOF 10
ENDMDL
