MODEL 1
REMARK VINA RESULT:      -8.0      0.000      0.000
REMARK  8 active torsions:
REMARK  status: ('A' for Active; 'I' for Inactive)
REMARK    1  A    between atoms: N1_2  and  C2_4 
REMARK       I    between atoms: C10_18  and  N1_2 
REMARK    2  A    between atoms: N3_8  and  N2_5 
REMARK       I    between atoms: N2_5  and  C10_18 
REMARK       I    between atoms: C12_20  and  N3_8 
REMARK    3  A    between atoms: C16_24  and  N4_11 
REMARK    4  A    between atoms: C13_21  and  C12_20 
REMARK    5  A    between atoms: C18_26  and  C19_27 
REMARK    6  A    between atoms: C19_27  and  C20_28 
REMARK    7  A    between atoms: C19_27  and  C21_29 
REMARK    8  A    between atoms: C19_27  and  C22_30 
ROOT
ATOM      1  O2  AGY d          29.992  -5.644  19.141  0.00  0.00    -0.266 OA
ATOM      2  N3  AGY d          29.230  -3.616  18.541  0.00  0.00    -0.262 N 
ATOM      3  C12 AGY d          29.339  -4.626  19.446  0.00  0.00     0.270 C 
ATOM      4  H3  AGY d          28.716  -2.781  18.733  0.00  0.00     0.190 HD
ENDROOT
BRANCH   3   5
ATOM      5  C13 AGY d          28.694  -4.523  20.753  0.00  0.00     0.036 A 
ATOM      6  C14 AGY d          29.177  -5.298  21.829  0.00  0.00    -0.035 A 
ATOM      7  C16 AGY d          28.587  -5.231  23.132  0.00  0.00     0.111 A 
ATOM      8  H11 AGY d          30.018  -5.962  21.664  0.00  0.00     0.088 H 
ATOM      9  C18 AGY d          27.437  -4.345  23.396  0.00  0.00    -0.018 A 
ATOM     10  C17 AGY d          26.953  -3.547  22.254  0.00  0.00    -0.073 A 
ATOM     11  C15 AGY d          27.583  -3.648  20.959  0.00  0.00    -0.067 A 
ATOM     12  H13 AGY d          26.112  -2.876  22.389  0.00  0.00     0.084 H 
ATOM     13  H12 AGY d          27.209  -3.053  20.134  0.00  0.00     0.085 H 
BRANCH   7  14
ATOM     14  N4  AGY d          29.130  -5.957  24.093  0.00  0.00    -0.115 N 
ATOM     15  O3  AGY d          28.620  -7.122  24.378  0.00  0.00    -0.532 OA
ATOM     16  O4  AGY d          30.229  -5.479  24.796  0.00  0.00    -0.532 OA
ENDBRANCH   7  14
BRANCH   9  17
ATOM     17  C19 AGY d          26.725  -4.195  24.763  0.00  0.00    -0.022 C 
BRANCH  17  18
ATOM     18  C20 AGY d          25.915  -5.443  25.190  0.00  0.00    -0.066 C 
ATOM     19  H14 AGY d          25.700  -6.061  24.305  0.00  0.00     0.028 H 
ATOM     20  H15 AGY d          24.969  -5.126  25.653  0.00  0.00     0.028 H 
ATOM     21  H16 AGY d          26.500  -6.029  25.914  0.00  0.00     0.028 H 
ENDBRANCH  17  18
BRANCH  17  22
ATOM     22  C21 AGY d          27.556  -4.029  26.091  0.00  0.00    -0.066 C 
ATOM     23  H17 AGY d          27.763  -2.963  26.263  0.00  0.00     0.028 H 
ATOM     24  H18 AGY d          28.505  -4.577  26.000  0.00  0.00     0.028 H 
ATOM     25  H19 AGY d          26.980  -4.431  26.937  0.00  0.00     0.028 H 
ENDBRANCH  17  22
BRANCH  17  26
ATOM     26  C22 AGY d          25.862  -2.922  24.674  0.00  0.00    -0.066 C 
ATOM     27  H20 AGY d          25.340  -2.899  23.706  0.00  0.00     0.028 H 
ATOM     28  H21 AGY d          26.507  -2.035  24.764  0.00  0.00     0.028 H 
ATOM     29  H22 AGY d          25.123  -2.922  25.489  0.00  0.00     0.028 H 
ENDBRANCH  17  26
ENDBRANCH   9  17
ENDBRANCH   3   5
BRANCH   2  30
ATOM     30  N2  AGY d          29.903  -3.834  17.292  0.00  0.00    -0.248 N 
ATOM     31  C10 AGY d          31.036  -3.173  16.926  0.00  0.00     0.339 C 
ATOM     32  N1  AGY d          31.606  -2.247  17.752  0.00  0.00    -0.307 N 
ATOM     33  O1  AGY d          31.524  -3.445  15.821  0.00  0.00    -0.245 OA
ATOM     34  H1  AGY d          31.132  -2.111  18.622  0.00  0.00     0.170 HD
ATOM     35  H2  AGY d          29.521  -4.505  16.658  0.00  0.00     0.192 HD
BRANCH  32  36
ATOM     36  C2  AGY d          32.744  -1.462  17.576  0.00  0.00     0.047 A 
ATOM     37  C1  AGY d          34.107  -1.973  17.587  0.00  0.00     0.001 A 
ATOM     38  C3  AGY d          35.258  -1.042  17.387  0.00  0.00    -0.024 A 
ATOM     39  C4  AGY d          34.374  -3.380  17.789  0.00  0.00    -0.070 A 
ATOM     40  C6  AGY d          35.035   0.369  17.183  0.00  0.00    -0.072 A 
ATOM     41  C7  AGY d          36.593  -1.548  17.398  0.00  0.00    -0.072 A 
ATOM     42  C9  AGY d          33.668   0.878  17.174  0.00  0.00    -0.080 A 
ATOM     43  H6  AGY d          35.873   1.042  17.039  0.00  0.00     0.084 H 
ATOM     44  C5  AGY d          32.546  -0.030  17.368  0.00  0.00    -0.056 A 
ATOM     45  H9  AGY d          33.487   1.935  17.021  0.00  0.00     0.083 H 
ATOM     46  H5  AGY d          31.537   0.367  17.358  0.00  0.00     0.086 H 
ATOM     47  C11 AGY d          36.838  -2.963  17.603  0.00  0.00    -0.082 A 
ATOM     48  H7  AGY d          37.427  -0.872  17.253  0.00  0.00     0.084 H 
ATOM     49  C8  AGY d          35.731  -3.873  17.797  0.00  0.00    -0.082 A 
ATOM     50  H10 AGY d          37.854  -3.340  17.611  0.00  0.00     0.083 H 
ATOM     51  H8  AGY d          35.921  -4.930  17.950  0.00  0.00     0.083 H 
ATOM     52  H4  AGY d          33.550  -4.068  17.935  0.00  0.00     0.084 H 
ENDBRANCH  32  36
ENDBRANCH   2  30
TORSDOF 8
ENDMDL
MODEL 2
REMARK VINA RESULT:      -7.5      1.635      2.073
REMARK  8 active torsions:
REMARK  status: ('A' for Active; 'I' for Inactive)
REMARK    1  A    between atoms: N1_2  and  C2_4 
REMARK       I    between atoms: C10_18  and  N1_2 
REMARK    2  A    between atoms: N3_8  and  N2_5 
REMARK       I    between atoms: N2_5  and  C10_18 
REMARK       I    between atoms: C12_20  and  N3_8 
REMARK    3  A    between atoms: C16_24  and  N4_11 
REMARK    4  A    between atoms: C13_21  and  C12_20 
REMARK    5  A    between atoms: C18_26  and  C19_27 
REMARK    6  A    between atoms: C19_27  and  C20_28 
REMARK    7  A    between atoms: C19_27  and  C21_29 
REMARK    8  A    between atoms: C19_27  and  C22_30 
ROOT
ATOM      1  O2  AGY d          29.931  -5.783  19.086  0.00  0.00    -0.266 OA
ATOM      2  N3  AGY d          29.276  -3.647  18.839  0.00  0.00    -0.262 N 
ATOM      3  C12 AGY d          29.411  -4.770  19.595  0.00  0.00     0.270 C 
ATOM      4  H3  AGY d          28.864  -2.809  19.197  0.00  0.00     0.190 HD
ENDROOT
BRANCH   3   5
ATOM      5  C13 AGY d          28.947  -4.791  20.981  0.00  0.00     0.036 A 
ATOM      6  C14 AGY d          27.718  -4.183  21.310  0.00  0.00    -0.035 A 
ATOM      7  C16 AGY d          27.212  -4.180  22.650  0.00  0.00     0.111 A 
ATOM      8  H11 AGY d          27.140  -3.704  20.527  0.00  0.00     0.088 H 
ATOM      9  C18 AGY d          27.971  -4.814  23.745  0.00  0.00    -0.018 A 
ATOM     10  C17 AGY d          29.251  -5.442  23.373  0.00  0.00    -0.073 A 
ATOM     11  C15 AGY d          29.718  -5.421  22.006  0.00  0.00    -0.067 A 
ATOM     12  H13 AGY d          29.851  -5.926  24.135  0.00  0.00     0.084 H 
ATOM     13  H12 AGY d          30.663  -5.888  21.756  0.00  0.00     0.085 H 
BRANCH   7  14
ATOM     14  N4  AGY d          26.031  -3.626  22.862  0.00  0.00    -0.115 N 
ATOM     15  O3  AGY d          25.939  -2.328  22.935  0.00  0.00    -0.532 OA
ATOM     16  O4  AGY d          24.901  -4.421  23.014  0.00  0.00    -0.532 OA
ENDBRANCH   7  14
BRANCH   9  17
ATOM     17  C19 AGY d          27.518  -4.869  25.225  0.00  0.00    -0.022 C 
BRANCH  17  18
ATOM     18  C20 AGY d          28.665  -5.159  26.223  0.00  0.00    -0.066 C 
ATOM     19  H14 AGY d          29.605  -5.303  25.669  0.00  0.00     0.028 H 
ATOM     20  H15 AGY d          28.433  -6.071  26.793  0.00  0.00     0.028 H 
ATOM     21  H16 AGY d          28.773  -4.311  26.915  0.00  0.00     0.028 H 
ENDBRANCH  17  18
BRANCH  17  22
ATOM     22  C21 AGY d          26.946  -3.588  25.942  0.00  0.00    -0.066 C 
ATOM     23  H17 AGY d          26.634  -2.853  25.186  0.00  0.00     0.028 H 
ATOM     24  H18 AGY d          27.724  -3.148  26.582  0.00  0.00     0.028 H 
ATOM     25  H19 AGY d          26.079  -3.869  26.558  0.00  0.00     0.028 H 
ENDBRANCH  17  22
BRANCH  17  26
ATOM     26  C22 AGY d          26.381  -5.906  25.301  0.00  0.00    -0.066 C 
ATOM     27  H20 AGY d          25.421  -5.414  25.084  0.00  0.00     0.028 H 
ATOM     28  H21 AGY d          26.349  -6.342  26.310  0.00  0.00     0.028 H 
ATOM     29  H22 AGY d          26.560  -6.702  24.562  0.00  0.00     0.028 H 
ENDBRANCH  17  26
ENDBRANCH   9  17
ENDBRANCH   3   5
BRANCH   2  30
ATOM     30  N2  AGY d          29.766  -3.747  17.494  0.00  0.00    -0.248 N 
ATOM     31  C10 AGY d          30.853  -3.066  17.039  0.00  0.00     0.339 C 
ATOM     32  N1  AGY d          31.555  -2.233  17.862  0.00  0.00    -0.307 N 
ATOM     33  O1  AGY d          31.178  -3.234  15.856  0.00  0.00    -0.245 OA
ATOM     34  H1  AGY d          31.208  -2.178  18.799  0.00  0.00     0.170 HD
ATOM     35  H2  AGY d          29.284  -4.349  16.858  0.00  0.00     0.192 HD
BRANCH  32  36
ATOM     36  C2  AGY d          32.676  -1.448  17.606  0.00  0.00     0.047 A 
ATOM     37  C1  AGY d          34.045  -1.944  17.593  0.00  0.00     0.001 A 
ATOM     38  C3  AGY d          35.178  -1.013  17.305  0.00  0.00    -0.024 A 
ATOM     39  C4  AGY d          34.335  -3.336  17.857  0.00  0.00    -0.070 A 
ATOM     40  C6  AGY d          34.932   0.383  17.039  0.00  0.00    -0.072 A 
ATOM     41  C7  AGY d          36.517  -1.506  17.294  0.00  0.00    -0.072 A 
ATOM     42  C9  AGY d          33.559   0.878  17.053  0.00  0.00    -0.080 A 
ATOM     43  H6  AGY d          35.756   1.056  16.830  0.00  0.00     0.084 H 
ATOM     44  C5  AGY d          32.455  -0.030  17.333  0.00  0.00    -0.056 A 
ATOM     45  H9  AGY d          33.361   1.924  16.853  0.00  0.00     0.083 H 
ATOM     46  H5  AGY d          31.442   0.357  17.339  0.00  0.00     0.086 H 
ATOM     47  C11 AGY d          36.785  -2.906  17.561  0.00  0.00    -0.082 A 
ATOM     48  H7  AGY d          37.338  -0.830  17.084  0.00  0.00     0.084 H 
ATOM     49  C8  AGY d          35.697  -3.816  17.841  0.00  0.00    -0.082 A 
ATOM     50  H10 AGY d          37.806  -3.272  17.551  0.00  0.00     0.083 H 
ATOM     51  H8  AGY d          35.904  -4.861  18.040  0.00  0.00     0.083 H 
ATOM     52  H4  AGY d          33.524  -4.024  18.067  0.00  0.00     0.084 H 
ENDBRANCH  32  36
ENDBRANCH   2  30
TORSDOF 8
ENDMDL
MODEL 3
REMARK VINA RESULT:      -6.9      1.022      2.351
REMARK  8 active torsions:
REMARK  status: ('A' for Active; 'I' for Inactive)
REMARK    1  A    between atoms: N1_2  and  C2_4 
REMARK       I    between atoms: C10_18  and  N1_2 
REMARK    2  A    between atoms: N3_8  and  N2_5 
REMARK       I    between atoms: N2_5  and  C10_18 
REMARK       I    between atoms: C12_20  and  N3_8 
REMARK    3  A    between atoms: C16_24  and  N4_11 
REMARK    4  A    between atoms: C13_21  and  C12_20 
REMARK    5  A    between atoms: C18_26  and  C19_27 
REMARK    6  A    between atoms: C19_27  and  C20_28 
REMARK    7  A    between atoms: C19_27  and  C21_29 
REMARK    8  A    between atoms: C19_27  and  C22_30 
ROOT
ATOM      1  O2  AGY d          29.016  -4.108  18.230  0.00  0.00    -0.266 OA
ATOM      2  N3  AGY d          30.506  -5.591  19.025  0.00  0.00    -0.262 N 
ATOM      3  C12 AGY d          29.456  -4.745  19.207  0.00  0.00     0.270 C 
ATOM      4  H3  AGY d          30.899  -6.123  19.774  0.00  0.00     0.190 HD
ENDROOT
BRANCH   3   5
ATOM      5  C13 AGY d          28.857  -4.581  20.530  0.00  0.00     0.036 A 
ATOM      6  C14 AGY d          29.336  -5.352  21.609  0.00  0.00    -0.035 A 
ATOM      7  C16 AGY d          28.790  -5.228  22.928  0.00  0.00     0.111 A 
ATOM      8  H11 AGY d          30.140  -6.060  21.436  0.00  0.00     0.088 H 
ATOM      9  C18 AGY d          27.691  -4.283  23.203  0.00  0.00    -0.018 A 
ATOM     10  C17 AGY d          27.210  -3.490  22.058  0.00  0.00    -0.073 A 
ATOM     11  C15 AGY d          27.795  -3.650  20.747  0.00  0.00    -0.067 A 
ATOM     12  H13 AGY d          26.406  -2.777  22.201  0.00  0.00     0.084 H 
ATOM     13  H12 AGY d          27.424  -3.058  19.919  0.00  0.00     0.085 H 
BRANCH   7  14
ATOM     14  N4  AGY d          29.329  -5.957  23.889  0.00  0.00    -0.115 N 
ATOM     15  O3  AGY d          30.420  -5.542  24.469  0.00  0.00    -0.532 OA
ATOM     16  O4  AGY d          28.741  -7.157  24.270  0.00  0.00    -0.532 OA
ENDBRANCH   7  14
BRANCH   9  17
ATOM     17  C19 AGY d          27.030  -4.068  24.587  0.00  0.00    -0.022 C 
BRANCH  17  18
ATOM     18  C20 AGY d          26.144  -5.250  25.050  0.00  0.00    -0.066 C 
ATOM     19  H14 AGY d          25.105  -4.907  25.164  0.00  0.00     0.028 H 
ATOM     20  H15 AGY d          26.512  -5.628  26.015  0.00  0.00     0.028 H 
ATOM     21  H16 AGY d          26.185  -6.054  24.301  0.00  0.00     0.028 H 
ENDBRANCH  17  18
BRANCH  17  22
ATOM     22  C21 AGY d          27.907  -3.949  25.891  0.00  0.00    -0.066 C 
ATOM     23  H17 AGY d          27.658  -3.016  26.416  0.00  0.00     0.028 H 
ATOM     24  H18 AGY d          28.972  -3.943  25.616  0.00  0.00     0.028 H 
ATOM     25  H19 AGY d          27.703  -4.806  26.549  0.00  0.00     0.028 H 
ENDBRANCH  17  22
BRANCH  17  26
ATOM     26  C22 AGY d          26.259  -2.737  24.506  0.00  0.00    -0.066 C 
ATOM     27  H20 AGY d          25.295  -2.901  24.000  0.00  0.00     0.028 H 
ATOM     28  H21 AGY d          26.851  -2.004  23.938  0.00  0.00     0.028 H 
ATOM     29  H22 AGY d          26.079  -2.354  25.522  0.00  0.00     0.028 H 
ENDBRANCH  17  26
ENDBRANCH   9  17
ENDBRANCH   3   5
BRANCH   2  30
ATOM     30  N2  AGY d          31.011  -5.666  17.683  0.00  0.00    -0.248 N 
ATOM     31  C10 AGY d          32.117  -4.994  17.260  0.00  0.00     0.339 C 
ATOM     32  N1  AGY d          32.824  -4.197  18.114  0.00  0.00    -0.307 N 
ATOM     33  O1  AGY d          32.453  -5.137  16.077  0.00  0.00    -0.245 OA
ATOM     34  H1  AGY d          32.467  -4.160  19.047  0.00  0.00     0.170 HD
ATOM     35  H2  AGY d          30.525  -6.241  17.026  0.00  0.00     0.192 HD
BRANCH  32  36
ATOM     36  C2  AGY d          33.963  -3.427  17.892  0.00  0.00     0.047 A 
ATOM     37  C1  AGY d          33.954  -1.990  17.662  0.00  0.00     0.001 A 
ATOM     38  C3  AGY d          35.238  -1.259  17.435  0.00  0.00    -0.024 A 
ATOM     39  C4  AGY d          32.716  -1.245  17.648  0.00  0.00    -0.070 A 
ATOM     40  C6  AGY d          36.496  -1.964  17.440  0.00  0.00    -0.072 A 
ATOM     41  C7  AGY d          35.223   0.151  17.210  0.00  0.00    -0.072 A 
ATOM     42  C9  AGY d          36.502  -3.405  17.670  0.00  0.00    -0.080 A 
ATOM     43  H6  AGY d          37.426  -1.431  17.275  0.00  0.00     0.084 H 
ATOM     44  C5  AGY d          35.251  -4.118  17.891  0.00  0.00    -0.056 A 
ATOM     45  H9  AGY d          37.440  -3.947  17.677  0.00  0.00     0.083 H 
ATOM     46  H5  AGY d          35.276  -5.188  18.061  0.00  0.00     0.086 H 
ATOM     47  C11 AGY d          33.968   0.878  17.200  0.00  0.00    -0.082 A 
ATOM     48  H7  AGY d          36.155   0.680  17.046  0.00  0.00     0.084 H 
ATOM     49  C8  AGY d          32.721   0.181  17.418  0.00  0.00    -0.082 A 
ATOM     50  H10 AGY d          33.966   1.948  17.027  0.00  0.00     0.083 H 
ATOM     51  H8  AGY d          31.786   0.730  17.409  0.00  0.00     0.083 H 
ATOM     52  H4  AGY d          31.776  -1.761  17.810  0.00  0.00     0.084 H 
ENDBRANCH  32  36
ENDBRANCH   2  30
TORSDOF 8
ENDMDL
MODEL 4
REMARK VINA RESULT:      -6.8      1.915      9.378
REMARK  8 active torsions:
REMARK  status: ('A' for Active; 'I' for Inactive)
REMARK    1  A    between atoms: N1_2  and  C2_4 
REMARK       I    between atoms: C10_18  and  N1_2 
REMARK    2  A    between atoms: N3_8  and  N2_5 
REMARK       I    between atoms: N2_5  and  C10_18 
REMARK       I    between atoms: C12_20  and  N3_8 
REMARK    3  A    between atoms: C16_24  and  N4_11 
REMARK    4  A    between atoms: C13_21  and  C12_20 
REMARK    5  A    between atoms: C18_26  and  C19_27 
REMARK    6  A    between atoms: C19_27  and  C20_28 
REMARK    7  A    between atoms: C19_27  and  C21_29 
REMARK    8  A    between atoms: C19_27  and  C22_30 
ROOT
ATOM      1  O2  AGY d          29.977  -4.448  17.592  0.00  0.00    -0.266 OA
ATOM      2  N3  AGY d          31.222  -5.404  19.201  0.00  0.00    -0.262 N 
ATOM      3  C12 AGY d          31.072  -4.510  18.186  0.00  0.00     0.270 C 
ATOM      4  H3  AGY d          32.079  -5.497  19.708  0.00  0.00     0.190 HD
ENDROOT
BRANCH   3   5
ATOM      5  C13 AGY d          32.179  -3.641  17.793  0.00  0.00     0.036 A 
ATOM      6  C14 AGY d          31.939  -2.270  17.566  0.00  0.00    -0.035 A 
ATOM      7  C16 AGY d          32.988  -1.373  17.186  0.00  0.00     0.111 A 
ATOM      8  H11 AGY d          30.932  -1.885  17.682  0.00  0.00     0.088 H 
ATOM      9  C18 AGY d          34.370  -1.858  17.010  0.00  0.00    -0.018 A 
ATOM     10  C17 AGY d          34.593  -3.294  17.254  0.00  0.00    -0.073 A 
ATOM     11  C15 AGY d          33.502  -4.159  17.639  0.00  0.00    -0.067 A 
ATOM     12  H13 AGY d          35.590  -3.707  17.144  0.00  0.00     0.084 H 
ATOM     13  H12 AGY d          33.689  -5.212  17.812  0.00  0.00     0.085 H 
BRANCH   7  14
ATOM     14  N4  AGY d          32.683  -0.095  17.036  0.00  0.00    -0.115 N 
ATOM     15  O3  AGY d          32.652   0.680  18.083  0.00  0.00    -0.532 OA
ATOM     16  O4  AGY d          32.389   0.411  15.775  0.00  0.00    -0.532 OA
ENDBRANCH   7  14
BRANCH   9  17
ATOM     17  C19 AGY d          35.577  -0.977  16.603  0.00  0.00    -0.022 C 
BRANCH  17  18
ATOM     18  C20 AGY d          35.477  -0.396  15.172  0.00  0.00    -0.066 C 
ATOM     19  H14 AGY d          35.860  -1.132  14.450  0.00  0.00     0.028 H 
ATOM     20  H15 AGY d          36.073   0.526  15.108  0.00  0.00     0.028 H 
ATOM     21  H16 AGY d          34.425  -0.168  14.942  0.00  0.00     0.028 H 
ENDBRANCH  17  18
BRANCH  17  22
ATOM     22  C21 AGY d          35.876   0.377  17.351  0.00  0.00    -0.066 C 
ATOM     23  H17 AGY d          35.159   1.144  17.023  0.00  0.00     0.028 H 
ATOM     24  H18 AGY d          36.899   0.707  17.118  0.00  0.00     0.028 H 
ATOM     25  H19 AGY d          35.778   0.226  18.436  0.00  0.00     0.028 H 
ENDBRANCH  17  22
BRANCH  17  26
ATOM     26  C22 AGY d          36.840  -1.833  16.815  0.00  0.00    -0.066 C 
ATOM     27  H20 AGY d          37.505  -1.333  17.536  0.00  0.00     0.028 H 
ATOM     28  H21 AGY d          37.366  -1.955  15.856  0.00  0.00     0.028 H 
ATOM     29  H22 AGY d          36.553  -2.821  17.205  0.00  0.00     0.028 H 
ENDBRANCH  17  26
ENDBRANCH   9  17
ENDBRANCH   3   5
BRANCH   2  30
ATOM     30  N2  AGY d          30.066  -6.204  19.494  0.00  0.00    -0.248 N 
ATOM     31  C10 AGY d          29.356  -6.099  20.650  0.00  0.00     0.339 C 
ATOM     32  N1  AGY d          29.713  -5.202  21.615  0.00  0.00    -0.307 N 
ATOM     33  O1  AGY d          28.378  -6.846  20.788  0.00  0.00    -0.245 OA
ATOM     34  H1  AGY d          30.515  -4.646  21.396  0.00  0.00     0.170 HD
ATOM     35  H2  AGY d          29.768  -6.872  18.813  0.00  0.00     0.192 HD
BRANCH  32  36
ATOM     36  C2  AGY d          29.139  -4.938  22.856  0.00  0.00     0.047 A 
ATOM     37  C1  AGY d          27.901  -4.196  23.051  0.00  0.00     0.001 A 
ATOM     38  C3  AGY d          27.372  -3.969  24.430  0.00  0.00    -0.024 A 
ATOM     39  C4  AGY d          27.165  -3.667  21.925  0.00  0.00    -0.070 A 
ATOM     40  C6  AGY d          28.077  -4.479  25.581  0.00  0.00    -0.072 A 
ATOM     41  C7  AGY d          26.158  -3.241  24.614  0.00  0.00    -0.072 A 
ATOM     42  C9  AGY d          29.317  -5.221  25.383  0.00  0.00    -0.080 A 
ATOM     43  H6  AGY d          27.690  -4.312  26.580  0.00  0.00     0.084 H 
ATOM     44  C5  AGY d          29.833  -5.442  24.039  0.00  0.00    -0.056 A 
ATOM     45  H9  AGY d          29.856  -5.610  26.239  0.00  0.00     0.083 H 
ATOM     46  H5  AGY d          30.756  -5.996  23.912  0.00  0.00     0.086 H 
ATOM     47  C11 AGY d          25.435  -2.719  23.470  0.00  0.00    -0.082 A 
ATOM     48  H7  AGY d          25.774  -3.078  25.615  0.00  0.00     0.084 H 
ATOM     49  C8  AGY d          25.938  -2.933  22.132  0.00  0.00    -0.082 A 
ATOM     50  H10 AGY d          24.514  -2.167  23.619  0.00  0.00     0.083 H 
ATOM     51  H8  AGY d          25.394  -2.540  21.280  0.00  0.00     0.083 H 
ATOM     52  H4  AGY d          27.536  -3.823  20.918  0.00  0.00     0.084 H 
ENDBRANCH  32  36
ENDBRANCH   2  30
TORSDOF 8
ENDMDL
MODEL 5
REMARK VINA RESULT:      -6.3      1.829      2.898
REMARK  8 active torsions:
REMARK  status: ('A' for Active; 'I' for Inactive)
REMARK    1  A    between atoms: N1_2  and  C2_4 
REMARK       I    between atoms: C10_18  and  N1_2 
REMARK    2  A    between atoms: N3_8  and  N2_5 
REMARK       I    between atoms: N2_5  and  C10_18 
REMARK       I    between atoms: C12_20  and  N3_8 
REMARK    3  A    between atoms: C16_24  and  N4_11 
REMARK    4  A    between atoms: C13_21  and  C12_20 
REMARK    5  A    between atoms: C18_26  and  C19_27 
REMARK    6  A    between atoms: C19_27  and  C20_28 
REMARK    7  A    between atoms: C19_27  and  C21_29 
REMARK    8  A    between atoms: C19_27  and  C22_30 
ROOT
ATOM      1  O2  AGY d          28.970  -3.972  18.786  0.00  0.00    -0.266 OA
ATOM      2  N3  AGY d          30.477  -5.609  19.105  0.00  0.00    -0.262 N 
ATOM      3  C12 AGY d          29.513  -4.771  19.574  0.00  0.00     0.270 C 
ATOM      4  H3  AGY d          30.946  -6.266  19.695  0.00  0.00     0.190 HD
ENDROOT
BRANCH   3   5
ATOM      5  C13 AGY d          29.126  -4.801  20.983  0.00  0.00     0.036 A 
ATOM      6  C14 AGY d          27.854  -4.325  21.363  0.00  0.00    -0.035 A 
ATOM      7  C16 AGY d          27.420  -4.337  22.729  0.00  0.00     0.111 A 
ATOM      8  H11 AGY d          27.186  -3.937  20.602  0.00  0.00     0.088 H 
ATOM      9  C18 AGY d          28.301  -4.849  23.796  0.00  0.00    -0.018 A 
ATOM     10  C17 AGY d          29.624  -5.340  23.370  0.00  0.00    -0.073 A 
ATOM     11  C15 AGY d          30.014  -5.309  21.980  0.00  0.00    -0.067 A 
ATOM     12  H13 AGY d          30.313  -5.731  24.111  0.00  0.00     0.084 H 
ATOM     13  H12 AGY d          30.993  -5.674  21.690  0.00  0.00     0.085 H 
BRANCH   7  14
ATOM     14  N4  AGY d          26.196  -3.913  22.990  0.00  0.00    -0.115 N 
ATOM     15  O3  AGY d          25.216  -4.772  23.021  0.00  0.00    -0.532 OA
ATOM     16  O4  AGY d          25.958  -2.564  23.222  0.00  0.00    -0.532 OA
ENDBRANCH   7  14
BRANCH   9  17
ATOM     17  C19 AGY d          27.933  -4.909  25.299  0.00  0.00    -0.022 C 
BRANCH  17  18
ATOM     18  C20 AGY d          26.682  -5.767  25.606  0.00  0.00    -0.066 C 
ATOM     19  H14 AGY d          26.996  -6.773  25.922  0.00  0.00     0.028 H 
ATOM     20  H15 AGY d          26.060  -5.844  24.703  0.00  0.00     0.028 H 
ATOM     21  H16 AGY d          26.102  -5.294  26.412  0.00  0.00     0.028 H 
ENDBRANCH  17  18
BRANCH  17  22
ATOM     22  C21 AGY d          28.903  -5.586  26.340  0.00  0.00    -0.066 C 
ATOM     23  H17 AGY d          29.233  -6.561  25.954  0.00  0.00     0.028 H 
ATOM     24  H18 AGY d          28.375  -5.728  27.294  0.00  0.00     0.028 H 
ATOM     25  H19 AGY d          29.779  -4.939  26.499  0.00  0.00     0.028 H 
ENDBRANCH  17  22
BRANCH  17  26
ATOM     26  C22 AGY d          27.793  -3.451  25.779  0.00  0.00    -0.066 C 
ATOM     27  H20 AGY d          27.285  -2.858  25.003  0.00  0.00     0.028 H 
ATOM     28  H21 AGY d          28.792  -3.030  25.968  0.00  0.00     0.028 H 
ATOM     29  H22 AGY d          27.202  -3.426  26.706  0.00  0.00     0.028 H 
ENDBRANCH  17  26
ENDBRANCH   9  17
ENDBRANCH   3   5
BRANCH   2  30
ATOM     30  N2  AGY d          30.774  -5.484  17.706  0.00  0.00    -0.248 N 
ATOM     31  C10 AGY d          31.846  -4.798  17.226  0.00  0.00     0.339 C 
ATOM     32  N1  AGY d          32.721  -4.179  18.072  0.00  0.00    -0.307 N 
ATOM     33  O1  AGY d          31.995  -4.759  15.997  0.00  0.00    -0.245 OA
ATOM     34  H1  AGY d          32.507  -4.280  19.044  0.00  0.00     0.170 HD
ATOM     35  H2  AGY d          30.161  -5.925  17.051  0.00  0.00     0.192 HD
BRANCH  32  36
ATOM     36  C2  AGY d          33.862  -3.430  17.799  0.00  0.00     0.047 A 
ATOM     37  C1  AGY d          33.869  -1.991  17.574  0.00  0.00     0.001 A 
ATOM     38  C3  AGY d          35.154  -1.283  17.288  0.00  0.00    -0.024 A 
ATOM     39  C4  AGY d          32.645  -1.224  17.622  0.00  0.00    -0.070 A 
ATOM     40  C6  AGY d          36.398  -2.012  17.230  0.00  0.00    -0.072 A 
ATOM     41  C7  AGY d          35.155   0.127  17.069  0.00  0.00    -0.072 A 
ATOM     42  C9  AGY d          36.387  -3.453  17.455  0.00  0.00    -0.080 A 
ATOM     43  H6  AGY d          37.328  -1.495  17.022  0.00  0.00     0.084 H 
ATOM     44  C5  AGY d          35.135  -4.144  17.734  0.00  0.00    -0.056 A 
ATOM     45  H9  AGY d          37.315  -4.013  17.414  0.00  0.00     0.083 H 
ATOM     46  H5  AGY d          35.148  -5.215  17.898  0.00  0.00     0.086 H 
ATOM     47  C11 AGY d          33.915   0.878  17.121  0.00  0.00    -0.082 A 
ATOM     48  H7  AGY d          36.087   0.640  16.862  0.00  0.00     0.084 H 
ATOM     49  C8  AGY d          32.666   0.203  17.397  0.00  0.00    -0.082 A 
ATOM     50  H10 AGY d          33.924   1.949  16.953  0.00  0.00     0.083 H 
ATOM     51  H8  AGY d          31.742   0.769  17.436  0.00  0.00     0.083 H 
ATOM     52  H4  AGY d          31.705  -1.723  17.828  0.00  0.00     0.084 H 
ENDBRANCH  32  36
ENDBRANCH   2  30
TORSDOF 8
ENDMDL
MODEL 6
REMARK VINA RESULT:      -6.2      2.281      9.295
REMARK  8 active torsions:
REMARK  status: ('A' for Active; 'I' for Inactive)
REMARK    1  A    between atoms: N1_2  and  C2_4 
REMARK       I    between atoms: C10_18  and  N1_2 
REMARK    2  A    between atoms: N3_8  and  N2_5 
REMARK       I    between atoms: N2_5  and  C10_18 
REMARK       I    between atoms: C12_20  and  N3_8 
REMARK    3  A    between atoms: C16_24  and  N4_11 
REMARK    4  A    between atoms: C13_21  and  C12_20 
REMARK    5  A    between atoms: C18_26  and  C19_27 
REMARK    6  A    between atoms: C19_27  and  C20_28 
REMARK    7  A    between atoms: C19_27  and  C21_29 
REMARK    8  A    between atoms: C19_27  and  C22_30 
ROOT
ATOM      1  O2  AGY d          32.163  -6.293  18.882  0.00  0.00    -0.266 OA
ATOM      2  N3  AGY d          30.274  -5.114  18.571  0.00  0.00    -0.262 N 
ATOM      3  C12 AGY d          31.624  -5.249  18.463  0.00  0.00     0.270 C 
ATOM      4  H3  AGY d          29.792  -4.298  18.254  0.00  0.00     0.190 HD
ENDROOT
BRANCH   3   5
ATOM      5  C13 AGY d          32.430  -4.183  17.872  0.00  0.00     0.036 A 
ATOM      6  C14 AGY d          33.836  -4.293  17.877  0.00  0.00    -0.035 A 
ATOM      7  C16 AGY d          34.675  -3.282  17.307  0.00  0.00     0.111 A 
ATOM      8  H11 AGY d          34.296  -5.167  18.326  0.00  0.00     0.088 H 
ATOM      9  C18 AGY d          34.090  -2.074  16.694  0.00  0.00    -0.018 A 
ATOM     10  C17 AGY d          32.619  -1.986  16.702  0.00  0.00    -0.073 A 
ATOM     11  C15 AGY d          31.817  -3.033  17.288  0.00  0.00    -0.067 A 
ATOM     12  H13 AGY d          32.133  -1.121  16.262  0.00  0.00     0.084 H 
ATOM     13  H12 AGY d          30.736  -2.946  17.284  0.00  0.00     0.085 H 
BRANCH   7  14
ATOM     14  N4  AGY d          35.981  -3.487  17.315  0.00  0.00    -0.115 N 
ATOM     15  O3  AGY d          36.527  -4.158  16.341  0.00  0.00    -0.532 OA
ATOM     16  O4  AGY d          36.759  -2.997  18.357  0.00  0.00    -0.532 OA
ENDBRANCH   7  14
BRANCH   9  17
ATOM     17  C19 AGY d          34.901  -0.923  16.049  0.00  0.00    -0.022 C 
BRANCH  17  18
ATOM     18  C20 AGY d          35.653  -0.035  17.070  0.00  0.00    -0.066 C 
ATOM     19  H14 AGY d          35.397   1.020  16.897  0.00  0.00     0.028 H 
ATOM     20  H15 AGY d          36.737  -0.174  16.948  0.00  0.00     0.028 H 
ATOM     21  H16 AGY d          35.359  -0.322  18.091  0.00  0.00     0.028 H 
ENDBRANCH  17  18
BRANCH  17  22
ATOM     22  C21 AGY d          36.126  -1.228  15.106  0.00  0.00    -0.066 C 
ATOM     23  H17 AGY d          36.752  -0.330  15.015  0.00  0.00     0.028 H 
ATOM     24  H18 AGY d          35.758  -1.521  14.111  0.00  0.00     0.028 H 
ATOM     25  H19 AGY d          36.721  -2.049  15.532  0.00  0.00     0.028 H 
ENDBRANCH  17  22
BRANCH  17  26
ATOM     26  C22 AGY d          33.916  -0.125  15.173  0.00  0.00    -0.066 C 
ATOM     27  H20 AGY d          34.390   0.813  14.849  0.00  0.00     0.028 H 
ATOM     28  H21 AGY d          33.010   0.103  15.754  0.00  0.00     0.028 H 
ATOM     29  H22 AGY d          33.644  -0.723  14.290  0.00  0.00     0.028 H 
ENDBRANCH  17  26
ENDBRANCH   9  17
ENDBRANCH   3   5
BRANCH   2  30
ATOM     30  N2  AGY d          29.590  -6.225  19.170  0.00  0.00    -0.248 N 
ATOM     31  C10 AGY d          29.156  -6.230  20.460  0.00  0.00     0.339 C 
ATOM     32  N1  AGY d          29.350  -5.149  21.271  0.00  0.00    -0.307 N 
ATOM     33  O1  AGY d          28.580  -7.249  20.864  0.00  0.00    -0.245 OA
ATOM     34  H1  AGY d          29.821  -4.379  20.839  0.00  0.00     0.170 HD
ATOM     35  H2  AGY d          29.424  -7.037  18.611  0.00  0.00     0.192 HD
BRANCH  32  36
ATOM     36  C2  AGY d          28.998  -4.947  22.603  0.00  0.00     0.047 A 
ATOM     37  C1  AGY d          27.821  -4.212  23.042  0.00  0.00     0.001 A 
ATOM     38  C3  AGY d          27.535  -4.055  24.501  0.00  0.00    -0.024 A 
ATOM     39  C4  AGY d          26.911  -3.623  22.086  0.00  0.00    -0.070 A 
ATOM     40  C6  AGY d          28.419  -4.626  25.488  0.00  0.00    -0.072 A 
ATOM     41  C7  AGY d          26.380  -3.333  24.925  0.00  0.00    -0.072 A 
ATOM     42  C9  AGY d          29.598  -5.362  25.045  0.00  0.00    -0.080 A 
ATOM     43  H6  AGY d          28.209  -4.510  26.545  0.00  0.00     0.084 H 
ATOM     44  C5  AGY d          29.876  -5.515  23.624  0.00  0.00    -0.056 A 
ATOM     45  H9  AGY d          30.270  -5.796  25.777  0.00  0.00     0.083 H 
ATOM     46  H5  AGY d          30.758  -6.065  23.315  0.00  0.00     0.086 H 
ATOM     47  C11 AGY d          25.480  -2.750  23.948  0.00  0.00    -0.082 A 
ATOM     48  H7  AGY d          26.173  -3.220  25.983  0.00  0.00     0.084 H 
ATOM     49  C8  AGY d          25.747  -2.896  22.534  0.00  0.00    -0.082 A 
ATOM     50  H10 AGY d          24.605  -2.202  24.279  0.00  0.00     0.083 H 
ATOM     51  H8  AGY d          25.071  -2.457  21.809  0.00  0.00     0.083 H 
ATOM     52  H4  AGY d          27.105  -3.728  21.024  0.00  0.00     0.084 H 
ENDBRANCH  32  36
ENDBRANCH   2  30
TORSDOF 8
ENDMDL
MODEL 7
REMARK VINA RESULT:      -5.0      2.235      3.198
REMARK  8 active torsions:
REMARK  status: ('A' for Active; 'I' for Inactive)
REMARK    1  A    between atoms: N1_2  and  C2_4 
REMARK       I    between atoms: C10_18  and  N1_2 
REMARK    2  A    between atoms: N3_8  and  N2_5 
REMARK       I    between atoms: N2_5  and  C10_18 
REMARK       I    between atoms: C12_20  and  N3_8 
REMARK    3  A    between atoms: C16_24  and  N4_11 
REMARK    4  A    between atoms: C13_21  and  C12_20 
REMARK    5  A    between atoms: C18_26  and  C19_27 
REMARK    6  A    between atoms: C19_27  and  C20_28 
REMARK    7  A    between atoms: C19_27  and  C21_29 
REMARK    8  A    between atoms: C19_27  and  C22_30 
ROOT
ATOM      1  O2  AGY d          29.729  -5.591  18.500  0.00  0.00    -0.266 OA
ATOM      2  N3  AGY d          29.440  -3.413  18.973  0.00  0.00    -0.262 N 
ATOM      3  C12 AGY d          29.437  -4.722  19.344  0.00  0.00     0.270 C 
ATOM      4  H3  AGY d          29.211  -2.677  19.609  0.00  0.00     0.190 HD
ENDROOT
BRANCH   3   5
ATOM      5  C13 AGY d          29.090  -5.103  20.712  0.00  0.00     0.036 A 
ATOM      6  C14 AGY d          28.110  -4.367  21.410  0.00  0.00    -0.035 A 
ATOM      7  C16 AGY d          27.726  -4.701  22.749  0.00  0.00     0.111 A 
ATOM      8  H11 AGY d          27.633  -3.526  20.919  0.00  0.00     0.088 H 
ATOM      9  C18 AGY d          28.356  -5.833  23.455  0.00  0.00    -0.018 A 
ATOM     10  C17 AGY d          29.377  -6.584  22.702  0.00  0.00    -0.073 A 
ATOM     11  C15 AGY d          29.727  -6.210  21.352  0.00  0.00    -0.067 A 
ATOM     12  H13 AGY d          29.872  -7.429  23.169  0.00  0.00     0.084 H 
ATOM     13  H12 AGY d          30.482  -6.776  20.818  0.00  0.00     0.085 H 
BRANCH   7  14
ATOM     14  N4  AGY d          26.768  -3.986  23.312  0.00  0.00    -0.115 N 
ATOM     15  O3  AGY d          25.523  -4.268  23.048  0.00  0.00    -0.532 OA
ATOM     16  O4  AGY d          27.087  -2.940  24.170  0.00  0.00    -0.532 OA
ENDBRANCH   7  14
BRANCH   9  17
ATOM     17  C19 AGY d          28.018  -6.280  24.898  0.00  0.00    -0.022 C 
BRANCH  17  18
ATOM     18  C20 AGY d          28.963  -7.372  25.456  0.00  0.00    -0.066 C 
ATOM     19  H14 AGY d          28.404  -8.311  25.585  0.00  0.00     0.028 H 
ATOM     20  H15 AGY d          29.364  -7.049  26.428  0.00  0.00     0.028 H 
ATOM     21  H16 AGY d          29.793  -7.533  24.752  0.00  0.00     0.028 H 
ENDBRANCH  17  18
BRANCH  17  22
ATOM     22  C21 AGY d          28.138  -5.273  26.104  0.00  0.00    -0.066 C 
ATOM     23  H17 AGY d          29.197  -5.032  26.276  0.00  0.00     0.028 H 
ATOM     24  H18 AGY d          27.715  -5.733  27.009  0.00  0.00     0.028 H 
ATOM     25  H19 AGY d          27.586  -4.351  25.868  0.00  0.00     0.028 H 
ENDBRANCH  17  22
BRANCH  17  26
ATOM     26  C22 AGY d          26.539  -6.714  24.891  0.00  0.00    -0.066 C 
ATOM     27  H20 AGY d          25.900  -5.836  24.710  0.00  0.00     0.028 H 
ATOM     28  H21 AGY d          26.283  -7.159  25.864  0.00  0.00     0.028 H 
ATOM     29  H22 AGY d          26.378  -7.456  24.095  0.00  0.00     0.028 H 
ENDBRANCH  17  26
ENDBRANCH   9  17
ENDBRANCH   3   5
BRANCH   2  30
ATOM     30  N2  AGY d          29.794  -3.163  17.604  0.00  0.00    -0.248 N 
ATOM     31  C10 AGY d          31.049  -3.344  17.109  0.00  0.00     0.339 C 
ATOM     32  N1  AGY d          32.062  -3.790  17.909  0.00  0.00    -0.307 N 
ATOM     33  O1  AGY d          31.232  -3.092  15.911  0.00  0.00    -0.245 OA
ATOM     34  H1  AGY d          31.800  -3.968  18.858  0.00  0.00     0.170 HD
ATOM     35  H2  AGY d          29.082  -2.838  16.982  0.00  0.00     0.192 HD
BRANCH  32  36
ATOM     36  C2  AGY d          33.401  -4.035  17.615  0.00  0.00     0.047 A 
ATOM     37  C1  AGY d          33.874  -5.135  16.787  0.00  0.00     0.001 A 
ATOM     38  C3  AGY d          35.337  -5.307  16.533  0.00  0.00    -0.024 A 
ATOM     39  C4  AGY d          32.948  -6.075  16.197  0.00  0.00    -0.070 A 
ATOM     40  C6  AGY d          36.294  -4.391  17.104  0.00  0.00    -0.072 A 
ATOM     41  C7  AGY d          35.795  -6.387  15.720  0.00  0.00    -0.072 A 
ATOM     42  C9  AGY d          35.817  -3.291  17.935  0.00  0.00    -0.080 A 
ATOM     43  H6  AGY d          37.354  -4.519  16.919  0.00  0.00     0.084 H 
ATOM     44  C5  AGY d          34.391  -3.123  18.181  0.00  0.00    -0.056 A 
ATOM     45  H9  AGY d          36.525  -2.595  18.369  0.00  0.00     0.083 H 
ATOM     46  H5  AGY d          34.056  -2.299  18.801  0.00  0.00     0.086 H 
ATOM     47  C11 AGY d          34.848  -7.319  15.139  0.00  0.00    -0.082 A 
ATOM     48  H7  AGY d          36.856  -6.511  15.537  0.00  0.00     0.084 H 
ATOM     49  C8  AGY d          33.431  -7.162  15.377  0.00  0.00    -0.082 A 
ATOM     50  H10 AGY d          35.205  -8.137  14.523  0.00  0.00     0.083 H 
ATOM     51  H8  AGY d          32.728  -7.862  14.940  0.00  0.00     0.083 H 
ATOM     52  H4  AGY d          31.884  -5.964  16.372  0.00  0.00     0.084 H 
ENDBRANCH  32  36
ENDBRANCH   2  30
TORSDOF 8
ENDMDL
