MODEL 1
REMARK VINA RESULT:      -6.2      0.000      0.000
REMARK  9 active torsions:
REMARK  status: ('A' for Active; 'I' for Inactive)
REMARK    1  A    between atoms: C1_1  and  C2_3 
REMARK    2  A    between atoms: C2_3  and  C3_4 
REMARK    3  A    between atoms: C3_4  and  C4_5 
REMARK    4  A    between atoms: C4_5  and  C5_6 
REMARK    5  A    between atoms: C5_6  and  C6_7 
REMARK    6  A    between atoms: C6_7  and  C7_8 
REMARK    7  A    between atoms: C7_8  and  C8_9 
REMARK    8  A    between atoms: C8_9  and  C9_10 
REMARK    9  A    between atoms: C9_10  and  C10_11 
ROOT
ATOM      1  C6  DKA d          14.392  -3.812  -0.702  0.00  0.00    -0.065 C 
ATOM      2  H9  DKA d          15.234  -3.251  -0.271  0.00  0.00     0.033 H 
ATOM      3  H10 DKA d          14.374  -3.666  -1.792  0.00  0.00     0.033 H 
ENDROOT
BRANCH   1   4
ATOM      4  C5  DKA d          13.091  -3.288  -0.110  0.00  0.00    -0.065 C 
ATOM      5  H7  DKA d          13.299  -2.419   0.531  0.00  0.00     0.033 H 
ATOM      6  H8  DKA d          12.407  -2.993  -0.919  0.00  0.00     0.033 H 
BRANCH   4   7
ATOM      7  C4  DKA d          12.457  -4.398   0.720  0.00  0.00    -0.065 C 
ATOM      8  H5  DKA d          12.457  -5.329   0.133  0.00  0.00     0.033 H 
ATOM      9  H6  DKA d          13.048  -4.543   1.636  0.00  0.00     0.033 H 
BRANCH   7  10
ATOM     10  C3  DKA d          11.028  -4.054   1.101  0.00  0.00    -0.056 C 
ATOM     11  H3  DKA d          10.507  -4.965   1.428  0.00  0.00     0.033 H 
ATOM     12  H4  DKA d          11.035  -3.321   1.922  0.00  0.00     0.033 H 
BRANCH  10  13
ATOM     13  C2  DKA d          10.305  -3.460  -0.100  0.00  0.00     0.016 C 
ATOM     14  H1  DKA d          11.021  -2.886  -0.706  0.00  0.00     0.049 H 
ATOM     15  H2  DKA d           9.881  -4.274  -0.707  0.00  0.00     0.049 H 
BRANCH  13  16
ATOM     16  C1  DKA d           9.193  -2.547   0.349  0.00  0.00     0.172 C 
ATOM     17  O1  DKA d           8.477  -2.921   1.307  0.00  0.00    -0.648 OA
ATOM     18  O2  DKA d           9.030  -1.466  -0.261  0.00  0.00    -0.648 OA
ENDBRANCH  13  16
ENDBRANCH  10  13
ENDBRANCH   7  10
ENDBRANCH   4   7
ENDBRANCH   1   4
BRANCH   1  19
ATOM     19  C7  DKA d          14.580  -5.290  -0.405  0.00  0.00    -0.065 C 
ATOM     20  H11 DKA d          14.065  -5.885  -1.172  0.00  0.00     0.033 H 
ATOM     21  H12 DKA d          14.157  -5.521   0.584  0.00  0.00     0.033 H 
BRANCH  19  22
ATOM     22  C8  DKA d          16.057  -5.632  -0.411  0.00  0.00    -0.065 C 
ATOM     23  H13 DKA d          16.186  -6.629  -0.857  0.00  0.00     0.033 H 
ATOM     24  H14 DKA d          16.421  -5.645   0.627  0.00  0.00     0.033 H 
BRANCH  22  25
ATOM     25  C9  DKA d          16.877  -4.638  -1.200  0.00  0.00    -0.069 C 
ATOM     26  H15 DKA d          17.281  -3.879  -0.515  0.00  0.00     0.032 H 
ATOM     27  H16 DKA d          16.233  -4.151  -1.947  0.00  0.00     0.032 H 
BRANCH  25  28
ATOM     28  C10 DKA d          18.022  -5.329  -1.906  0.00  0.00    -0.077 C 
ATOM     29  H17 DKA d          18.832  -4.607  -2.085  0.00  0.00     0.027 H 
ATOM     30  H18 DKA d          17.671  -5.731  -2.869  0.00  0.00     0.027 H 
ATOM     31  H19 DKA d          18.396  -6.153  -1.280  0.00  0.00     0.027 H 
ENDBRANCH  25  28
ENDBRANCH  22  25
ENDBRANCH  19  22
ENDBRANCH   1  19
TORSDOF 9
ENDMDL
MODEL 2
REMARK VINA RESULT:      -5.9      4.117      6.888
REMARK  9 active torsions:
REMARK  status: ('A' for Active; 'I' for Inactive)
REMARK    1  A    between atoms: C1_1  and  C2_3 
REMARK    2  A    between atoms: C2_3  and  C3_4 
REMARK    3  A    between atoms: C3_4  and  C4_5 
REMARK    4  A    between atoms: C4_5  and  C5_6 
REMARK    5  A    between atoms: C5_6  and  C6_7 
REMARK    6  A    between atoms: C6_7  and  C7_8 
REMARK    7  A    between atoms: C7_8  and  C8_9 
REMARK    8  A    between atoms: C8_9  and  C9_10 
REMARK    9  A    between atoms: C9_10  and  C10_11 
ROOT
ATOM      1  C6  DKA d          12.450  -2.962   0.128  0.00  0.00    -0.065 C 
ATOM      2  H9  DKA d          11.718  -2.850  -0.685  0.00  0.00     0.033 H 
ATOM      3  H10 DKA d          12.437  -2.062   0.760  0.00  0.00     0.033 H 
ENDROOT
BRANCH   1   4
ATOM      4  C5  DKA d          13.839  -3.126  -0.474  0.00  0.00    -0.065 C 
ATOM      5  H7  DKA d          13.834  -2.779  -1.518  0.00  0.00     0.033 H 
ATOM      6  H8  DKA d          14.566  -2.537   0.104  0.00  0.00     0.033 H 
BRANCH   4   7
ATOM      7  C4  DKA d          14.216  -4.601  -0.424  0.00  0.00    -0.065 C 
ATOM      8  H5  DKA d          14.637  -4.830   0.567  0.00  0.00     0.033 H 
ATOM      9  H6  DKA d          13.313  -5.208  -0.588  0.00  0.00     0.033 H 
BRANCH   7  10
ATOM     10  C3  DKA d          15.242  -4.945  -1.489  0.00  0.00    -0.056 C 
ATOM     11  H3  DKA d          14.852  -5.752  -2.125  0.00  0.00     0.033 H 
ATOM     12  H4  DKA d          15.441  -4.055  -2.106  0.00  0.00     0.033 H 
BRANCH  10  13
ATOM     13  C2  DKA d          16.536  -5.401  -0.827  0.00  0.00     0.016 C 
ATOM     14  H1  DKA d          16.580  -4.998   0.195  0.00  0.00     0.049 H 
ATOM     15  H2  DKA d          16.555  -6.500  -0.789  0.00  0.00     0.049 H 
BRANCH  13  16
ATOM     16  C1  DKA d          17.730  -4.912  -1.606  0.00  0.00     0.172 C 
ATOM     17  O1  DKA d          18.427  -5.761  -2.207  0.00  0.00    -0.648 OA
ATOM     18  O2  DKA d          17.976  -3.685  -1.606  0.00  0.00    -0.648 OA
ENDBRANCH  13  16
ENDBRANCH  10  13
ENDBRANCH   7  10
ENDBRANCH   4   7
ENDBRANCH   1   4
BRANCH   1  19
ATOM     19  C7  DKA d          12.068  -4.165   0.975  0.00  0.00    -0.065 C 
ATOM     20  H11 DKA d          12.615  -4.129   1.928  0.00  0.00     0.033 H 
ATOM     21  H12 DKA d          12.330  -5.088   0.437  0.00  0.00     0.033 H 
BRANCH  19  22
ATOM     22  C8  DKA d          10.578  -4.148   1.249  0.00  0.00    -0.065 C 
ATOM     23  H13 DKA d          10.413  -3.802   2.280  0.00  0.00     0.033 H 
ATOM     24  H14 DKA d          10.186  -5.169   1.138  0.00  0.00     0.033 H 
BRANCH  22  25
ATOM     25  C9  DKA d           9.827  -3.236   0.307  0.00  0.00    -0.069 C 
ATOM     26  H15 DKA d           9.454  -3.824  -0.544  0.00  0.00     0.032 H 
ATOM     27  H16 DKA d          10.509  -2.454  -0.059  0.00  0.00     0.032 H 
BRANCH  25  28
ATOM     28  C10 DKA d           8.657  -2.584   1.011  0.00  0.00    -0.077 C 
ATOM     29  H17 DKA d           8.985  -2.202   1.989  0.00  0.00     0.027 H 
ATOM     30  H18 DKA d           7.857  -3.326   1.157  0.00  0.00     0.027 H 
ATOM     31  H19 DKA d           8.278  -1.752   0.400  0.00  0.00     0.027 H 
ENDBRANCH  25  28
ENDBRANCH  22  25
ENDBRANCH  19  22
ENDBRANCH   1  19
TORSDOF 9
ENDMDL
MODEL 3
REMARK VINA RESULT:      -5.8      3.815      6.768
REMARK  9 active torsions:
REMARK  status: ('A' for Active; 'I' for Inactive)
REMARK    1  A    between atoms: C1_1  and  C2_3 
REMARK    2  A    between atoms: C2_3  and  C3_4 
REMARK    3  A    between atoms: C3_4  and  C4_5 
REMARK    4  A    between atoms: C4_5  and  C5_6 
REMARK    5  A    between atoms: C5_6  and  C6_7 
REMARK    6  A    between atoms: C6_7  and  C7_8 
REMARK    7  A    between atoms: C7_8  and  C8_9 
REMARK    8  A    between atoms: C8_9  and  C9_10 
REMARK    9  A    between atoms: C9_10  and  C10_11 
ROOT
ATOM      1  C6  DKA d          11.936  -2.382  -0.127  0.00  0.00    -0.065 C 
ATOM      2  H9  DKA d          11.793  -1.673  -0.955  0.00  0.00     0.033 H 
ATOM      3  H10 DKA d          11.921  -1.837   0.829  0.00  0.00     0.033 H 
ENDROOT
BRANCH   1   4
ATOM      4  C5  DKA d          13.287  -3.066  -0.287  0.00  0.00    -0.065 C 
ATOM      5  H7  DKA d          13.583  -3.059  -1.346  0.00  0.00     0.033 H 
ATOM      6  H8  DKA d          14.045  -2.535   0.309  0.00  0.00     0.033 H 
BRANCH   4   7
ATOM      7  C4  DKA d          13.162  -4.503   0.204  0.00  0.00    -0.065 C 
ATOM      8  H5  DKA d          13.052  -4.500   1.299  0.00  0.00     0.033 H 
ATOM      9  H6  DKA d          12.272  -4.961  -0.252  0.00  0.00     0.033 H 
BRANCH   7  10
ATOM     10  C3  DKA d          14.386  -5.321  -0.168  0.00  0.00    -0.056 C 
ATOM     11  H3  DKA d          14.999  -5.489   0.729  0.00  0.00     0.033 H 
ATOM     12  H4  DKA d          14.066  -6.290  -0.581  0.00  0.00     0.033 H 
BRANCH  10  13
ATOM     13  C2  DKA d          15.206  -4.573  -1.210  0.00  0.00     0.016 C 
ATOM     14  H1  DKA d          14.862  -4.859  -2.214  0.00  0.00     0.049 H 
ATOM     15  H2  DKA d          15.069  -3.490  -1.070  0.00  0.00     0.049 H 
BRANCH  13  16
ATOM     16  C1  DKA d          16.668  -4.908  -1.073  0.00  0.00     0.172 C 
ATOM     17  O1  DKA d          16.979  -5.925  -0.410  0.00  0.00    -0.648 OA
ATOM     18  O2  DKA d          17.504  -4.151  -1.616  0.00  0.00    -0.648 OA
ENDBRANCH  13  16
ENDBRANCH  10  13
ENDBRANCH   7  10
ENDBRANCH   4   7
ENDBRANCH   1   4
BRANCH   1  19
ATOM     19  C7  DKA d          10.800  -3.391  -0.138  0.00  0.00    -0.065 C 
ATOM     20  H11 DKA d          11.211  -4.405  -0.027  0.00  0.00     0.033 H 
ATOM     21  H12 DKA d          10.256  -3.318  -1.091  0.00  0.00     0.033 H 
BRANCH  19  22
ATOM     22  C8  DKA d           9.848  -3.107   1.007  0.00  0.00    -0.065 C 
ATOM     23  H13 DKA d          10.407  -2.612   1.815  0.00  0.00     0.033 H 
ATOM     24  H14 DKA d           9.442  -4.060   1.374  0.00  0.00     0.033 H 
BRANCH  22  25
ATOM     25  C9  DKA d           8.699  -2.216   0.596  0.00  0.00    -0.069 C 
ATOM     26  H15 DKA d           8.548  -2.299  -0.490  0.00  0.00     0.032 H 
ATOM     27  H16 DKA d           8.940  -1.174   0.854  0.00  0.00     0.032 H 
BRANCH  25  28
ATOM     28  C10 DKA d           7.427  -2.621   1.307  0.00  0.00    -0.077 C 
ATOM     29  H17 DKA d           6.689  -2.966   0.568  0.00  0.00     0.027 H 
ATOM     30  H18 DKA d           7.021  -1.758   1.855  0.00  0.00     0.027 H 
ATOM     31  H19 DKA d           7.645  -3.435   2.015  0.00  0.00     0.027 H 
ENDBRANCH  25  28
ENDBRANCH  22  25
ENDBRANCH  19  22
ENDBRANCH   1  19
TORSDOF 9
ENDMDL
MODEL 4
REMARK VINA RESULT:      -4.9      3.431      6.907
REMARK  9 active torsions:
REMARK  status: ('A' for Active; 'I' for Inactive)
REMARK    1  A    between atoms: C1_1  and  C2_3 
REMARK    2  A    between atoms: C2_3  and  C3_4 
REMARK    3  A    between atoms: C3_4  and  C4_5 
REMARK    4  A    between atoms: C4_5  and  C5_6 
REMARK    5  A    between atoms: C5_6  and  C6_7 
REMARK    6  A    between atoms: C6_7  and  C7_8 
REMARK    7  A    between atoms: C7_8  and  C8_9 
REMARK    8  A    between atoms: C8_9  and  C9_10 
REMARK    9  A    between atoms: C9_10  and  C10_11 
ROOT
ATOM      1  C6  DKA d           9.997  -2.821   0.207  0.00  0.00    -0.065 C 
ATOM      2  H9  DKA d           9.765  -2.798  -0.867  0.00  0.00     0.033 H 
ATOM      3  H10 DKA d          10.625  -1.956   0.465  0.00  0.00     0.033 H 
ENDROOT
BRANCH   1   4
ATOM      4  C5  DKA d          10.759  -4.100   0.524  0.00  0.00    -0.065 C 
ATOM      5  H7  DKA d          10.229  -4.664   1.305  0.00  0.00     0.033 H 
ATOM      6  H8  DKA d          10.841  -4.718  -0.382  0.00  0.00     0.033 H 
BRANCH   4   7
ATOM      7  C4  DKA d          12.151  -3.723   1.017  0.00  0.00    -0.065 C 
ATOM      8  H5  DKA d          12.132  -2.689   1.390  0.00  0.00     0.033 H 
ATOM      9  H6  DKA d          12.438  -4.403   1.833  0.00  0.00     0.033 H 
BRANCH   7  10
ATOM     10  C3  DKA d          13.177  -3.828  -0.098  0.00  0.00    -0.056 C 
ATOM     11  H3  DKA d          12.665  -3.800  -1.070  0.00  0.00     0.033 H 
ATOM     12  H4  DKA d          13.879  -2.983  -0.029  0.00  0.00     0.033 H 
BRANCH  10  13
ATOM     13  C2  DKA d          13.945  -5.136   0.033  0.00  0.00     0.016 C 
ATOM     14  H1  DKA d          14.160  -5.325   1.094  0.00  0.00     0.049 H 
ATOM     15  H2  DKA d          13.333  -5.957  -0.369  0.00  0.00     0.049 H 
BRANCH  13  16
ATOM     16  C1  DKA d          15.243  -5.066  -0.730  0.00  0.00     0.172 C 
ATOM     17  O1  DKA d          16.199  -5.769  -0.330  0.00  0.00    -0.648 OA
ATOM     18  O2  DKA d          15.309  -4.302  -1.720  0.00  0.00    -0.648 OA
ENDBRANCH  13  16
ENDBRANCH  10  13
ENDBRANCH   7  10
ENDBRANCH   4   7
ENDBRANCH   1   4
BRANCH   1  19
ATOM     19  C7  DKA d           8.699  -2.741   0.994  0.00  0.00    -0.065 C 
ATOM     20  H11 DKA d           8.686  -3.532   1.758  0.00  0.00     0.033 H 
ATOM     21  H12 DKA d           7.849  -2.877   0.311  0.00  0.00     0.033 H 
BRANCH  19  22
ATOM     22  C8  DKA d           8.590  -1.388   1.669  0.00  0.00    -0.065 C 
ATOM     23  H13 DKA d           9.490  -1.225   2.280  0.00  0.00     0.033 H 
ATOM     24  H14 DKA d           7.702  -1.387   2.318  0.00  0.00     0.033 H 
BRANCH  22  25
ATOM     25  C9  DKA d           8.466  -0.255   0.677  0.00  0.00    -0.069 C 
ATOM     26  H15 DKA d           9.359  -0.237   0.036  0.00  0.00     0.032 H 
ATOM     27  H16 DKA d           8.388   0.697   1.223  0.00  0.00     0.032 H 
BRANCH  25  28
ATOM     28  C10 DKA d           7.237  -0.433  -0.188  0.00  0.00    -0.077 C 
ATOM     29  H17 DKA d           6.464   0.285   0.121  0.00  0.00     0.027 H 
ATOM     30  H18 DKA d           6.853  -1.458  -0.072  0.00  0.00     0.027 H 
ATOM     31  H19 DKA d           7.502  -0.257  -1.241  0.00  0.00     0.027 H 
ENDBRANCH  25  28
ENDBRANCH  22  25
ENDBRANCH  19  22
ENDBRANCH   1  19
TORSDOF 9
ENDMDL
MODEL 5
REMARK VINA RESULT:      -4.5      1.487      2.538
REMARK  9 active torsions:
REMARK  status: ('A' for Active; 'I' for Inactive)
REMARK    1  A    between atoms: C1_1  and  C2_3 
REMARK    2  A    between atoms: C2_3  and  C3_4 
REMARK    3  A    between atoms: C3_4  and  C4_5 
REMARK    4  A    between atoms: C4_5  and  C5_6 
REMARK    5  A    between atoms: C5_6  and  C6_7 
REMARK    6  A    between atoms: C6_7  and  C7_8 
REMARK    7  A    between atoms: C7_8  and  C8_9 
REMARK    8  A    between atoms: C8_9  and  C9_10 
REMARK    9  A    between atoms: C9_10  and  C10_11 
ROOT
ATOM      1  C6  DKA d          12.717  -2.563  -0.323  0.00  0.00    -0.065 C 
ATOM      2  H9  DKA d          13.188  -1.746   0.244  0.00  0.00     0.033 H 
ATOM      3  H10 DKA d          12.765  -2.337  -1.398  0.00  0.00     0.033 H 
ENDROOT
BRANCH   1   4
ATOM      4  C5  DKA d          11.258  -2.681   0.096  0.00  0.00    -0.065 C 
ATOM      5  H7  DKA d          10.837  -3.621  -0.289  0.00  0.00     0.033 H 
ATOM      6  H8  DKA d          11.185  -2.669   1.194  0.00  0.00     0.033 H 
BRANCH   4   7
ATOM      7  C4  DKA d          10.492  -1.498  -0.483  0.00  0.00    -0.065 C 
ATOM      8  H5  DKA d          11.199  -0.831  -0.999  0.00  0.00     0.033 H 
ATOM      9  H6  DKA d           9.747  -1.871  -1.201  0.00  0.00     0.033 H 
BRANCH   7  10
ATOM     10  C3  DKA d           9.781  -0.715   0.607  0.00  0.00    -0.056 C 
ATOM     11  H3  DKA d          10.515  -0.115   1.164  0.00  0.00     0.033 H 
ATOM     12  H4  DKA d           9.033  -0.050   0.151  0.00  0.00     0.033 H 
BRANCH  10  13
ATOM     13  C2  DKA d           9.086  -1.678   1.560  0.00  0.00     0.016 C 
ATOM     14  H1  DKA d           9.676  -2.603   1.633  0.00  0.00     0.049 H 
ATOM     15  H2  DKA d           9.009  -1.213   2.554  0.00  0.00     0.049 H 
BRANCH  13  16
ATOM     16  C1  DKA d           7.703  -2.011   1.062  0.00  0.00     0.172 C 
ATOM     17  O1  DKA d           7.164  -3.061   1.481  0.00  0.00    -0.648 OA
ATOM     18  O2  DKA d           7.164  -1.230   0.245  0.00  0.00    -0.648 OA
ENDBRANCH  13  16
ENDBRANCH  10  13
ENDBRANCH   7  10
ENDBRANCH   4   7
ENDBRANCH   1   4
BRANCH   1  19
ATOM     19  C7  DKA d          13.477  -3.852  -0.054  0.00  0.00    -0.065 C 
ATOM     20  H11 DKA d          12.849  -4.710  -0.335  0.00  0.00     0.033 H 
ATOM     21  H12 DKA d          13.724  -3.914   1.015  0.00  0.00     0.033 H 
BRANCH  19  22
ATOM     22  C8  DKA d          14.754  -3.874  -0.869  0.00  0.00    -0.065 C 
ATOM     23  H13 DKA d          15.393  -3.038  -0.547  0.00  0.00     0.033 H 
ATOM     24  H14 DKA d          14.498  -3.753  -1.932  0.00  0.00     0.033 H 
BRANCH  22  25
ATOM     25  C9  DKA d          15.524  -5.163  -0.701  0.00  0.00    -0.069 C 
ATOM     26  H15 DKA d          16.520  -4.939  -0.291  0.00  0.00     0.032 H 
ATOM     27  H16 DKA d          15.632  -5.650  -1.681  0.00  0.00     0.032 H 
BRANCH  25  28
ATOM     28  C10 DKA d          14.800  -6.100   0.241  0.00  0.00    -0.077 C 
ATOM     29  H17 DKA d          13.887  -5.613   0.613  0.00  0.00     0.027 H 
ATOM     30  H18 DKA d          15.456  -6.345   1.091  0.00  0.00     0.027 H 
ATOM     31  H19 DKA d          14.533  -7.024  -0.293  0.00  0.00     0.027 H 
ENDBRANCH  25  28
ENDBRANCH  22  25
ENDBRANCH  19  22
ENDBRANCH   1  19
TORSDOF 9
ENDMDL
MODEL 6
REMARK VINA RESULT:      -3.5      1.993      2.816
REMARK  9 active torsions:
REMARK  status: ('A' for Active; 'I' for Inactive)
REMARK    1  A    between atoms: C1_1  and  C2_3 
REMARK    2  A    between atoms: C2_3  and  C3_4 
REMARK    3  A    between atoms: C3_4  and  C4_5 
REMARK    4  A    between atoms: C4_5  and  C5_6 
REMARK    5  A    between atoms: C5_6  and  C6_7 
REMARK    6  A    between atoms: C6_7  and  C7_8 
REMARK    7  A    between atoms: C7_8  and  C8_9 
REMARK    8  A    between atoms: C8_9  and  C9_10 
REMARK    9  A    between atoms: C9_10  and  C10_11 
ROOT
ATOM      1  C6  DKA d          12.836  -2.053  -0.664  0.00  0.00    -0.065 C 
ATOM      2  H9  DKA d          12.960  -1.321   0.147  0.00  0.00     0.033 H 
ATOM      3  H10 DKA d          13.344  -1.687  -1.569  0.00  0.00     0.033 H 
ENDROOT
BRANCH   1   4
ATOM      4  C5  DKA d          11.352  -2.218  -0.960  0.00  0.00    -0.065 C 
ATOM      5  H7  DKA d          11.118  -1.777  -1.941  0.00  0.00     0.033 H 
ATOM      6  H8  DKA d          11.091  -3.287  -0.968  0.00  0.00     0.033 H 
BRANCH   4   7
ATOM      7  C4  DKA d          10.560  -1.503   0.128  0.00  0.00    -0.065 C 
ATOM      8  H5  DKA d          11.260  -0.980   0.796  0.00  0.00     0.033 H 
ATOM      9  H6  DKA d           9.885  -0.772  -0.342  0.00  0.00     0.033 H 
BRANCH   7  10
ATOM     10  C3  DKA d           9.736  -2.484   0.944  0.00  0.00    -0.056 C 
ATOM     11  H3  DKA d          10.018  -2.404   2.004  0.00  0.00     0.033 H 
ATOM     12  H4  DKA d           8.667  -2.247   0.831  0.00  0.00     0.033 H 
BRANCH  10  13
ATOM     13  C2  DKA d           9.994  -3.903   0.455  0.00  0.00     0.016 C 
ATOM     14  H1  DKA d           9.036  -4.436   0.373  0.00  0.00     0.049 H 
ATOM     15  H2  DKA d          10.478  -3.863  -0.532  0.00  0.00     0.049 H 
BRANCH  13  16
ATOM     16  C1  DKA d          10.890  -4.639   1.417  0.00  0.00     0.172 C 
ATOM     17  O1  DKA d          11.675  -3.964   2.123  0.00  0.00    -0.648 OA
ATOM     18  O2  DKA d          10.818  -5.888   1.459  0.00  0.00    -0.648 OA
ENDBRANCH  13  16
ENDBRANCH  10  13
ENDBRANCH   7  10
ENDBRANCH   4   7
ENDBRANCH   1   4
BRANCH   1  19
ATOM     19  C7  DKA d          13.466  -3.370  -0.242  0.00  0.00    -0.065 C 
ATOM     20  H11 DKA d          12.832  -4.202  -0.580  0.00  0.00     0.033 H 
ATOM     21  H12 DKA d          13.554  -3.398   0.854  0.00  0.00     0.033 H 
BRANCH  19  22
ATOM     22  C8  DKA d          14.843  -3.502  -0.861  0.00  0.00    -0.065 C 
ATOM     23  H13 DKA d          15.597  -3.252  -0.101  0.00  0.00     0.033 H 
ATOM     24  H14 DKA d          14.922  -2.798  -1.702  0.00  0.00     0.033 H 
BRANCH  22  25
ATOM     25  C9  DKA d          15.115  -4.898  -1.372  0.00  0.00    -0.069 C 
ATOM     26  H15 DKA d          15.715  -4.836  -2.291  0.00  0.00     0.032 H 
ATOM     27  H16 DKA d          14.159  -5.395  -1.592  0.00  0.00     0.032 H 
BRANCH  25  28
ATOM     28  C10 DKA d          15.870  -5.708  -0.341  0.00  0.00    -0.077 C 
ATOM     29  H17 DKA d          16.359  -5.029   0.373  0.00  0.00     0.027 H 
ATOM     30  H18 DKA d          16.632  -6.323  -0.843  0.00  0.00     0.027 H 
ATOM     31  H19 DKA d          15.167  -6.362   0.198  0.00  0.00     0.027 H 
ENDBRANCH  25  28
ENDBRANCH  22  25
ENDBRANCH  19  22
ENDBRANCH   1  19
TORSDOF 9
ENDMDL
