MODEL 1
REMARK VINA RESULT:      -5.9      0.000      0.000
REMARK  16 active torsions:
REMARK  status: ('A' for Active; 'I' for Inactive)
REMARK    1  A    between atoms: PA_1  and  O5_4 
REMARK    2  A    between atoms: O3A_8  and  PA_1 
REMARK    3  A    between atoms: O5_4  and  C5_23 
REMARK    4  A    between atoms: PB_5  and  O3A_8 
REMARK    5  A    between atoms: O3_38  and  PB_5 
REMARK    6  A    between atoms: O3_30  and  PG_9 
REMARK    7  A    between atoms: C1_26  and  N9A_13 
REMARK    8  A    between atoms: C5_23  and  C4_24 
REMARK    9  A    between atoms: C2_27  and  O2_28 
REMARK   10  A    between atoms: C3_29  and  O3_30 
REMARK   11  A    between atoms: C5_32  and  O5_31 
REMARK   12  A    between atoms: O5_31  and  PD_39 
REMARK   13  A    between atoms: C4_33  and  C5_32 
REMARK   14  A    between atoms: C1_35  and  N1T_43 
REMARK   15  A    between atoms: C3_37  and  O3_38 
REMARK   16  A    between atoms: C5T_50  and  CM5_51 
ROOT
ATOM      1  PA  PAX d         -32.547 -33.710  17.853  0.00  0.00     0.417 P 
ATOM      2  O1A PAX d         -32.587 -33.410  19.354  0.00  0.00    -0.624 OA
ATOM      3  O2A PAX d         -33.276 -34.978  17.395  0.00  0.00    -0.624 OA
ENDROOT
BRANCH   1   4
ATOM      4  O5  PAX d         -33.112 -32.483  17.007  0.00  0.00    -0.287 OA
BRANCH   4   5
ATOM      5  C5  PAX d         -33.733 -31.387  17.641  0.00  0.00     0.058 C 
ATOM      6  H5  PAX d         -33.167 -31.118  18.545  0.00  0.00     0.079 H 
ATOM      7  H6  PAX d         -34.762 -31.660  17.920  0.00  0.00     0.079 H 
BRANCH   5   8
ATOM      8  C4  PAX d         -33.763 -30.221  16.705  0.00  0.00     0.090 C 
ATOM      9  O4  PAX d         -34.195 -29.011  17.412  0.00  0.00    -0.353 OA
ATOM     10  C1  PAX d         -33.522 -27.909  16.845  0.00  0.00     0.140 C 
ATOM     11  C2  PAX d         -32.107 -28.478  16.618  0.00  0.00     0.106 C 
ATOM     12  H8  PAX d         -33.955 -27.674  15.862  0.00  0.00     0.122 H 
ATOM     13  C3  PAX d         -32.402 -29.890  16.089  0.00  0.00     0.107 C 
ATOM     14  H9  PAX d         -31.582 -28.553  17.581  0.00  0.00     0.093 H 
ATOM     15  H11 PAX d         -31.622 -30.604  16.391  0.00  0.00     0.092 H 
ATOM     16  H7  PAX d         -34.474 -30.449  15.897  0.00  0.00     0.090 H 
BRANCH  10  17
ATOM     17  N9A PAX d         -33.698 -26.686  17.687  0.00  0.00    -0.294 N 
ATOM     18  C4A PAX d         -34.498 -25.563  17.511  0.00  0.00     0.167 A 
ATOM     19  N3A PAX d         -35.358 -25.296  16.477  0.00  0.00    -0.222 NA
ATOM     20  C5A PAX d         -34.249 -24.739  18.631  0.00  0.00     0.149 A 
ATOM     21  C2A PAX d         -35.988 -24.090  16.633  0.00  0.00     0.091 A 
ATOM     22  N1A PAX d         -35.844 -23.193  17.660  0.00  0.00    -0.222 NA
ATOM     23  H1  PAX d         -36.683 -23.811  15.850  0.00  0.00     0.146 H 
ATOM     24  C6A PAX d         -34.973 -23.492  18.685  0.00  0.00     0.155 A 
ATOM     25  N6A PAX d         -34.848 -22.614  19.675  0.00  0.00    -0.382 N 
ATOM     26  H2  PAX d         -34.205 -22.806  20.457  0.00  0.00     0.157 HD
ATOM     27  H3  PAX d         -35.393 -21.740  19.661  0.00  0.00     0.157 HD
ATOM     28  N7A PAX d         -33.321 -25.329  19.476  0.00  0.00    -0.236 NA
ATOM     29  C8A PAX d         -33.028 -26.468  18.880  0.00  0.00     0.071 A 
ATOM     30  H4  PAX d         -32.317 -27.181  19.294  0.00  0.00     0.144 H 
ENDBRANCH  10  17
BRANCH  11  31
ATOM     31  O2  PAX d         -31.302 -27.678  15.763  0.00  0.00    -0.388 OA
ATOM     32  H10 PAX d         -31.680 -27.668  14.891  0.00  0.00     0.210 HD
ENDBRANCH  11  31
BRANCH  13  33
ATOM     33  O3  PAX d         -32.570 -29.895  14.669  0.00  0.00    -0.272 OA
BRANCH  33  34
ATOM     34  PG  PAX d         -31.351 -30.268  13.644  0.00  0.00     0.422 P 
ATOM     35  O1G PAX d         -30.906 -28.956  13.001  0.00  0.00    -0.617 OA
ATOM     36  O2G PAX d         -30.279 -30.913  14.511  0.00  0.00    -0.617 OA
ATOM     37  O3G PAX d         -31.883 -31.253  12.586  0.00  0.00    -0.617 OA
ENDBRANCH  33  34
ENDBRANCH  13  33
ENDBRANCH   5   8
ENDBRANCH   4   5
ENDBRANCH   1   4
BRANCH   1  38
ATOM     38  O3A PAX d         -31.045 -33.761  17.348  0.00  0.00    -0.180 OA
BRANCH  38  39
ATOM     39  PB  PAX d         -30.326 -34.457  16.127  0.00  0.00     0.418 P 
ATOM     40  O1B PAX d         -30.196 -35.899  16.408  0.00  0.00    -0.624 OA
ATOM     41  O2B PAX d         -31.018 -34.031  14.890  0.00  0.00    -0.624 OA
BRANCH  39  42
ATOM     42  O3  PAX d         -28.888 -33.696  16.074  0.00  0.00    -0.281 OA
BRANCH  42  43
ATOM     43  C3  PAX d         -27.912 -33.870  17.103  0.00  0.00     0.081 C 
ATOM     44  C4  PAX d         -27.636 -32.519  17.772  0.00  0.00     0.087 C 
ATOM     45  O4  PAX d         -26.327 -32.086  17.307  0.00  0.00    -0.356 OA
ATOM     46  H14 PAX d         -28.399 -31.798  17.443  0.00  0.00     0.090 H 
ATOM     47  C1  PAX d         -25.904 -32.923  16.249  0.00  0.00     0.116 C 
ATOM     48  C2  PAX d         -26.579 -34.267  16.490  0.00  0.00     0.003 C 
ATOM     49  H15 PAX d         -26.232 -32.511  15.283  0.00  0.00     0.118 H 
ATOM     50  H16 PAX d         -25.992 -34.886  17.184  0.00  0.00     0.043 H 
ATOM     51  H17 PAX d         -26.724 -34.812  15.545  0.00  0.00     0.043 H 
ATOM     52  H18 PAX d         -28.255 -34.619  17.833  0.00  0.00     0.088 H 
BRANCH  44  53
ATOM     53  C5  PAX d         -27.662 -32.575  19.291  0.00  0.00     0.059 C 
ATOM     54  H12 PAX d         -28.022 -33.565  19.609  0.00  0.00     0.079 H 
ATOM     55  H13 PAX d         -26.644 -32.415  19.676  0.00  0.00     0.079 H 
BRANCH  53  56
ATOM     56  O5  PAX d         -28.539 -31.555  19.829  0.00  0.00    -0.280 OA
BRANCH  56  57
ATOM     57  PD  PAX d         -28.633 -30.046  19.179  0.00  0.00     0.422 P 
ATOM     58  O1D PAX d         -27.202 -29.481  19.261  0.00  0.00    -0.617 OA
ATOM     59  O2D PAX d         -29.638 -29.256  20.049  0.00  0.00    -0.617 OA
ATOM     60  O3D PAX d         -29.112 -30.234  17.728  0.00  0.00    -0.617 OA
ENDBRANCH  56  57
ENDBRANCH  53  56
ENDBRANCH  44  53
BRANCH  47  61
ATOM     61  N1T PAX d         -24.405 -33.023  16.252  0.00  0.00    -0.282 N 
ATOM     62  C6T PAX d         -23.714 -33.897  17.129  0.00  0.00    -0.002 A 
ATOM     63  C5T PAX d         -22.365 -34.008  17.149  0.00  0.00     0.022 A 
ATOM     64  H19 PAX d         -24.295 -34.507  17.819  0.00  0.00     0.113 H 
ATOM     65  C4T PAX d         -21.572 -33.193  16.222  0.00  0.00     0.256 A 
ATOM     66  N3T PAX d         -22.315 -32.343  15.379  0.00  0.00    -0.275 N 
ATOM     67  O4T PAX d         -20.343 -33.200  16.118  0.00  0.00    -0.267 OA
ATOM     68  C2T PAX d         -23.701 -32.205  15.336  0.00  0.00     0.331 A 
ATOM     69  H20 PAX d         -21.790 -31.776  14.743  0.00  0.00     0.173 HD
ATOM     70  O2T PAX d         -24.246 -31.444  14.570  0.00  0.00    -0.246 OA
BRANCH  63  71
ATOM     71  CM5 PAX d         -21.707 -34.956  18.100  0.00  0.00    -0.045 C 
ATOM     72  H21 PAX d         -21.943 -34.663  19.133  0.00  0.00     0.033 H 
ATOM     73  H22 PAX d         -20.617 -34.927  17.951  0.00  0.00     0.033 H 
ATOM     74  H23 PAX d         -22.075 -35.976  17.915  0.00  0.00     0.033 H 
ENDBRANCH  63  71
ENDBRANCH  47  61
ENDBRANCH  42  43
ENDBRANCH  39  42
ENDBRANCH  38  39
ENDBRANCH   1  38
TORSDOF 16
ENDMDL
MODEL 2
REMARK VINA RESULT:      -5.7      1.646      2.350
REMARK  16 active torsions:
REMARK  status: ('A' for Active; 'I' for Inactive)
REMARK    1  A    between atoms: PA_1  and  O5_4 
REMARK    2  A    between atoms: O3A_8  and  PA_1 
REMARK    3  A    between atoms: O5_4  and  C5_23 
REMARK    4  A    between atoms: PB_5  and  O3A_8 
REMARK    5  A    between atoms: O3_38  and  PB_5 
REMARK    6  A    between atoms: O3_30  and  PG_9 
REMARK    7  A    between atoms: C1_26  and  N9A_13 
REMARK    8  A    between atoms: C5_23  and  C4_24 
REMARK    9  A    between atoms: C2_27  and  O2_28 
REMARK   10  A    between atoms: C3_29  and  O3_30 
REMARK   11  A    between atoms: C5_32  and  O5_31 
REMARK   12  A    between atoms: O5_31  and  PD_39 
REMARK   13  A    between atoms: C4_33  and  C5_32 
REMARK   14  A    between atoms: C1_35  and  N1T_43 
REMARK   15  A    between atoms: C3_37  and  O3_38 
REMARK   16  A    between atoms: C5T_50  and  CM5_51 
ROOT
ATOM      1  PA  PAX d         -31.889 -33.383  16.503  0.00  0.00     0.417 P 
ATOM      2  O1A PAX d         -32.339 -33.186  17.954  0.00  0.00    -0.624 OA
ATOM      3  O2A PAX d         -32.704 -34.378  15.670  0.00  0.00    -0.624 OA
ENDROOT
BRANCH   1   4
ATOM      4  O5  PAX d         -31.856 -31.995  15.720  0.00  0.00    -0.287 OA
BRANCH   4   5
ATOM      5  C5  PAX d         -32.123 -30.779  16.382  0.00  0.00     0.058 C 
ATOM      6  H5  PAX d         -31.489 -30.703  17.278  0.00  0.00     0.079 H 
ATOM      7  H6  PAX d         -33.182 -30.747  16.678  0.00  0.00     0.079 H 
BRANCH   5   8
ATOM      8  C4  PAX d         -31.827 -29.636  15.463  0.00  0.00     0.090 C 
ATOM      9  O4  PAX d         -32.665 -28.481  15.801  0.00  0.00    -0.353 OA
ATOM     10  C1  PAX d         -31.922 -27.311  15.542  0.00  0.00     0.140 C 
ATOM     11  C2  PAX d         -30.518 -27.702  16.044  0.00  0.00     0.106 C 
ATOM     12  H8  PAX d         -31.860 -27.142  14.457  0.00  0.00     0.122 H 
ATOM     13  C3  PAX d         -30.379 -29.146  15.536  0.00  0.00     0.107 C 
ATOM     14  H9  PAX d         -30.507 -27.701  17.143  0.00  0.00     0.093 H 
ATOM     15  H11 PAX d         -29.765 -29.754  16.217  0.00  0.00     0.092 H 
ATOM     16  H7  PAX d         -32.042 -29.959  14.434  0.00  0.00     0.090 H 
BRANCH  10  17
ATOM     17  N9A PAX d         -32.602 -26.109  16.117  0.00  0.00    -0.294 N 
ATOM     18  C4A PAX d         -32.931 -25.785  17.428  0.00  0.00     0.167 A 
ATOM     19  N3A PAX d         -32.700 -26.522  18.560  0.00  0.00    -0.222 NA
ATOM     20  C5A PAX d         -33.557 -24.521  17.361  0.00  0.00     0.149 A 
ATOM     21  C2A PAX d         -33.159 -25.890  19.685  0.00  0.00     0.091 A 
ATOM     22  N1A PAX d         -33.782 -24.673  19.770  0.00  0.00    -0.222 NA
ATOM     23  H1  PAX d         -33.011 -26.417  20.621  0.00  0.00     0.146 H 
ATOM     24  C6A PAX d         -33.998 -23.956  18.613  0.00  0.00     0.155 A 
ATOM     25  N6A PAX d         -34.601 -22.774  18.713  0.00  0.00    -0.382 N 
ATOM     26  H2  PAX d         -34.778 -22.213  17.868  0.00  0.00     0.157 HD
ATOM     27  H3  PAX d         -34.892 -22.420  19.636  0.00  0.00     0.157 HD
ATOM     28  N7A PAX d         -33.619 -24.073  16.050  0.00  0.00    -0.236 NA
ATOM     29  C8A PAX d         -33.047 -25.038  15.358  0.00  0.00     0.071 A 
ATOM     30  H4  PAX d         -32.931 -24.996  14.276  0.00  0.00     0.144 H 
ENDBRANCH  10  17
BRANCH  11  31
ATOM     31  O2  PAX d         -29.492 -26.818  15.613  0.00  0.00    -0.388 OA
ATOM     32  H10 PAX d         -29.096 -26.402  16.370  0.00  0.00     0.210 HD
ENDBRANCH  11  31
BRANCH  13  33
ATOM     33  O3  PAX d         -29.853 -29.187  14.207  0.00  0.00    -0.272 OA
BRANCH  33  34
ATOM     34  PG  PAX d         -28.912 -30.415  13.675  0.00  0.00     0.422 P 
ATOM     35  O1G PAX d         -28.393 -31.136  14.917  0.00  0.00    -0.617 OA
ATOM     36  O2G PAX d         -29.823 -31.275  12.810  0.00  0.00    -0.617 OA
ATOM     37  O3G PAX d         -27.754 -29.824  12.850  0.00  0.00    -0.617 OA
ENDBRANCH  33  34
ENDBRANCH  13  33
ENDBRANCH   5   8
ENDBRANCH   4   5
ENDBRANCH   1   4
BRANCH   1  38
ATOM     38  O3A PAX d         -30.359 -33.794  16.458  0.00  0.00    -0.180 OA
BRANCH  38  39
ATOM     39  PB  PAX d         -29.497 -34.693  15.487  0.00  0.00     0.418 P 
ATOM     40  O1B PAX d         -29.644 -36.105  15.889  0.00  0.00    -0.624 OA
ATOM     41  O2B PAX d         -29.831 -34.309  14.097  0.00  0.00    -0.624 OA
BRANCH  39  42
ATOM     42  O3  PAX d         -27.989 -34.129  15.717  0.00  0.00    -0.281 OA
BRANCH  42  43
ATOM     43  C3  PAX d         -27.252 -34.424  16.906  0.00  0.00     0.081 C 
ATOM     44  C4  PAX d         -27.091 -33.143  17.732  0.00  0.00     0.087 C 
ATOM     45  O4  PAX d         -25.705 -32.728  17.586  0.00  0.00    -0.356 OA
ATOM     46  H14 PAX d         -27.752 -32.368  17.318  0.00  0.00     0.090 H 
ATOM     47  C1  PAX d         -25.089 -33.493  16.570  0.00  0.00     0.116 C 
ATOM     48  C2  PAX d         -25.830 -34.824  16.548  0.00  0.00     0.003 C 
ATOM     49  H15 PAX d         -25.199 -32.992  15.597  0.00  0.00     0.118 H 
ATOM     50  H16 PAX d         -25.415 -35.520  17.292  0.00  0.00     0.043 H 
ATOM     51  H17 PAX d         -25.788 -35.285  15.550  0.00  0.00     0.043 H 
ATOM     52  H18 PAX d         -27.757 -35.215  17.482  0.00  0.00     0.088 H 
BRANCH  44  53
ATOM     53  C5  PAX d         -27.435 -33.320  19.203  0.00  0.00     0.059 C 
ATOM     54  H12 PAX d         -28.387 -33.865  19.288  0.00  0.00     0.079 H 
ATOM     55  H13 PAX d         -26.637 -33.898  19.693  0.00  0.00     0.079 H 
BRANCH  53  56
ATOM     56  O5  PAX d         -27.563 -32.035  19.860  0.00  0.00    -0.280 OA
BRANCH  56  57
ATOM     57  PD  PAX d         -28.605 -30.877  19.330  0.00  0.00     0.422 P 
ATOM     58  O1D PAX d         -28.720 -29.874  20.494  0.00  0.00    -0.617 OA
ATOM     59  O2D PAX d         -29.939 -31.596  19.025  0.00  0.00    -0.617 OA
ATOM     60  O3D PAX d         -27.957 -30.258  18.079  0.00  0.00    -0.617 OA
ENDBRANCH  56  57
ENDBRANCH  53  56
ENDBRANCH  44  53
BRANCH  47  61
ATOM     61  N1T PAX d         -23.627 -33.654  16.871  0.00  0.00    -0.282 N 
ATOM     62  C6T PAX d         -22.636 -33.537  15.863  0.00  0.00    -0.002 A 
ATOM     63  C5T PAX d         -21.313 -33.675  16.110  0.00  0.00     0.022 A 
ATOM     64  H19 PAX d         -22.956 -33.327  14.843  0.00  0.00     0.113 H 
ATOM     65  C4T PAX d         -20.871 -33.956  17.481  0.00  0.00     0.256 A 
ATOM     66  N3T PAX d         -21.901 -34.065  18.436  0.00  0.00    -0.275 N 
ATOM     67  O4T PAX d         -19.704 -34.091  17.854  0.00  0.00    -0.267 OA
ATOM     68  C2T PAX d         -23.270 -33.930  18.214  0.00  0.00     0.331 A 
ATOM     69  H20 PAX d         -21.619 -34.260  19.375  0.00  0.00     0.173 HD
ATOM     70  O2T PAX d         -24.079 -34.040  19.106  0.00  0.00    -0.246 OA
BRANCH  63  71
ATOM     71  CM5 PAX d         -20.326 -33.533  14.995  0.00  0.00    -0.045 C 
ATOM     72  H21 PAX d         -20.737 -33.985  14.081  0.00  0.00     0.033 H 
ATOM     73  H22 PAX d         -19.390 -34.043  15.267  0.00  0.00     0.033 H 
ATOM     74  H23 PAX d         -20.124 -32.466  14.818  0.00  0.00     0.033 H 
ENDBRANCH  63  71
ENDBRANCH  47  61
ENDBRANCH  42  43
ENDBRANCH  39  42
ENDBRANCH  38  39
ENDBRANCH   1  38
TORSDOF 16
ENDMDL
MODEL 3
REMARK VINA RESULT:      -5.1      1.724      2.328
REMARK  16 active torsions:
REMARK  status: ('A' for Active; 'I' for Inactive)
REMARK    1  A    between atoms: PA_1  and  O5_4 
REMARK    2  A    between atoms: O3A_8  and  PA_1 
REMARK    3  A    between atoms: O5_4  and  C5_23 
REMARK    4  A    between atoms: PB_5  and  O3A_8 
REMARK    5  A    between atoms: O3_38  and  PB_5 
REMARK    6  A    between atoms: O3_30  and  PG_9 
REMARK    7  A    between atoms: C1_26  and  N9A_13 
REMARK    8  A    between atoms: C5_23  and  C4_24 
REMARK    9  A    between atoms: C2_27  and  O2_28 
REMARK   10  A    between atoms: C3_29  and  O3_30 
REMARK   11  A    between atoms: C5_32  and  O5_31 
REMARK   12  A    between atoms: O5_31  and  PD_39 
REMARK   13  A    between atoms: C4_33  and  C5_32 
REMARK   14  A    between atoms: C1_35  and  N1T_43 
REMARK   15  A    between atoms: C3_37  and  O3_38 
REMARK   16  A    between atoms: C5T_50  and  CM5_51 
ROOT
ATOM      1  PA  PAX d         -32.697 -33.508  18.248  0.00  0.00     0.417 P 
ATOM      2  O1A PAX d         -32.592 -33.063  19.710  0.00  0.00    -0.624 OA
ATOM      3  O2A PAX d         -33.525 -34.770  17.982  0.00  0.00    -0.624 OA
ENDROOT
BRANCH   1   4
ATOM      4  O5  PAX d         -33.275 -32.338  17.333  0.00  0.00    -0.287 OA
BRANCH   4   5
ATOM      5  C5  PAX d         -34.516 -31.734  17.621  0.00  0.00     0.058 C 
ATOM      6  H5  PAX d         -34.519 -31.381  18.663  0.00  0.00     0.079 H 
ATOM      7  H6  PAX d         -35.322 -32.468  17.479  0.00  0.00     0.079 H 
BRANCH   5   8
ATOM      8  C4  PAX d         -34.731 -30.573  16.701  0.00  0.00     0.090 C 
ATOM      9  O4  PAX d         -34.553 -29.311  17.425  0.00  0.00    -0.353 OA
ATOM     10  C1  PAX d         -34.002 -28.368  16.531  0.00  0.00     0.140 C 
ATOM     11  C2  PAX d         -32.982 -29.222  15.752  0.00  0.00     0.106 C 
ATOM     12  H8  PAX d         -34.774 -28.031  15.824  0.00  0.00     0.122 H 
ATOM     13  C3  PAX d         -33.754 -30.530  15.524  0.00  0.00     0.107 C 
ATOM     14  H9  PAX d         -32.107 -29.421  16.388  0.00  0.00     0.093 H 
ATOM     15  H11 PAX d         -33.079 -31.398  15.509  0.00  0.00     0.092 H 
ATOM     16  H7  PAX d         -35.757 -30.632  16.310  0.00  0.00     0.090 H 
BRANCH  10  17
ATOM     17  N9A PAX d         -33.538 -27.149  17.262  0.00  0.00    -0.294 N 
ATOM     18  C4A PAX d         -33.372 -25.836  16.835  0.00  0.00     0.167 A 
ATOM     19  N3A PAX d         -33.604 -25.321  15.587  0.00  0.00    -0.222 NA
ATOM     20  C5A PAX d         -32.912 -25.125  17.965  0.00  0.00     0.149 A 
ATOM     21  C2A PAX d         -33.333 -23.980  15.526  0.00  0.00     0.091 A 
ATOM     22  N1A PAX d         -32.883 -23.167  16.534  0.00  0.00    -0.222 NA
ATOM     23  H1  PAX d         -33.494 -23.505  14.565  0.00  0.00     0.146 H 
ATOM     24  C6A PAX d         -32.661 -23.716  17.779  0.00  0.00     0.155 A 
ATOM     25  N6A PAX d         -32.228 -22.914  18.747  0.00  0.00    -0.382 N 
ATOM     26  H2  PAX d         -32.052 -23.291  19.689  0.00  0.00     0.157 HD
ATOM     27  H3  PAX d         -32.069 -21.914  18.556  0.00  0.00     0.157 HD
ATOM     28  N7A PAX d         -32.792 -25.967  19.060  0.00  0.00    -0.236 NA
ATOM     29  C8A PAX d         -33.171 -27.142  18.598  0.00  0.00     0.071 A 
ATOM     30  H4  PAX d         -33.194 -28.037  19.218  0.00  0.00     0.144 H 
ENDBRANCH  10  17
BRANCH  11  31
ATOM     31  O2  PAX d         -32.504 -28.598  14.567  0.00  0.00    -0.388 OA
ATOM     32  H10 PAX d         -31.843 -29.149  14.165  0.00  0.00     0.210 HD
ENDBRANCH  11  31
BRANCH  13  33
ATOM     33  O3  PAX d         -34.537 -30.477  14.329  0.00  0.00    -0.272 OA
BRANCH  33  34
ATOM     34  PG  PAX d         -34.951 -31.820  13.492  0.00  0.00     0.422 P 
ATOM     35  O1G PAX d         -35.774 -32.688  14.441  0.00  0.00    -0.617 OA
ATOM     36  O2G PAX d         -35.739 -31.319  12.290  0.00  0.00    -0.617 OA
ATOM     37  O3G PAX d         -33.663 -32.542  13.054  0.00  0.00    -0.617 OA
ENDBRANCH  33  34
ENDBRANCH  13  33
ENDBRANCH   5   8
ENDBRANCH   4   5
ENDBRANCH   1   4
BRANCH   1  38
ATOM     38  O3A PAX d         -31.250 -33.693  17.629  0.00  0.00    -0.180 OA
BRANCH  38  39
ATOM     39  PB  PAX d         -30.716 -34.155  16.217  0.00  0.00     0.418 P 
ATOM     40  O1B PAX d         -30.709 -35.630  16.170  0.00  0.00    -0.624 OA
ATOM     41  O2B PAX d         -31.469 -33.412  15.182  0.00  0.00    -0.624 OA
BRANCH  39  42
ATOM     42  O3  PAX d         -29.219 -33.519  16.171  0.00  0.00    -0.281 OA
BRANCH  42  43
ATOM     43  C3  PAX d         -28.403 -33.441  17.342  0.00  0.00     0.081 C 
ATOM     44  C4  PAX d         -27.858 -32.015  17.485  0.00  0.00     0.087 C 
ATOM     45  O4  PAX d         -26.450 -32.073  17.125  0.00  0.00    -0.356 OA
ATOM     46  H14 PAX d         -28.390 -31.360  16.780  0.00  0.00     0.090 H 
ATOM     47  C1  PAX d         -26.161 -33.334  16.557  0.00  0.00     0.116 C 
ATOM     48  C2  PAX d         -27.164 -34.303  17.168  0.00  0.00     0.003 C 
ATOM     49  H15 PAX d         -26.297 -33.299  15.465  0.00  0.00     0.118 H 
ATOM     50  H16 PAX d         -26.807 -34.684  18.136  0.00  0.00     0.043 H 
ATOM     51  H17 PAX d         -27.361 -35.148  16.492  0.00  0.00     0.043 H 
ATOM     52  H18 PAX d         -28.979 -33.743  18.230  0.00  0.00     0.088 H 
BRANCH  44  53
ATOM     53  C5  PAX d         -28.021 -31.438  18.882  0.00  0.00     0.059 C 
ATOM     54  H12 PAX d         -28.780 -32.020  19.426  0.00  0.00     0.079 H 
ATOM     55  H13 PAX d         -27.060 -31.501  19.413  0.00  0.00     0.079 H 
BRANCH  53  56
ATOM     56  O5  PAX d         -28.440 -30.052  18.821  0.00  0.00    -0.280 OA
BRANCH  56  57
ATOM     57  PD  PAX d         -29.721 -29.561  17.911  0.00  0.00     0.422 P 
ATOM     58  O1D PAX d         -30.933 -30.326  18.475  0.00  0.00    -0.617 OA
ATOM     59  O2D PAX d         -29.395 -29.949  16.451  0.00  0.00    -0.617 OA
ATOM     60  O3D PAX d         -29.834 -28.040  18.117  0.00  0.00    -0.617 OA
ENDBRANCH  56  57
ENDBRANCH  53  56
ENDBRANCH  44  53
BRANCH  47  61
ATOM     61  N1T PAX d         -24.739 -33.712  16.857  0.00  0.00    -0.282 N 
ATOM     62  C6T PAX d         -23.747 -33.765  15.845  0.00  0.00    -0.002 A 
ATOM     63  C5T PAX d         -22.459 -34.100  16.091  0.00  0.00     0.022 A 
ATOM     64  H19 PAX d         -24.035 -33.524  14.823  0.00  0.00     0.113 H 
ATOM     65  C4T PAX d         -22.059 -34.423  17.465  0.00  0.00     0.256 A 
ATOM     66  N3T PAX d         -23.089 -34.357  18.425  0.00  0.00    -0.275 N 
ATOM     67  O4T PAX d         -20.924 -34.729  17.838  0.00  0.00    -0.267 OA
ATOM     68  C2T PAX d         -24.422 -34.017  18.203  0.00  0.00     0.331 A 
ATOM     69  H20 PAX d         -22.835 -34.578  19.367  0.00  0.00     0.173 HD
ATOM     70  O2T PAX d         -25.233 -33.987  19.100  0.00  0.00    -0.246 OA
BRANCH  63  71
ATOM     71  CM5 PAX d         -21.467 -34.129  14.972  0.00  0.00    -0.045 C 
ATOM     72  H21 PAX d         -21.995 -34.267  14.018  0.00  0.00     0.033 H 
ATOM     73  H22 PAX d         -20.764 -34.961  15.126  0.00  0.00     0.033 H 
ATOM     74  H23 PAX d         -20.912 -33.179  14.949  0.00  0.00     0.033 H 
ENDBRANCH  63  71
ENDBRANCH  47  61
ENDBRANCH  42  43
ENDBRANCH  39  42
ENDBRANCH  38  39
ENDBRANCH   1  38
TORSDOF 16
ENDMDL
MODEL 4
REMARK VINA RESULT:      -4.7      4.112      8.814
REMARK  16 active torsions:
REMARK  status: ('A' for Active; 'I' for Inactive)
REMARK    1  A    between atoms: PA_1  and  O5_4 
REMARK    2  A    between atoms: O3A_8  and  PA_1 
REMARK    3  A    between atoms: O5_4  and  C5_23 
REMARK    4  A    between atoms: PB_5  and  O3A_8 
REMARK    5  A    between atoms: O3_38  and  PB_5 
REMARK    6  A    between atoms: O3_30  and  PG_9 
REMARK    7  A    between atoms: C1_26  and  N9A_13 
REMARK    8  A    between atoms: C5_23  and  C4_24 
REMARK    9  A    between atoms: C2_27  and  O2_28 
REMARK   10  A    between atoms: C3_29  and  O3_30 
REMARK   11  A    between atoms: C5_32  and  O5_31 
REMARK   12  A    between atoms: O5_31  and  PD_39 
REMARK   13  A    between atoms: C4_33  and  C5_32 
REMARK   14  A    between atoms: C1_35  and  N1T_43 
REMARK   15  A    between atoms: C3_37  and  O3_38 
REMARK   16  A    between atoms: C5T_50  and  CM5_51 
ROOT
ATOM      1  PA  PAX d         -29.052 -27.282  13.476  0.00  0.00     0.417 P 
ATOM      2  O1A PAX d         -30.501 -27.225  12.984  0.00  0.00    -0.624 OA
ATOM      3  O2A PAX d         -27.976 -26.861  12.470  0.00  0.00    -0.624 OA
ENDROOT
BRANCH   1   4
ATOM      4  O5  PAX d         -28.861 -26.409  14.797  0.00  0.00    -0.287 OA
BRANCH   4   5
ATOM      5  C5  PAX d         -29.895 -25.578  15.276  0.00  0.00     0.058 C 
ATOM      6  H5  PAX d         -30.454 -25.162  14.425  0.00  0.00     0.079 H 
ATOM      7  H6  PAX d         -29.462 -24.758  15.867  0.00  0.00     0.079 H 
BRANCH   5   8
ATOM      8  C4  PAX d         -30.820 -26.379  16.137  0.00  0.00     0.090 C 
ATOM      9  O4  PAX d         -30.157 -27.604  16.594  0.00  0.00    -0.353 OA
ATOM     10  C1  PAX d         -30.636 -27.904  17.886  0.00  0.00     0.140 C 
ATOM     11  C2  PAX d         -30.705 -26.509  18.536  0.00  0.00     0.106 C 
ATOM     12  H8  PAX d         -31.660 -28.300  17.821  0.00  0.00     0.122 H 
ATOM     13  C3  PAX d         -31.275 -25.645  17.400  0.00  0.00     0.107 C 
ATOM     14  H9  PAX d         -29.690 -26.165  18.780  0.00  0.00     0.093 H 
ATOM     15  H11 PAX d         -30.892 -24.615  17.447  0.00  0.00     0.092 H 
ATOM     16  H7  PAX d         -31.705 -26.640  15.538  0.00  0.00     0.090 H 
BRANCH  10  17
ATOM     17  N9A PAX d         -29.810 -28.975  18.526  0.00  0.00    -0.294 N 
ATOM     18  C4A PAX d         -29.785 -30.351  18.328  0.00  0.00     0.167 A 
ATOM     19  N3A PAX d         -30.545 -31.090  17.459  0.00  0.00    -0.222 NA
ATOM     20  C5A PAX d         -28.801 -30.844  19.212  0.00  0.00     0.149 A 
ATOM     21  C2A PAX d         -30.251 -32.426  17.529  0.00  0.00     0.091 A 
ATOM     22  N1A PAX d         -29.329 -33.042  18.334  0.00  0.00    -0.222 NA
ATOM     23  H1  PAX d         -30.817 -33.073  16.869  0.00  0.00     0.146 H 
ATOM     24  C6A PAX d         -28.579 -32.270  19.196  0.00  0.00     0.155 A 
ATOM     25  N6A PAX d         -27.686 -32.882  19.967  0.00  0.00    -0.382 N 
ATOM     26  H2  PAX d         -27.109 -32.335  20.622  0.00  0.00     0.157 HD
ATOM     27  H3  PAX d         -27.570 -33.905  19.910  0.00  0.00     0.157 HD
ATOM     28  N7A PAX d         -28.232 -29.809  19.940  0.00  0.00    -0.236 NA
ATOM     29  C8A PAX d         -28.856 -28.734  19.502  0.00  0.00     0.071 A 
ATOM     30  H4  PAX d         -28.639 -27.735  19.877  0.00  0.00     0.144 H 
ENDBRANCH  10  17
BRANCH  11  31
ATOM     31  O2  PAX d         -31.458 -26.478  19.742  0.00  0.00    -0.388 OA
ATOM     32  H10 PAX d         -32.078 -27.199  19.746  0.00  0.00     0.210 HD
ENDBRANCH  11  31
BRANCH  13  33
ATOM     33  O3  PAX d         -32.705 -25.654  17.400  0.00  0.00    -0.272 OA
BRANCH  33  34
ATOM     34  PG  PAX d         -33.589 -24.397  17.962  0.00  0.00     0.422 P 
ATOM     35  O1G PAX d         -34.952 -24.483  17.278  0.00  0.00    -0.617 OA
ATOM     36  O2G PAX d         -33.653 -24.592  19.470  0.00  0.00    -0.617 OA
ATOM     37  O3G PAX d         -32.866 -23.087  17.598  0.00  0.00    -0.617 OA
ENDBRANCH  33  34
ENDBRANCH  13  33
ENDBRANCH   5   8
ENDBRANCH   4   5
ENDBRANCH   1   4
BRANCH   1  38
ATOM     38  O3A PAX d         -28.718 -28.733  14.021  0.00  0.00    -0.180 OA
BRANCH  38  39
ATOM     39  PB  PAX d         -28.631 -30.159  13.350  0.00  0.00     0.418 P 
ATOM     40  O1B PAX d         -27.536 -30.154  12.360  0.00  0.00    -0.624 OA
ATOM     41  O2B PAX d         -28.609 -31.169  14.432  0.00  0.00    -0.624 OA
BRANCH  39  42
ATOM     42  O3  PAX d         -30.096 -30.326  12.663  0.00  0.00    -0.281 OA
BRANCH  42  43
ATOM     43  C3  PAX d         -31.161 -31.009  13.329  0.00  0.00     0.081 C 
ATOM     44  C4  PAX d         -32.439 -30.892  12.490  0.00  0.00     0.087 C 
ATOM     45  O4  PAX d         -33.299 -29.941  13.177  0.00  0.00    -0.356 OA
ATOM     46  H14 PAX d         -32.176 -30.499  11.498  0.00  0.00     0.090 H 
ATOM     47  C1  PAX d         -32.569 -29.303  14.205  0.00  0.00     0.116 C 
ATOM     48  C2  PAX d         -31.497 -30.299  14.630  0.00  0.00     0.003 C 
ATOM     49  H15 PAX d         -32.093 -28.388  13.823  0.00  0.00     0.118 H 
ATOM     50  H16 PAX d         -31.887 -31.006  15.377  0.00  0.00     0.043 H 
ATOM     51  H17 PAX d         -30.616 -29.782  15.039  0.00  0.00     0.043 H 
ATOM     52  H18 PAX d         -30.889 -32.060  13.506  0.00  0.00     0.088 H 
BRANCH  44  53
ATOM     53  C5  PAX d         -33.164 -32.215  12.299  0.00  0.00     0.059 C 
ATOM     54  H12 PAX d         -34.172 -32.020  11.903  0.00  0.00     0.079 H 
ATOM     55  H13 PAX d         -32.602 -32.834  11.584  0.00  0.00     0.079 H 
BRANCH  53  56
ATOM     56  O5  PAX d         -33.277 -32.926  13.556  0.00  0.00    -0.280 OA
BRANCH  56  57
ATOM     57  PD  PAX d         -34.733 -33.329  14.210  0.00  0.00     0.422 P 
ATOM     58  O1D PAX d         -34.485 -33.407  15.729  0.00  0.00    -0.617 OA
ATOM     59  O2D PAX d         -35.125 -34.693  13.598  0.00  0.00    -0.617 OA
ATOM     60  O3D PAX d         -35.702 -32.197  13.827  0.00  0.00    -0.617 OA
ENDBRANCH  56  57
ENDBRANCH  53  56
ENDBRANCH  44  53
BRANCH  47  61
ATOM     61  N1T PAX d         -33.492 -28.937  15.331  0.00  0.00    -0.282 N 
ATOM     62  C6T PAX d         -33.804 -29.850  16.372  0.00  0.00    -0.002 A 
ATOM     63  C5T PAX d         -34.631 -29.543  17.399  0.00  0.00     0.022 A 
ATOM     64  H19 PAX d         -33.357 -30.842  16.343  0.00  0.00     0.113 H 
ATOM     65  C4T PAX d         -35.236 -28.208  17.449  0.00  0.00     0.256 A 
ATOM     66  N3T PAX d         -34.892 -27.349  16.386  0.00  0.00    -0.275 N 
ATOM     67  O4T PAX d         -35.993 -27.786  18.327  0.00  0.00    -0.267 OA
ATOM     68  C2T PAX d         -34.047 -27.635  15.316  0.00  0.00     0.331 A 
ATOM     69  H20 PAX d         -35.299 -26.435  16.402  0.00  0.00     0.173 HD
ATOM     70  O2T PAX d         -33.812 -26.824  14.449  0.00  0.00    -0.246 OA
BRANCH  63  71
ATOM     71  CM5 PAX d         -34.908 -30.556  18.464  0.00  0.00    -0.045 C 
ATOM     72  H21 PAX d         -33.979 -31.090  18.712  0.00  0.00     0.033 H 
ATOM     73  H22 PAX d         -35.657 -31.275  18.100  0.00  0.00     0.033 H 
ATOM     74  H23 PAX d         -35.290 -30.050  19.362  0.00  0.00     0.033 H 
ENDBRANCH  63  71
ENDBRANCH  47  61
ENDBRANCH  42  43
ENDBRANCH  39  42
ENDBRANCH  38  39
ENDBRANCH   1  38
TORSDOF 16
ENDMDL
MODEL 5
REMARK VINA RESULT:      -4.1      2.702     11.206
REMARK  16 active torsions:
REMARK  status: ('A' for Active; 'I' for Inactive)
REMARK    1  A    between atoms: PA_1  and  O5_4 
REMARK    2  A    between atoms: O3A_8  and  PA_1 
REMARK    3  A    between atoms: O5_4  and  C5_23 
REMARK    4  A    between atoms: PB_5  and  O3A_8 
REMARK    5  A    between atoms: O3_38  and  PB_5 
REMARK    6  A    between atoms: O3_30  and  PG_9 
REMARK    7  A    between atoms: C1_26  and  N9A_13 
REMARK    8  A    between atoms: C5_23  and  C4_24 
REMARK    9  A    between atoms: C2_27  and  O2_28 
REMARK   10  A    between atoms: C3_29  and  O3_30 
REMARK   11  A    between atoms: C5_32  and  O5_31 
REMARK   12  A    between atoms: O5_31  and  PD_39 
REMARK   13  A    between atoms: C4_33  and  C5_32 
REMARK   14  A    between atoms: C1_35  and  N1T_43 
REMARK   15  A    between atoms: C3_37  and  O3_38 
REMARK   16  A    between atoms: C5T_50  and  CM5_51 
ROOT
ATOM      1  PA  PAX d         -30.494 -32.728  17.012  0.00  0.00     0.417 P 
ATOM      2  O1A PAX d         -31.688 -32.165  16.234  0.00  0.00    -0.624 OA
ATOM      3  O2A PAX d         -30.701 -34.092  17.678  0.00  0.00    -0.624 OA
ENDROOT
BRANCH   1   4
ATOM      4  O5  PAX d         -29.200 -32.823  16.085  0.00  0.00    -0.287 OA
BRANCH   4   5
ATOM      5  C5  PAX d         -28.064 -33.551  16.496  0.00  0.00     0.058 C 
ATOM      6  H5  PAX d         -28.258 -34.628  16.380  0.00  0.00     0.079 H 
ATOM      7  H6  PAX d         -27.847 -33.328  17.551  0.00  0.00     0.079 H 
BRANCH   5   8
ATOM      8  C4  PAX d         -26.891 -33.162  15.652  0.00  0.00     0.090 C 
ATOM      9  O4  PAX d         -25.649 -33.280  16.422  0.00  0.00    -0.353 OA
ATOM     10  C1  PAX d         -24.623 -33.673  15.538  0.00  0.00     0.140 C 
ATOM     11  C2  PAX d         -25.343 -34.703  14.646  0.00  0.00     0.106 C 
ATOM     12  H8  PAX d         -24.330 -32.822  14.906  0.00  0.00     0.122 H 
ATOM     13  C3  PAX d         -26.707 -34.037  14.411  0.00  0.00     0.107 C 
ATOM     14  H9  PAX d         -25.486 -35.638  15.206  0.00  0.00     0.093 H 
ATOM     15  H11 PAX d         -27.507 -34.785  14.304  0.00  0.00     0.092 H 
ATOM     16  H7  PAX d         -27.030 -32.118  15.334  0.00  0.00     0.090 H 
BRANCH  10  17
ATOM     17  N9A PAX d         -23.396 -34.079  16.291  0.00  0.00    -0.294 N 
ATOM     18  C4A PAX d         -22.105 -34.351  15.856  0.00  0.00     0.167 A 
ATOM     19  N3A PAX d         -21.622 -34.309  14.574  0.00  0.00    -0.222 NA
ATOM     20  C5A PAX d         -21.373 -34.680  17.019  0.00  0.00     0.149 A 
ATOM     21  C2A PAX d         -20.293 -34.636  14.515  0.00  0.00     0.091 A 
ATOM     22  N1A PAX d         -19.464 -34.975  15.553  0.00  0.00    -0.222 NA
ATOM     23  H1  PAX d         -19.844 -34.624  13.529  0.00  0.00     0.146 H 
ATOM     24  C6A PAX d         -19.980 -35.007  16.831  0.00  0.00     0.155 A 
ATOM     25  N6A PAX d         -19.162 -35.334  17.827  0.00  0.00    -0.382 N 
ATOM     26  H2  PAX d         -19.515 -35.367  18.794  0.00  0.00     0.157 HD
ATOM     27  H3  PAX d         -18.175 -35.555  17.632  0.00  0.00     0.157 HD
ATOM     28  N7A PAX d         -22.184 -34.619  18.142  0.00  0.00    -0.236 NA
ATOM     29  C8A PAX d         -23.360 -34.262  17.665  0.00  0.00     0.071 A 
ATOM     30  H4  PAX d         -24.234 -34.121  18.299  0.00  0.00     0.144 H 
ENDBRANCH  10  17
BRANCH  11  31
ATOM     31  O2  PAX d         -24.628 -35.029  13.461  0.00  0.00    -0.388 OA
ATOM     32  H10 PAX d         -24.539 -35.973  13.396  0.00  0.00     0.210 HD
ENDBRANCH  11  31
BRANCH  13  33
ATOM     33  O3  PAX d         -26.677 -33.163  13.279  0.00  0.00    -0.272 OA
BRANCH  33  34
ATOM     34  PG  PAX d         -26.382 -31.560  13.418  0.00  0.00     0.422 P 
ATOM     35  O1G PAX d         -27.145 -30.877  12.285  0.00  0.00    -0.617 OA
ATOM     36  O2G PAX d         -26.882 -31.177  14.804  0.00  0.00    -0.617 OA
ATOM     37  O3G PAX d         -24.865 -31.328  13.286  0.00  0.00    -0.617 OA
ENDBRANCH  33  34
ENDBRANCH  13  33
ENDBRANCH   5   8
ENDBRANCH   4   5
ENDBRANCH   1   4
BRANCH   1  38
ATOM     38  O3A PAX d         -30.011 -31.683  18.101  0.00  0.00    -0.180 OA
BRANCH  38  39
ATOM     39  PB  PAX d         -29.357 -30.248  18.026  0.00  0.00     0.418 P 
ATOM     40  O1B PAX d         -28.286 -30.159  19.038  0.00  0.00    -0.624 OA
ATOM     41  O2B PAX d         -29.024 -29.976  16.610  0.00  0.00    -0.624 OA
BRANCH  39  42
ATOM     42  O3  PAX d         -30.610 -29.262  18.349  0.00  0.00    -0.281 OA
BRANCH  42  43
ATOM     43  C3  PAX d         -31.286 -28.548  17.312  0.00  0.00     0.081 C 
ATOM     44  C4  PAX d         -30.399 -27.392  16.833  0.00  0.00     0.087 C 
ATOM     45  O4  PAX d         -30.988 -26.172  17.361  0.00  0.00    -0.356 OA
ATOM     46  H14 PAX d         -29.390 -27.524  17.251  0.00  0.00     0.090 H 
ATOM     47  C1  PAX d         -31.992 -26.501  18.299  0.00  0.00     0.116 C 
ATOM     48  C2  PAX d         -32.522 -27.865  17.875  0.00  0.00     0.003 C 
ATOM     49  H15 PAX d         -31.563 -26.568  19.309  0.00  0.00     0.118 H 
ATOM     50  H16 PAX d         -33.303 -27.766  17.107  0.00  0.00     0.043 H 
ATOM     51  H17 PAX d         -32.922 -28.420  18.737  0.00  0.00     0.043 H 
ATOM     52  H18 PAX d         -31.545 -29.226  16.486  0.00  0.00     0.088 H 
BRANCH  44  53
ATOM     53  C5  PAX d         -30.276 -27.306  15.320  0.00  0.00     0.059 C 
ATOM     54  H12 PAX d         -30.319 -28.321  14.896  0.00  0.00     0.079 H 
ATOM     55  H13 PAX d         -31.110 -26.708  14.924  0.00  0.00     0.079 H 
BRANCH  53  56
ATOM     56  O5  PAX d         -29.024 -26.685  14.940  0.00  0.00    -0.280 OA
BRANCH  56  57
ATOM     57  PD  PAX d         -28.964 -25.307  14.040  0.00  0.00     0.422 P 
ATOM     58  O1D PAX d         -30.400 -24.748  14.063  0.00  0.00    -0.617 OA
ATOM     59  O2D PAX d         -28.509 -25.728  12.624  0.00  0.00    -0.617 OA
ATOM     60  O3D PAX d         -27.958 -24.379  14.744  0.00  0.00    -0.617 OA
ENDBRANCH  56  57
ENDBRANCH  53  56
ENDBRANCH  44  53
BRANCH  47  61
ATOM     61  N1T PAX d         -33.058 -25.444  18.293  0.00  0.00    -0.282 N 
ATOM     62  C6T PAX d         -33.374 -24.704  17.124  0.00  0.00    -0.002 A 
ATOM     63  C5T PAX d         -34.332 -23.748  17.093  0.00  0.00     0.022 A 
ATOM     64  H19 PAX d         -32.820 -24.915  16.211  0.00  0.00     0.113 H 
ATOM     65  C4T PAX d         -35.086 -23.457  18.317  0.00  0.00     0.256 A 
ATOM     66  N3T PAX d         -34.724 -24.221  19.444  0.00  0.00    -0.275 N 
ATOM     67  O4T PAX d         -35.992 -22.628  18.432  0.00  0.00    -0.267 OA
ATOM     68  C2T PAX d         -33.744 -25.209  19.509  0.00  0.00     0.331 A 
ATOM     69  H20 PAX d         -35.225 -24.033  20.289  0.00  0.00     0.173 HD
ATOM     70  O2T PAX d         -33.509 -25.813  20.531  0.00  0.00    -0.246 OA
BRANCH  63  71
ATOM     71  CM5 PAX d         -34.612 -23.013  15.820  0.00  0.00    -0.045 C 
ATOM     72  H21 PAX d         -35.363 -23.565  15.237  0.00  0.00     0.033 H 
ATOM     73  H22 PAX d         -33.685 -22.927  15.234  0.00  0.00     0.033 H 
ATOM     74  H23 PAX d         -34.994 -22.009  16.053  0.00  0.00     0.033 H 
ENDBRANCH  63  71
ENDBRANCH  47  61
ENDBRANCH  42  43
ENDBRANCH  39  42
ENDBRANCH  38  39
ENDBRANCH   1  38
TORSDOF 16
ENDMDL
MODEL 6
REMARK VINA RESULT:      -3.7      3.277      8.615
REMARK  16 active torsions:
REMARK  status: ('A' for Active; 'I' for Inactive)
REMARK    1  A    between atoms: PA_1  and  O5_4 
REMARK    2  A    between atoms: O3A_8  and  PA_1 
REMARK    3  A    between atoms: O5_4  and  C5_23 
REMARK    4  A    between atoms: PB_5  and  O3A_8 
REMARK    5  A    between atoms: O3_38  and  PB_5 
REMARK    6  A    between atoms: O3_30  and  PG_9 
REMARK    7  A    between atoms: C1_26  and  N9A_13 
REMARK    8  A    between atoms: C5_23  and  C4_24 
REMARK    9  A    between atoms: C2_27  and  O2_28 
REMARK   10  A    between atoms: C3_29  and  O3_30 
REMARK   11  A    between atoms: C5_32  and  O5_31 
REMARK   12  A    between atoms: O5_31  and  PD_39 
REMARK   13  A    between atoms: C4_33  and  C5_32 
REMARK   14  A    between atoms: C1_35  and  N1T_43 
REMARK   15  A    between atoms: C3_37  and  O3_38 
REMARK   16  A    between atoms: C5T_50  and  CM5_51 
ROOT
ATOM      1  PA  PAX d         -28.651 -31.919  17.359  0.00  0.00     0.417 P 
ATOM      2  O1A PAX d         -28.871 -32.777  18.608  0.00  0.00    -0.624 OA
ATOM      3  O2A PAX d         -28.640 -30.401  17.571  0.00  0.00    -0.624 OA
ENDROOT
BRANCH   1   4
ATOM      4  O5  PAX d         -27.299 -32.323  16.617  0.00  0.00    -0.287 OA
BRANCH   4   5
ATOM      5  C5  PAX d         -27.228 -33.478  15.811  0.00  0.00     0.058 C 
ATOM      6  H5  PAX d         -28.176 -34.032  15.881  0.00  0.00     0.079 H 
ATOM      7  H6  PAX d         -26.403 -34.117  16.159  0.00  0.00     0.079 H 
BRANCH   5   8
ATOM      8  C4  PAX d         -26.986 -33.080  14.389  0.00  0.00     0.090 C 
ATOM      9  O4  PAX d         -27.909 -32.012  13.995  0.00  0.00    -0.353 OA
ATOM     10  C1  PAX d         -27.240 -31.171  13.081  0.00  0.00     0.140 C 
ATOM     11  C2  PAX d         -25.827 -31.092  13.691  0.00  0.00     0.106 C 
ATOM     12  H8  PAX d         -27.161 -31.672  12.105  0.00  0.00     0.122 H 
ATOM     13  C3  PAX d         -25.577 -32.542  14.132  0.00  0.00     0.107 C 
ATOM     14  H9  PAX d         -25.844 -30.440  14.577  0.00  0.00     0.093 H 
ATOM     15  H11 PAX d         -24.941 -32.586  15.028  0.00  0.00     0.092 H 
ATOM     16  H7  PAX d         -27.151 -33.963  13.754  0.00  0.00     0.090 H 
BRANCH  10  17
ATOM     17  N9A PAX d         -28.014 -29.913  12.847  0.00  0.00    -0.294 N 
ATOM     18  C4A PAX d         -29.372 -29.641  12.968  0.00  0.00     0.167 A 
ATOM     19  N3A PAX d         -30.372 -30.497  13.348  0.00  0.00    -0.222 NA
ATOM     20  C5A PAX d         -29.518 -28.279  12.620  0.00  0.00     0.149 A 
ATOM     21  C2A PAX d         -31.597 -29.883  13.357  0.00  0.00     0.091 A 
ATOM     22  N1A PAX d         -31.886 -28.580  13.045  0.00  0.00    -0.222 NA
ATOM     23  H1  PAX d         -32.437 -30.503  13.648  0.00  0.00     0.146 H 
ATOM     24  C6A PAX d         -30.857 -27.744  12.668  0.00  0.00     0.155 A 
ATOM     25  N6A PAX d         -31.154 -26.482  12.371  0.00  0.00    -0.382 N 
ATOM     26  H2  PAX d         -30.409 -25.831  12.087  0.00  0.00     0.157 HD
ATOM     27  H3  PAX d         -32.130 -26.156  12.427  0.00  0.00     0.157 HD
ATOM     28  N7A PAX d         -28.291 -27.723  12.290  0.00  0.00    -0.236 NA
ATOM     29  C8A PAX d         -27.441 -28.719  12.439  0.00  0.00     0.071 A 
ATOM     30  H4  PAX d         -26.373 -28.613  12.256  0.00  0.00     0.144 H 
ENDBRANCH  10  17
BRANCH  11  31
ATOM     31  O2  PAX d         -24.851 -30.563  12.802  0.00  0.00    -0.388 OA
ATOM     32  H10 PAX d         -24.872 -31.049  11.985  0.00  0.00     0.210 HD
ENDBRANCH  11  31
BRANCH  13  33
ATOM     33  O3  PAX d         -25.014 -33.323  13.074  0.00  0.00    -0.272 OA
BRANCH  33  34
ATOM     34  PG  PAX d         -23.838 -34.430  13.333  0.00  0.00     0.422 P 
ATOM     35  O1G PAX d         -23.625 -34.494  14.843  0.00  0.00    -0.617 OA
ATOM     36  O2G PAX d         -24.370 -35.728  12.739  0.00  0.00    -0.617 OA
ATOM     37  O3G PAX d         -22.560 -33.967  12.609  0.00  0.00    -0.617 OA
ENDBRANCH  33  34
ENDBRANCH  13  33
ENDBRANCH   5   8
ENDBRANCH   4   5
ENDBRANCH   1   4
BRANCH   1  38
ATOM     38  O3A PAX d         -29.726 -32.283  16.251  0.00  0.00    -0.180 OA
BRANCH  38  39
ATOM     39  PB  PAX d         -31.015 -33.194  16.236  0.00  0.00     0.418 P 
ATOM     40  O1B PAX d         -30.932 -34.118  15.089  0.00  0.00    -0.624 OA
ATOM     41  O2B PAX d         -31.188 -33.757  17.594  0.00  0.00    -0.624 OA
BRANCH  39  42
ATOM     42  O3  PAX d         -32.220 -32.112  16.084  0.00  0.00    -0.281 OA
BRANCH  42  43
ATOM     43  C3  PAX d         -32.770 -31.441  17.220  0.00  0.00     0.081 C 
ATOM     44  C4  PAX d         -34.287 -31.308  17.043  0.00  0.00     0.087 C 
ATOM     45  O4  PAX d         -34.547 -29.912  16.729  0.00  0.00    -0.356 OA
ATOM     46  H14 PAX d         -34.602 -31.938  16.198  0.00  0.00     0.090 H 
ATOM     47  C1  PAX d         -33.324 -29.253  16.467  0.00  0.00     0.116 C 
ATOM     48  C2  PAX d         -32.269 -30.007  17.267  0.00  0.00     0.003 C 
ATOM     49  H15 PAX d         -33.085 -29.307  15.394  0.00  0.00     0.118 H 
ATOM     50  H16 PAX d         -32.219 -29.638  18.302  0.00  0.00     0.043 H 
ATOM     51  H17 PAX d         -31.278 -29.918  16.797  0.00  0.00     0.043 H 
ATOM     52  H18 PAX d         -32.518 -31.983  18.143  0.00  0.00     0.088 H 
BRANCH  44  53
ATOM     53  C5  PAX d         -35.082 -31.728  18.269  0.00  0.00     0.059 C 
ATOM     54  H12 PAX d         -35.525 -30.835  18.735  0.00  0.00     0.079 H 
ATOM     55  H13 PAX d         -35.882 -32.417  17.962  0.00  0.00     0.079 H 
BRANCH  53  56
ATOM     56  O5  PAX d         -34.228 -32.393  19.233  0.00  0.00    -0.280 OA
BRANCH  56  57
ATOM     57  PD  PAX d         -34.469 -33.957  19.688  0.00  0.00     0.422 P 
ATOM     58  O1D PAX d         -33.227 -34.330  20.521  0.00  0.00    -0.617 OA
ATOM     59  O2D PAX d         -34.584 -34.780  18.385  0.00  0.00    -0.617 OA
ATOM     60  O3D PAX d         -35.763 -33.966  20.521  0.00  0.00    -0.617 OA
ENDBRANCH  56  57
ENDBRANCH  53  56
ENDBRANCH  44  53
BRANCH  47  61
ATOM     61  N1T PAX d         -33.429 -27.810  16.869  0.00  0.00    -0.282 N 
ATOM     62  C6T PAX d         -32.802 -27.311  18.040  0.00  0.00    -0.002 A 
ATOM     63  C5T PAX d         -32.880 -26.015  18.423  0.00  0.00     0.022 A 
ATOM     64  H19 PAX d         -32.234 -28.003  18.660  0.00  0.00     0.113 H 
ATOM     65  C4T PAX d         -33.641 -25.074  17.594  0.00  0.00     0.256 A 
ATOM     66  N3T PAX d         -34.243 -25.630  16.447  0.00  0.00    -0.275 N 
ATOM     67  O4T PAX d         -33.784 -23.868  17.810  0.00  0.00    -0.267 OA
ATOM     68  C2T PAX d         -34.183 -26.957  16.028  0.00  0.00     0.331 A 
ATOM     69  H20 PAX d         -34.770 -25.003  15.873  0.00  0.00     0.173 HD
ATOM     70  O2T PAX d         -34.736 -27.337  15.021  0.00  0.00    -0.246 OA
BRANCH  63  71
ATOM     71  CM5 PAX d         -32.188 -25.561  19.669  0.00  0.00    -0.045 C 
ATOM     72  H21 PAX d         -32.893 -24.995  20.294  0.00  0.00     0.033 H 
ATOM     73  H22 PAX d         -31.337 -24.916  19.401  0.00  0.00     0.033 H 
ATOM     74  H23 PAX d         -31.824 -26.436  20.226  0.00  0.00     0.033 H 
ENDBRANCH  63  71
ENDBRANCH  47  61
ENDBRANCH  42  43
ENDBRANCH  39  42
ENDBRANCH  38  39
ENDBRANCH   1  38
TORSDOF 16
ENDMDL
MODEL 7
REMARK VINA RESULT:      -3.6      2.953     10.392
REMARK  16 active torsions:
REMARK  status: ('A' for Active; 'I' for Inactive)
REMARK    1  A    between atoms: PA_1  and  O5_4 
REMARK    2  A    between atoms: O3A_8  and  PA_1 
REMARK    3  A    between atoms: O5_4  and  C5_23 
REMARK    4  A    between atoms: PB_5  and  O3A_8 
REMARK    5  A    between atoms: O3_38  and  PB_5 
REMARK    6  A    between atoms: O3_30  and  PG_9 
REMARK    7  A    between atoms: C1_26  and  N9A_13 
REMARK    8  A    between atoms: C5_23  and  C4_24 
REMARK    9  A    between atoms: C2_27  and  O2_28 
REMARK   10  A    between atoms: C3_29  and  O3_30 
REMARK   11  A    between atoms: C5_32  and  O5_31 
REMARK   12  A    between atoms: O5_31  and  PD_39 
REMARK   13  A    between atoms: C4_33  and  C5_32 
REMARK   14  A    between atoms: C1_35  and  N1T_43 
REMARK   15  A    between atoms: C3_37  and  O3_38 
REMARK   16  A    between atoms: C5T_50  and  CM5_51 
ROOT
ATOM      1  PA  PAX d         -29.275 -30.068  14.857  0.00  0.00     0.417 P 
ATOM      2  O1A PAX d         -27.942 -30.783  15.092  0.00  0.00    -0.624 OA
ATOM      3  O2A PAX d         -29.234 -28.838  13.944  0.00  0.00    -0.624 OA
ENDROOT
BRANCH   1   4
ATOM      4  O5  PAX d         -30.371 -31.073  14.281  0.00  0.00    -0.287 OA
BRANCH   4   5
ATOM      5  C5  PAX d         -30.012 -32.114  13.400  0.00  0.00     0.058 C 
ATOM      6  H5  PAX d         -29.094 -31.837  12.861  0.00  0.00     0.079 H 
ATOM      7  H6  PAX d         -30.825 -32.281  12.679  0.00  0.00     0.079 H 
BRANCH   5   8
ATOM      8  C4  PAX d         -29.772 -33.368  14.181  0.00  0.00     0.090 C 
ATOM      9  O4  PAX d         -28.339 -33.670  14.231  0.00  0.00    -0.353 OA
ATOM     10  C1  PAX d         -28.063 -34.276  15.475  0.00  0.00     0.140 C 
ATOM     11  C2  PAX d         -28.941 -33.451  16.437  0.00  0.00     0.106 C 
ATOM     12  H8  PAX d         -28.438 -35.310  15.477  0.00  0.00     0.122 H 
ATOM     13  C3  PAX d         -30.241 -33.286  15.636  0.00  0.00     0.107 C 
ATOM     14  H9  PAX d         -28.484 -32.463  16.596  0.00  0.00     0.093 H 
ATOM     15  H11 PAX d         -30.736 -32.331  15.863  0.00  0.00     0.092 H 
ATOM     16  H7  PAX d         -30.306 -34.189  13.681  0.00  0.00     0.090 H 
BRANCH  10  17
ATOM     17  N9A PAX d         -26.589 -34.362  15.712  0.00  0.00    -0.294 N 
ATOM     18  C4A PAX d         -25.780 -33.756  16.666  0.00  0.00     0.167 A 
ATOM     19  N3A PAX d         -26.156 -32.897  17.665  0.00  0.00    -0.222 NA
ATOM     20  C5A PAX d         -24.470 -34.214  16.400  0.00  0.00     0.149 A 
ATOM     21  C2A PAX d         -25.089 -32.495  18.425  0.00  0.00     0.091 A 
ATOM     22  N1A PAX d         -23.774 -32.854  18.283  0.00  0.00    -0.222 NA
ATOM     23  H1  PAX d         -25.313 -31.811  19.235  0.00  0.00     0.146 H 
ATOM     24  C6A PAX d         -23.429 -33.721  17.269  0.00  0.00     0.155 A 
ATOM     25  N6A PAX d         -22.149 -34.063  17.147  0.00  0.00    -0.382 N 
ATOM     26  H2  PAX d         -21.857 -34.709  16.400  0.00  0.00     0.157 HD
ATOM     27  H3  PAX d         -21.449 -33.681  17.800  0.00  0.00     0.157 HD
ATOM     28  N7A PAX d         -24.464 -35.074  15.313  0.00  0.00    -0.236 NA
ATOM     29  C8A PAX d         -25.728 -35.130  14.945  0.00  0.00     0.071 A 
ATOM     30  H4  PAX d         -26.069 -35.732  14.104  0.00  0.00     0.144 H 
ENDBRANCH  10  17
BRANCH  11  31
ATOM     31  O2  PAX d         -29.101 -34.049  17.717  0.00  0.00    -0.388 OA
ATOM     32  H10 PAX d         -29.869 -33.684  18.142  0.00  0.00     0.210 HD
ENDBRANCH  11  31
BRANCH  13  33
ATOM     33  O3  PAX d         -31.134 -34.382  15.853  0.00  0.00    -0.272 OA
BRANCH  33  34
ATOM     34  PG  PAX d         -32.635 -34.180  16.471  0.00  0.00     0.422 P 
ATOM     35  O1G PAX d         -32.471 -34.084  17.986  0.00  0.00    -0.617 OA
ATOM     36  O2G PAX d         -33.164 -32.902  15.835  0.00  0.00    -0.617 OA
ATOM     37  O3G PAX d         -33.494 -35.397  16.081  0.00  0.00    -0.617 OA
ENDBRANCH  33  34
ENDBRANCH  13  33
ENDBRANCH   5   8
ENDBRANCH   4   5
ENDBRANCH   1   4
BRANCH   1  38
ATOM     38  O3A PAX d         -29.931 -29.667  16.244  0.00  0.00    -0.180 OA
BRANCH  38  39
ATOM     39  PB  PAX d         -31.417 -29.587  16.768  0.00  0.00     0.418 P 
ATOM     40  O1B PAX d         -32.328 -29.519  15.610  0.00  0.00    -0.624 OA
ATOM     41  O2B PAX d         -31.607 -30.669  17.761  0.00  0.00    -0.624 OA
BRANCH  39  42
ATOM     42  O3  PAX d         -31.417 -28.218  17.648  0.00  0.00    -0.281 OA
BRANCH  42  43
ATOM     43  C3  PAX d         -31.178 -26.944  17.048  0.00  0.00     0.081 C 
ATOM     44  C4  PAX d         -31.737 -25.843  17.958  0.00  0.00     0.087 C 
ATOM     45  O4  PAX d         -32.946 -25.351  17.316  0.00  0.00    -0.356 OA
ATOM     46  H14 PAX d         -31.992 -26.285  18.932  0.00  0.00     0.090 H 
ATOM     47  C1  PAX d         -33.292 -26.205  16.245  0.00  0.00     0.116 C 
ATOM     48  C2  PAX d         -31.982 -26.817  15.764  0.00  0.00     0.003 C 
ATOM     49  H15 PAX d         -33.966 -27.001  16.595  0.00  0.00     0.118 H 
ATOM     50  H16 PAX d         -31.477 -26.156  15.044  0.00  0.00     0.043 H 
ATOM     51  H17 PAX d         -32.150 -27.801  15.303  0.00  0.00     0.043 H 
ATOM     52  H18 PAX d         -30.102 -26.804  16.861  0.00  0.00     0.088 H 
BRANCH  44  53
ATOM     53  C5  PAX d         -30.765 -24.699  18.197  0.00  0.00     0.059 C 
ATOM     54  H12 PAX d         -31.292 -23.743  18.058  0.00  0.00     0.079 H 
ATOM     55  H13 PAX d         -30.382 -24.760  19.226  0.00  0.00     0.079 H 
BRANCH  53  56
ATOM     56  O5  PAX d         -29.652 -24.767  17.271  0.00  0.00    -0.280 OA
BRANCH  56  57
ATOM     57  PD  PAX d         -29.592 -23.856  15.901  0.00  0.00     0.422 P 
ATOM     58  O1D PAX d         -28.237 -23.125  15.963  0.00  0.00    -0.617 OA
ATOM     59  O2D PAX d         -30.796 -22.890  15.965  0.00  0.00    -0.617 OA
ATOM     60  O3D PAX d         -29.676 -24.846  14.725  0.00  0.00    -0.617 OA
ENDBRANCH  56  57
ENDBRANCH  53  56
ENDBRANCH  44  53
BRANCH  47  61
ATOM     61  N1T PAX d         -33.986 -25.417  15.172  0.00  0.00    -0.282 N 
ATOM     62  C6T PAX d         -33.302 -24.452  14.389  0.00  0.00    -0.002 A 
ATOM     63  C5T PAX d         -33.904 -23.731  13.415  0.00  0.00     0.022 A 
ATOM     64  H19 PAX d         -32.243 -24.283  14.581  0.00  0.00     0.113 H 
ATOM     65  C4T PAX d         -35.330 -23.952  13.145  0.00  0.00     0.256 A 
ATOM     66  N3T PAX d         -35.954 -24.919  13.958  0.00  0.00    -0.275 N 
ATOM     67  O4T PAX d         -36.002 -23.382  12.283  0.00  0.00    -0.267 OA
ATOM     68  C2T PAX d         -35.363 -25.675  14.968  0.00  0.00     0.331 A 
ATOM     69  H20 PAX d         -36.927 -25.080  13.791  0.00  0.00     0.173 HD
ATOM     70  O2T PAX d         -35.989 -26.487  15.611  0.00  0.00    -0.246 OA
BRANCH  63  71
ATOM     71  CM5 PAX d         -33.116 -22.734  12.626  0.00  0.00    -0.045 C 
ATOM     72  H21 PAX d         -33.689 -22.433  11.738  0.00  0.00     0.033 H 
ATOM     73  H22 PAX d         -32.163 -23.186  12.312  0.00  0.00     0.033 H 
ATOM     74  H23 PAX d         -32.915 -21.850  13.249  0.00  0.00     0.033 H 
ENDBRANCH  63  71
ENDBRANCH  47  61
ENDBRANCH  42  43
ENDBRANCH  39  42
ENDBRANCH  38  39
ENDBRANCH   1  38
TORSDOF 16
ENDMDL
MODEL 8
REMARK VINA RESULT:      -3.5      2.137      3.098
REMARK  16 active torsions:
REMARK  status: ('A' for Active; 'I' for Inactive)
REMARK    1  A    between atoms: PA_1  and  O5_4 
REMARK    2  A    between atoms: O3A_8  and  PA_1 
REMARK    3  A    between atoms: O5_4  and  C5_23 
REMARK    4  A    between atoms: PB_5  and  O3A_8 
REMARK    5  A    between atoms: O3_38  and  PB_5 
REMARK    6  A    between atoms: O3_30  and  PG_9 
REMARK    7  A    between atoms: C1_26  and  N9A_13 
REMARK    8  A    between atoms: C5_23  and  C4_24 
REMARK    9  A    between atoms: C2_27  and  O2_28 
REMARK   10  A    between atoms: C3_29  and  O3_30 
REMARK   11  A    between atoms: C5_32  and  O5_31 
REMARK   12  A    between atoms: O5_31  and  PD_39 
REMARK   13  A    between atoms: C4_33  and  C5_32 
REMARK   14  A    between atoms: C1_35  and  N1T_43 
REMARK   15  A    between atoms: C3_37  and  O3_38 
REMARK   16  A    between atoms: C5T_50  and  CM5_51 
ROOT
ATOM      1  PA  PAX d         -33.408 -30.818  16.702  0.00  0.00     0.417 P 
ATOM      2  O1A PAX d         -32.717 -29.890  17.705  0.00  0.00    -0.624 OA
ATOM      3  O2A PAX d         -34.595 -31.629  17.232  0.00  0.00    -0.624 OA
ENDROOT
BRANCH   1   4
ATOM      4  O5  PAX d         -33.898 -30.010  15.418  0.00  0.00    -0.287 OA
BRANCH   4   5
ATOM      5  C5  PAX d         -33.074 -29.880  14.281  0.00  0.00     0.058 C 
ATOM      6  H5  PAX d         -33.574 -30.333  13.412  0.00  0.00     0.079 H 
ATOM      7  H6  PAX d         -32.117 -30.392  14.462  0.00  0.00     0.079 H 
BRANCH   5   8
ATOM      8  C4  PAX d         -32.820 -28.430  14.011  0.00  0.00     0.090 C 
ATOM      9  O4  PAX d         -33.746 -27.599  14.786  0.00  0.00    -0.353 OA
ATOM     10  C1  PAX d         -33.074 -26.411  15.142  0.00  0.00     0.140 C 
ATOM     11  C2  PAX d         -31.667 -26.931  15.497  0.00  0.00     0.106 C 
ATOM     12  H8  PAX d         -32.982 -25.758  14.261  0.00  0.00     0.122 H 
ATOM     13  C3  PAX d         -31.413 -27.969  14.394  0.00  0.00     0.107 C 
ATOM     14  H9  PAX d         -31.698 -27.437  16.473  0.00  0.00     0.093 H 
ATOM     15  H11 PAX d         -30.785 -28.797  14.757  0.00  0.00     0.092 H 
ATOM     16  H7  PAX d         -32.974 -28.251  12.937  0.00  0.00     0.090 H 
BRANCH  10  17
ATOM     17  N9A PAX d         -33.854 -25.641  16.159  0.00  0.00    -0.294 N 
ATOM     18  C4A PAX d         -33.442 -24.757  17.149  0.00  0.00     0.167 A 
ATOM     19  N3A PAX d         -32.164 -24.360  17.445  0.00  0.00    -0.222 NA
ATOM     20  C5A PAX d         -34.624 -24.337  17.800  0.00  0.00     0.149 A 
ATOM     21  C2A PAX d         -32.130 -23.473  18.487  0.00  0.00     0.091 A 
ATOM     22  N1A PAX d         -33.188 -22.982  19.208  0.00  0.00    -0.222 NA
ATOM     23  H1  PAX d         -31.149 -23.117  18.778  0.00  0.00     0.146 H 
ATOM     24  C6A PAX d         -34.461 -23.399  18.884  0.00  0.00     0.155 A 
ATOM     25  N6A PAX d         -35.477 -22.911  19.590  0.00  0.00    -0.382 N 
ATOM     26  H2  PAX d         -36.441 -23.201  19.374  0.00  0.00     0.157 HD
ATOM     27  H3  PAX d         -35.300 -22.241  20.352  0.00  0.00     0.157 HD
ATOM     28  N7A PAX d         -35.736 -24.942  17.234  0.00  0.00    -0.236 NA
ATOM     29  C8A PAX d         -35.234 -25.696  16.277  0.00  0.00     0.071 A 
ATOM     30  H4  PAX d         -35.855 -26.314  15.629  0.00  0.00     0.144 H 
ENDBRANCH  10  17
BRANCH  11  31
ATOM     31  O2  PAX d         -30.687 -25.906  15.588  0.00  0.00    -0.388 OA
ATOM     32  H10 PAX d         -30.132 -26.065  16.343  0.00  0.00     0.210 HD
ENDBRANCH  11  31
BRANCH  13  33
ATOM     33  O3  PAX d         -30.835 -27.370  13.231  0.00  0.00    -0.272 OA
BRANCH  33  34
ATOM     34  PG  PAX d         -29.228 -27.095  13.094  0.00  0.00     0.422 P 
ATOM     35  O1G PAX d         -28.656 -28.256  12.283  0.00  0.00    -0.617 OA
ATOM     36  O2G PAX d         -29.108 -25.748  12.394  0.00  0.00    -0.617 OA
ATOM     37  O3G PAX d         -28.616 -27.047  14.506  0.00  0.00    -0.617 OA
ENDBRANCH  33  34
ENDBRANCH  13  33
ENDBRANCH   5   8
ENDBRANCH   4   5
ENDBRANCH   1   4
BRANCH   1  38
ATOM     38  O3A PAX d         -32.350 -31.805  16.054  0.00  0.00    -0.180 OA
BRANCH  38  39
ATOM     39  PB  PAX d         -32.400 -33.315  15.596  0.00  0.00     0.418 P 
ATOM     40  O1B PAX d         -33.665 -33.913  16.066  0.00  0.00    -0.624 OA
ATOM     41  O2B PAX d         -32.082 -33.362  14.151  0.00  0.00    -0.624 OA
BRANCH  39  42
ATOM     42  O3  PAX d         -31.094 -33.956  16.324  0.00  0.00    -0.281 OA
BRANCH  42  43
ATOM     43  C3  PAX d         -29.974 -33.150  16.696  0.00  0.00     0.081 C 
ATOM     44  C4  PAX d         -29.777 -32.045  15.651  0.00  0.00     0.087 C 
ATOM     45  O4  PAX d         -28.605 -32.417  14.873  0.00  0.00    -0.356 OA
ATOM     46  H14 PAX d         -30.659 -32.017  14.995  0.00  0.00     0.090 H 
ATOM     47  C1  PAX d         -28.230 -33.741  15.191  0.00  0.00     0.116 C 
ATOM     48  C2  PAX d         -28.698 -33.972  16.622  0.00  0.00     0.003 C 
ATOM     49  H15 PAX d         -28.732 -34.452  14.518  0.00  0.00     0.118 H 
ATOM     50  H16 PAX d         -27.951 -33.611  17.345  0.00  0.00     0.043 H 
ATOM     51  H17 PAX d         -28.901 -35.037  16.805  0.00  0.00     0.043 H 
ATOM     52  H18 PAX d         -30.122 -32.731  17.703  0.00  0.00     0.088 H 
BRANCH  44  53
ATOM     53  C5  PAX d         -29.591 -30.662  16.255  0.00  0.00     0.059 C 
ATOM     54  H12 PAX d         -29.091 -30.012  15.521  0.00  0.00     0.079 H 
ATOM     55  H13 PAX d         -30.576 -30.243  16.506  0.00  0.00     0.079 H 
BRANCH  53  56
ATOM     56  O5  PAX d         -28.783 -30.730  17.457  0.00  0.00    -0.280 OA
BRANCH  56  57
ATOM     57  PD  PAX d         -28.985 -29.683  18.710  0.00  0.00     0.422 P 
ATOM     58  O1D PAX d         -30.013 -30.358  19.638  0.00  0.00    -0.617 OA
ATOM     59  O2D PAX d         -29.508 -28.363  18.099  0.00  0.00    -0.617 OA
ATOM     60  O3D PAX d         -27.603 -29.533  19.370  0.00  0.00    -0.617 OA
ENDBRANCH  56  57
ENDBRANCH  53  56
ENDBRANCH  44  53
BRANCH  47  61
ATOM     61  N1T PAX d         -26.744 -33.897  15.040  0.00  0.00    -0.282 N 
ATOM     62  C6T PAX d         -25.831 -33.281  15.933  0.00  0.00    -0.002 A 
ATOM     63  C5T PAX d         -24.488 -33.408  15.820  0.00  0.00     0.022 A 
ATOM     64  H19 PAX d         -26.228 -32.677  16.748  0.00  0.00     0.113 H 
ATOM     65  C4T PAX d         -23.941 -34.221  14.728  0.00  0.00     0.256 A 
ATOM     66  N3T PAX d         -24.897 -34.803  13.872  0.00  0.00    -0.275 N 
ATOM     67  O4T PAX d         -22.746 -34.436  14.512  0.00  0.00    -0.267 OA
ATOM     68  C2T PAX d         -26.283 -34.690  13.961  0.00  0.00     0.331 A 
ATOM     69  H20 PAX d         -24.541 -35.357  13.119  0.00  0.00     0.173 HD
ATOM     70  O2T PAX d         -27.022 -35.234  13.173  0.00  0.00    -0.246 OA
BRANCH  63  71
ATOM     71  CM5 PAX d         -23.587 -32.732  16.805  0.00  0.00    -0.045 C 
ATOM     72  H21 PAX d         -24.186 -32.097  17.473  0.00  0.00     0.033 H 
ATOM     73  H22 PAX d         -22.857 -32.110  16.267  0.00  0.00     0.033 H 
ATOM     74  H23 PAX d         -23.057 -33.491  17.398  0.00  0.00     0.033 H 
ENDBRANCH  63  71
ENDBRANCH  47  61
ENDBRANCH  42  43
ENDBRANCH  39  42
ENDBRANCH  38  39
ENDBRANCH   1  38
TORSDOF 16
ENDMDL
MODEL 9
REMARK VINA RESULT:      -2.9      4.118      7.895
REMARK  16 active torsions:
REMARK  status: ('A' for Active; 'I' for Inactive)
REMARK    1  A    between atoms: PA_1  and  O5_4 
REMARK    2  A    between atoms: O3A_8  and  PA_1 
REMARK    3  A    between atoms: O5_4  and  C5_23 
REMARK    4  A    between atoms: PB_5  and  O3A_8 
REMARK    5  A    between atoms: O3_38  and  PB_5 
REMARK    6  A    between atoms: O3_30  and  PG_9 
REMARK    7  A    between atoms: C1_26  and  N9A_13 
REMARK    8  A    between atoms: C5_23  and  C4_24 
REMARK    9  A    between atoms: C2_27  and  O2_28 
REMARK   10  A    between atoms: C3_29  and  O3_30 
REMARK   11  A    between atoms: C5_32  and  O5_31 
REMARK   12  A    between atoms: O5_31  and  PD_39 
REMARK   13  A    between atoms: C4_33  and  C5_32 
REMARK   14  A    between atoms: C1_35  and  N1T_43 
REMARK   15  A    between atoms: C3_37  and  O3_38 
REMARK   16  A    between atoms: C5T_50  and  CM5_51 
ROOT
ATOM      1  PA  PAX d         -30.654 -26.031  14.883  0.00  0.00     0.417 P 
ATOM      2  O1A PAX d         -29.355 -26.739  15.279  0.00  0.00    -0.624 OA
ATOM      3  O2A PAX d         -30.501 -24.717  14.109  0.00  0.00    -0.624 OA
ENDROOT
BRANCH   1   4
ATOM      4  O5  PAX d         -31.597 -26.996  14.034  0.00  0.00    -0.287 OA
BRANCH   4   5
ATOM      5  C5  PAX d         -31.411 -27.158  12.645  0.00  0.00     0.058 C 
ATOM      6  H5  PAX d         -30.580 -26.520  12.310  0.00  0.00     0.079 H 
ATOM      7  H6  PAX d         -32.332 -26.870  12.116  0.00  0.00     0.079 H 
BRANCH   5   8
ATOM      8  C4  PAX d         -31.093 -28.589  12.348  0.00  0.00     0.090 C 
ATOM      9  O4  PAX d         -29.641 -28.785  12.283  0.00  0.00    -0.353 OA
ATOM     10  C1  PAX d         -29.353 -30.077  12.770  0.00  0.00     0.140 C 
ATOM     11  C2  PAX d         -30.321 -30.196  13.963  0.00  0.00     0.106 C 
ATOM     12  H8  PAX d         -29.642 -30.830  12.022  0.00  0.00     0.122 H 
ATOM     13  C3  PAX d         -31.607 -29.568  13.405  0.00  0.00     0.107 C 
ATOM     14  H9  PAX d         -29.951 -29.586  14.799  0.00  0.00     0.093 H 
ATOM     15  H11 PAX d         -32.185 -29.065  14.195  0.00  0.00     0.092 H 
ATOM     16  H7  PAX d         -31.543 -28.845  11.377  0.00  0.00     0.090 H 
BRANCH  10  17
ATOM     17  N9A PAX d         -27.884 -30.247  12.993  0.00  0.00    -0.294 N 
ATOM     18  C4A PAX d         -27.156 -31.307  13.521  0.00  0.00     0.167 A 
ATOM     19  N3A PAX d         -27.631 -32.506  13.984  0.00  0.00    -0.222 NA
ATOM     20  C5A PAX d         -25.805 -30.898  13.480  0.00  0.00     0.149 A 
ATOM     21  C2A PAX d         -26.624 -33.318  14.433  0.00  0.00     0.091 A 
ATOM     22  N1A PAX d         -25.279 -33.055  14.455  0.00  0.00    -0.222 NA
ATOM     23  H1  PAX d         -26.928 -34.285  14.817  0.00  0.00     0.146 H 
ATOM     24  C6A PAX d         -24.833 -31.841  13.980  0.00  0.00     0.155 A 
ATOM     25  N6A PAX d         -23.525 -31.602  14.005  0.00  0.00    -0.382 N 
ATOM     26  H2  PAX d         -23.158 -30.705  13.658  0.00  0.00     0.157 HD
ATOM     27  H3  PAX d         -22.878 -32.315  14.372  0.00  0.00     0.157 HD
ATOM     28  N7A PAX d         -25.694 -29.623  12.946  0.00  0.00    -0.236 NA
ATOM     29  C8A PAX d         -26.939 -29.284  12.675  0.00  0.00     0.071 A 
ATOM     30  H4  PAX d         -27.204 -28.323  12.237  0.00  0.00     0.144 H 
ENDBRANCH  10  17
BRANCH  11  31
ATOM     31  O2  PAX d         -30.469 -31.524  14.447  0.00  0.00    -0.388 OA
ATOM     32  H10 PAX d         -29.614 -31.877  14.666  0.00  0.00     0.210 HD
ENDBRANCH  11  31
BRANCH  13  33
ATOM     33  O3  PAX d         -32.414 -30.535  12.728  0.00  0.00    -0.272 OA
BRANCH  33  34
ATOM     34  PG  PAX d         -33.678 -31.282  13.450  0.00  0.00     0.422 P 
ATOM     35  O1G PAX d         -34.669 -31.630  12.341  0.00  0.00    -0.617 OA
ATOM     36  O2G PAX d         -33.084 -32.503  14.138  0.00  0.00    -0.617 OA
ATOM     37  O3G PAX d         -34.303 -30.313  14.470  0.00  0.00    -0.617 OA
ENDBRANCH  33  34
ENDBRANCH  13  33
ENDBRANCH   5   8
ENDBRANCH   4   5
ENDBRANCH   1   4
BRANCH   1  38
ATOM     38  O3A PAX d         -31.551 -25.780  16.165  0.00  0.00    -0.180 OA
BRANCH  38  39
ATOM     39  PB  PAX d         -31.232 -25.480  17.681  0.00  0.00     0.418 P 
ATOM     40  O1B PAX d         -30.078 -24.564  17.753  0.00  0.00    -0.624 OA
ATOM     41  O2B PAX d         -32.497 -25.086  18.342  0.00  0.00    -0.624 OA
BRANCH  39  42
ATOM     42  O3  PAX d         -30.900 -26.956  18.280  0.00  0.00    -0.281 OA
BRANCH  42  43
ATOM     43  C3  PAX d         -30.999 -28.131  17.471  0.00  0.00     0.081 C 
ATOM     44  C4  PAX d         -31.896 -29.155  18.176  0.00  0.00     0.087 C 
ATOM     45  O4  PAX d         -31.016 -30.196  18.684  0.00  0.00    -0.356 OA
ATOM     46  H14 PAX d         -32.405 -28.662  19.016  0.00  0.00     0.090 H 
ATOM     47  C1  PAX d         -29.672 -29.776  18.563  0.00  0.00     0.116 C 
ATOM     48  C2  PAX d         -29.645 -28.814  17.382  0.00  0.00     0.003 C 
ATOM     49  H15 PAX d         -29.354 -29.251  19.476  0.00  0.00     0.118 H 
ATOM     50  H16 PAX d         -29.536 -29.357  16.431  0.00  0.00     0.043 H 
ATOM     51  H17 PAX d         -28.826 -28.086  17.484  0.00  0.00     0.043 H 
ATOM     52  H18 PAX d         -31.385 -27.876  16.473  0.00  0.00     0.088 H 
BRANCH  44  53
ATOM     53  C5  PAX d         -32.958 -29.760  17.269  0.00  0.00     0.059 C 
ATOM     54  H12 PAX d         -33.896 -29.197  17.388  0.00  0.00     0.079 H 
ATOM     55  H13 PAX d         -32.620 -29.693  16.225  0.00  0.00     0.079 H 
BRANCH  53  56
ATOM     56  O5  PAX d         -33.191 -31.150  17.606  0.00  0.00    -0.280 OA
BRANCH  56  57
ATOM     57  PD  PAX d         -34.436 -31.622  18.573  0.00  0.00     0.422 P 
ATOM     58  O1D PAX d         -35.419 -32.352  17.636  0.00  0.00    -0.617 OA
ATOM     59  O2D PAX d         -35.034 -30.332  19.178  0.00  0.00    -0.617 OA
ATOM     60  O3D PAX d         -33.826 -32.557  19.632  0.00  0.00    -0.617 OA
ENDBRANCH  56  57
ENDBRANCH  53  56
ENDBRANCH  44  53
BRANCH  47  61
ATOM     61  N1T PAX d         -28.785 -30.969  18.353  0.00  0.00    -0.282 N 
ATOM     62  C6T PAX d         -27.372 -30.856  18.324  0.00  0.00    -0.002 A 
ATOM     63  C5T PAX d         -26.551 -31.917  18.140  0.00  0.00     0.022 A 
ATOM     64  H19 PAX d         -26.926 -29.872  18.457  0.00  0.00     0.113 H 
ATOM     65  C4T PAX d         -27.140 -33.249  17.963  0.00  0.00     0.256 A 
ATOM     66  N3T PAX d         -28.547 -33.296  17.997  0.00  0.00    -0.275 N 
ATOM     67  O4T PAX d         -26.518 -34.302  17.801  0.00  0.00    -0.267 OA
ATOM     68  C2T PAX d         -29.419 -32.224  18.183  0.00  0.00     0.331 A 
ATOM     69  H20 PAX d         -28.966 -34.196  17.874  0.00  0.00     0.173 HD
ATOM     70  O2T PAX d         -30.620 -32.369  18.199  0.00  0.00    -0.246 OA
BRANCH  63  71
ATOM     71  CM5 PAX d         -25.068 -31.721  18.127  0.00  0.00    -0.045 C 
ATOM     72  H21 PAX d         -24.610 -32.336  18.915  0.00  0.00     0.033 H 
ATOM     73  H22 PAX d         -24.837 -30.661  18.309  0.00  0.00     0.033 H 
ATOM     74  H23 PAX d         -24.667 -32.021  17.148  0.00  0.00     0.033 H 
ENDBRANCH  63  71
ENDBRANCH  47  61
ENDBRANCH  42  43
ENDBRANCH  39  42
ENDBRANCH  38  39
ENDBRANCH   1  38
TORSDOF 16
ENDMDL
