MODEL 1
REMARK VINA RESULT:      -5.8      0.000      0.000
REMARK  6 active torsions:
REMARK  status: ('A' for Active; 'I' for Inactive)
REMARK    1  A    between atoms: C1_1  and  O1_7 
REMARK    2  A    between atoms: C2_2  and  O2_8 
REMARK    3  A    between atoms: C3_3  and  O3_9 
REMARK    4  A    between atoms: C4_4  and  O4_10 
REMARK    5  A    between atoms: C5_5  and  C6_6 
REMARK    6  A    between atoms: O1_7  and  CM_12 
ROOT
ATOM      1  C1  MFU d          12.406   4.867  -3.681  0.00  0.00     0.158 C 
ATOM      2  C2  MFU d          11.077   4.718  -2.913  0.00  0.00     0.110 C 
ATOM      3  C3  MFU d          10.277   3.546  -3.472  0.00  0.00     0.092 C 
ATOM      4  C4  MFU d          11.139   2.286  -3.554  0.00  0.00     0.087 C 
ATOM      5  C5  MFU d          12.485   2.526  -4.250  0.00  0.00     0.065 C 
ATOM      6  O5  MFU d          13.159   3.633  -3.635  0.00  0.00    -0.351 OA
ATOM      7  H1  MFU d          13.003   5.668  -3.220  0.00  0.00     0.133 H 
ATOM      8  H2  MFU d          11.330   4.494  -1.867  0.00  0.00     0.094 H 
ATOM      9  H3  MFU d           9.900   3.805  -4.473  0.00  0.00     0.091 H 
ATOM     10  H4  MFU d          10.587   1.519  -4.118  0.00  0.00     0.091 H 
ATOM     11  H5  MFU d          12.282   2.788  -5.298  0.00  0.00     0.086 H 
ENDROOT
BRANCH   1  12
ATOM     12  O1  MFU d          12.120   5.214  -5.049  0.00  0.00    -0.363 OA
BRANCH  12  13
ATOM     13  CM  MFU d          12.926   6.273  -5.588  0.00  0.00     0.007 C 
ATOM     14  H12 MFU d          12.306   6.915  -6.231  0.00  0.00     0.066 H 
ATOM     15  H13 MFU d          13.747   5.844  -6.182  0.00  0.00     0.066 H 
ATOM     16  H14 MFU d          13.342   6.872  -4.765  0.00  0.00     0.066 H 
ENDBRANCH  12  13
ENDBRANCH   1  12
BRANCH   2  17
ATOM     17  O2  MFU d          10.236   5.905  -2.910  0.00  0.00    -0.388 OA
ATOM     18  H9  MFU d           9.329   5.649  -2.790  0.00  0.00     0.210 HD
ENDBRANCH   2  17
BRANCH   3  19
ATOM     19  O3  MFU d           9.182   3.250  -2.594  0.00  0.00    -0.390 OA
ATOM     20  H10 MFU d           8.541   3.950  -2.641  0.00  0.00     0.210 HD
ENDBRANCH   3  19
BRANCH   5  21
ATOM     21  C6  MFU d          13.367   1.274  -4.245  0.00  0.00    -0.050 C 
ATOM     22  H6  MFU d          12.777   0.408  -4.581  0.00  0.00     0.031 H 
ATOM     23  H7  MFU d          13.737   1.090  -3.225  0.00  0.00     0.031 H 
ATOM     24  H8  MFU d          14.219   1.423  -4.924  0.00  0.00     0.031 H 
ENDBRANCH   5  21
BRANCH   4  25
ATOM     25  O4  MFU d          11.377   1.816  -2.214  0.00  0.00    -0.390 OA
ATOM     26  H11 MFU d          10.608   1.981  -1.681  0.00  0.00     0.210 HD
ENDBRANCH   4  25
TORSDOF 6
ENDMDL
MODEL 2
REMARK VINA RESULT:      -4.9      1.132      3.396
REMARK  6 active torsions:
REMARK  status: ('A' for Active; 'I' for Inactive)
REMARK    1  A    between atoms: C1_1  and  O1_7 
REMARK    2  A    between atoms: C2_2  and  O2_8 
REMARK    3  A    between atoms: C3_3  and  O3_9 
REMARK    4  A    between atoms: C4_4  and  O4_10 
REMARK    5  A    between atoms: C5_5  and  C6_6 
REMARK    6  A    between atoms: O1_7  and  CM_12 
ROOT
ATOM      1  C1  MFU d          12.119   2.558  -4.872  0.00  0.00     0.158 C 
ATOM      2  C2  MFU d          10.707   2.415  -4.266  0.00  0.00     0.110 C 
ATOM      3  C3  MFU d          10.606   3.224  -2.976  0.00  0.00     0.092 C 
ATOM      4  C4  MFU d          11.091   4.658  -3.191  0.00  0.00     0.087 C 
ATOM      5  C5  MFU d          12.461   4.729  -3.879  0.00  0.00     0.065 C 
ATOM      6  O5  MFU d          12.439   3.952  -5.086  0.00  0.00    -0.351 OA
ATOM      7  H1  MFU d          12.154   2.031  -5.836  0.00  0.00     0.133 H 
ATOM      8  H2  MFU d           9.998   2.836  -4.993  0.00  0.00     0.094 H 
ATOM      9  H3  MFU d          11.207   2.739  -2.193  0.00  0.00     0.091 H 
ATOM     10  H4  MFU d          11.168   5.153  -2.212  0.00  0.00     0.091 H 
ATOM     11  H5  MFU d          13.204   4.286  -3.201  0.00  0.00     0.086 H 
ENDROOT
BRANCH   1  12
ATOM     12  O1  MFU d          13.076   1.970  -3.971  0.00  0.00    -0.363 OA
BRANCH  12  13
ATOM     13  CM  MFU d          13.780   0.832  -4.493  0.00  0.00     0.007 C 
ATOM     14  H12 MFU d          13.149  -0.064  -4.398  0.00  0.00     0.066 H 
ATOM     15  H13 MFU d          14.712   0.686  -3.926  0.00  0.00     0.066 H 
ATOM     16  H14 MFU d          14.017   1.002  -5.554  0.00  0.00     0.066 H 
ENDBRANCH  12  13
ENDBRANCH   1  12
BRANCH   2  17
ATOM     17  O2  MFU d          10.292   1.047  -3.999  0.00  0.00    -0.388 OA
ATOM     18  H9  MFU d          10.269   0.901  -3.061  0.00  0.00     0.210 HD
ENDBRANCH   2  17
BRANCH   3  19
ATOM     19  O3  MFU d           9.233   3.302  -2.566  0.00  0.00    -0.390 OA
ATOM     20  H10 MFU d           8.671   3.140  -3.314  0.00  0.00     0.210 HD
ENDBRANCH   3  19
BRANCH   5  21
ATOM     21  C6  MFU d          12.889   6.172  -4.162  0.00  0.00    -0.050 C 
ATOM     22  H6  MFU d          13.337   6.232  -5.164  0.00  0.00     0.031 H 
ATOM     23  H7  MFU d          13.629   6.489  -3.411  0.00  0.00     0.031 H 
ATOM     24  H8  MFU d          12.010   6.831  -4.113  0.00  0.00     0.031 H 
ENDBRANCH   5  21
BRANCH   4  25
ATOM     25  O4  MFU d          10.119   5.345  -4.001  0.00  0.00    -0.390 OA
ATOM     26  H11 MFU d           9.284   4.898  -3.938  0.00  0.00     0.210 HD
ENDBRANCH   4  25
TORSDOF 6
ENDMDL
MODEL 3
REMARK VINA RESULT:      -4.8      1.601      2.002
REMARK  6 active torsions:
REMARK  status: ('A' for Active; 'I' for Inactive)
REMARK    1  A    between atoms: C1_1  and  O1_7 
REMARK    2  A    between atoms: C2_2  and  O2_8 
REMARK    3  A    between atoms: C3_3  and  O3_9 
REMARK    4  A    between atoms: C4_4  and  O4_10 
REMARK    5  A    between atoms: C5_5  and  C6_6 
REMARK    6  A    between atoms: O1_7  and  CM_12 
ROOT
ATOM      1  C1  MFU d          11.316   4.307  -3.669  0.00  0.00     0.158 C 
ATOM      2  C2  MFU d          10.518   3.107  -3.120  0.00  0.00     0.110 C 
ATOM      3  C3  MFU d          10.291   2.079  -4.224  0.00  0.00     0.092 C 
ATOM      4  C4  MFU d          11.604   1.735  -4.928  0.00  0.00     0.087 C 
ATOM      5  C5  MFU d          12.391   2.977  -5.368  0.00  0.00     0.065 C 
ATOM      6  O5  MFU d          12.562   3.863  -4.252  0.00  0.00    -0.351 OA
ATOM      7  H1  MFU d          11.535   5.004  -2.845  0.00  0.00     0.133 H 
ATOM      8  H2  MFU d          11.133   2.640  -2.336  0.00  0.00     0.094 H 
ATOM      9  H3  MFU d           9.570   2.480  -4.953  0.00  0.00     0.091 H 
ATOM     10  H4  MFU d          11.376   1.133  -5.821  0.00  0.00     0.091 H 
ATOM     11  H5  MFU d          11.798   3.500  -6.132  0.00  0.00     0.086 H 
ENDROOT
BRANCH   1  12
ATOM     12  O1  MFU d          10.523   4.981  -4.664  0.00  0.00    -0.363 OA
BRANCH  12  13
ATOM     13  CM  MFU d          10.183   6.340  -4.351  0.00  0.00     0.007 C 
ATOM     14  H12 MFU d           9.181   6.567  -4.745  0.00  0.00     0.066 H 
ATOM     15  H13 MFU d          10.919   7.018  -4.808  0.00  0.00     0.066 H 
ATOM     16  H14 MFU d          10.186   6.477  -3.259  0.00  0.00     0.066 H 
ENDBRANCH  12  13
ENDBRANCH   1  12
BRANCH   2  17
ATOM     17  O2  MFU d           9.237   3.446  -2.520  0.00  0.00    -0.388 OA
ATOM     18  H9  MFU d           9.040   4.360  -2.692  0.00  0.00     0.210 HD
ENDBRANCH   2  17
BRANCH   3  19
ATOM     19  O3  MFU d           9.790   0.863  -3.653  0.00  0.00    -0.390 OA
ATOM     20  H10 MFU d          10.421   0.166  -3.789  0.00  0.00     0.210 HD
ENDBRANCH   3  19
BRANCH   5  21
ATOM     21  C6  MFU d          13.740   2.612  -5.993  0.00  0.00    -0.050 C 
ATOM     22  H6  MFU d          14.285   1.934  -5.321  0.00  0.00     0.031 H 
ATOM     23  H7  MFU d          14.332   3.527  -6.149  0.00  0.00     0.031 H 
ATOM     24  H8  MFU d          13.573   2.114  -6.960  0.00  0.00     0.031 H 
ENDBRANCH   5  21
BRANCH   4  25
ATOM     25  O4  MFU d          12.411   0.961  -4.022  0.00  0.00    -0.390 OA
ATOM     26  H11 MFU d          11.850   0.395  -3.505  0.00  0.00     0.210 HD
ENDBRANCH   4  25
TORSDOF 6
ENDMDL
MODEL 4
REMARK VINA RESULT:      -4.8      1.110      3.409
REMARK  6 active torsions:
REMARK  status: ('A' for Active; 'I' for Inactive)
REMARK    1  A    between atoms: C1_1  and  O1_7 
REMARK    2  A    between atoms: C2_2  and  O2_8 
REMARK    3  A    between atoms: C3_3  and  O3_9 
REMARK    4  A    between atoms: C4_4  and  O4_10 
REMARK    5  A    between atoms: C5_5  and  C6_6 
REMARK    6  A    between atoms: O1_7  and  CM_12 
ROOT
ATOM      1  C1  MFU d          11.200   2.936  -4.490  0.00  0.00     0.158 C 
ATOM      2  C2  MFU d          10.182   3.765  -3.679  0.00  0.00     0.110 C 
ATOM      3  C3  MFU d          10.857   5.007  -3.105  0.00  0.00     0.092 C 
ATOM      4  C4  MFU d          11.615   5.769  -4.192  0.00  0.00     0.087 C 
ATOM      5  C5  MFU d          12.541   4.868  -5.020  0.00  0.00     0.065 C 
ATOM      6  O5  MFU d          11.802   3.746  -5.525  0.00  0.00    -0.351 OA
ATOM      7  H1  MFU d          10.683   2.085  -4.958  0.00  0.00     0.133 H 
ATOM      8  H2  MFU d           9.399   4.091  -4.379  0.00  0.00     0.094 H 
ATOM      9  H3  MFU d          11.552   4.708  -2.306  0.00  0.00     0.091 H 
ATOM     10  H4  MFU d          12.225   6.550  -3.714  0.00  0.00     0.091 H 
ATOM     11  H5  MFU d          13.328   4.488  -4.353  0.00  0.00     0.086 H 
ENDROOT
BRANCH   1  12
ATOM     12  O1  MFU d          12.218   2.444  -3.600  0.00  0.00    -0.363 OA
BRANCH  12  13
ATOM     13  CM  MFU d          13.015   1.370  -4.123  0.00  0.00     0.007 C 
ATOM     14  H12 MFU d          12.453   0.428  -4.051  0.00  0.00     0.066 H 
ATOM     15  H13 MFU d          13.946   1.287  -3.542  0.00  0.00     0.066 H 
ATOM     16  H14 MFU d          13.257   1.573  -5.177  0.00  0.00     0.066 H 
ENDBRANCH  12  13
ENDBRANCH   1  12
BRANCH   2  17
ATOM     17  O2  MFU d           9.526   3.043  -2.601  0.00  0.00    -0.388 OA
ATOM     18  H9  MFU d           9.353   2.151  -2.878  0.00  0.00     0.210 HD
ENDBRANCH   2  17
BRANCH   3  19
ATOM     19  O3  MFU d           9.860   5.898  -2.585  0.00  0.00    -0.390 OA
ATOM     20  H10 MFU d           9.169   6.007  -3.227  0.00  0.00     0.210 HD
ENDBRANCH   3  19
BRANCH   5  21
ATOM     21  C6  MFU d          13.224   5.634  -6.157  0.00  0.00    -0.050 C 
ATOM     22  H6  MFU d          13.789   4.931  -6.785  0.00  0.00     0.031 H 
ATOM     23  H7  MFU d          13.913   6.381  -5.734  0.00  0.00     0.031 H 
ATOM     24  H8  MFU d          12.462   6.141  -6.767  0.00  0.00     0.031 H 
ENDBRANCH   5  21
BRANCH   4  25
ATOM     25  O4  MFU d          10.650   6.384  -5.066  0.00  0.00    -0.390 OA
ATOM     26  H11 MFU d           9.814   6.446  -4.619  0.00  0.00     0.210 HD
ENDBRANCH   4  25
TORSDOF 6
ENDMDL
MODEL 5
REMARK VINA RESULT:      -4.8      1.521      2.262
REMARK  6 active torsions:
REMARK  status: ('A' for Active; 'I' for Inactive)
REMARK    1  A    between atoms: C1_1  and  O1_7 
REMARK    2  A    between atoms: C2_2  and  O2_8 
REMARK    3  A    between atoms: C3_3  and  O3_9 
REMARK    4  A    between atoms: C4_4  and  O4_10 
REMARK    5  A    between atoms: C5_5  and  C6_6 
REMARK    6  A    between atoms: O1_7  and  CM_12 
ROOT
ATOM      1  C1  MFU d          12.886   3.356  -3.632  0.00  0.00     0.158 C 
ATOM      2  C2  MFU d          12.195   4.453  -2.795  0.00  0.00     0.110 C 
ATOM      3  C3  MFU d          10.870   4.849  -3.441  0.00  0.00     0.092 C 
ATOM      4  C4  MFU d          10.021   3.614  -3.745  0.00  0.00     0.087 C 
ATOM      5  C5  MFU d          10.795   2.526  -4.499  0.00  0.00     0.065 C 
ATOM      6  O5  MFU d          12.009   2.219  -3.798  0.00  0.00    -0.351 OA
ATOM      7  H1  MFU d          13.801   3.031  -3.117  0.00  0.00     0.133 H 
ATOM      8  H2  MFU d          11.981   4.020  -1.807  0.00  0.00     0.094 H 
ATOM      9  H3  MFU d          11.068   5.404  -4.370  0.00  0.00     0.091 H 
ATOM     10  H4  MFU d           9.162   3.922  -4.360  0.00  0.00     0.091 H 
ATOM     11  H5  MFU d          11.063   2.925  -5.488  0.00  0.00     0.086 H 
ENDROOT
BRANCH   1  12
ATOM     12  O1  MFU d          13.231   3.899  -4.920  0.00  0.00    -0.363 OA
BRANCH  12  13
ATOM     13  CM  MFU d          13.769   2.950  -5.854  0.00  0.00     0.007 C 
ATOM     14  H12 MFU d          14.850   2.841  -5.686  0.00  0.00     0.066 H 
ATOM     15  H13 MFU d          13.591   3.305  -6.881  0.00  0.00     0.066 H 
ATOM     16  H14 MFU d          13.276   1.976  -5.712  0.00  0.00     0.066 H 
ENDBRANCH  12  13
ENDBRANCH   1  12
BRANCH   2  17
ATOM     17  O2  MFU d          12.992   5.651  -2.580  0.00  0.00    -0.388 OA
ATOM     18  H9  MFU d          13.672   5.700  -3.241  0.00  0.00     0.210 HD
ENDBRANCH   2  17
BRANCH   3  19
ATOM     19  O3  MFU d          10.118   5.663  -2.531  0.00  0.00    -0.390 OA
ATOM     20  H10 MFU d           9.936   5.169  -1.741  0.00  0.00     0.210 HD
ENDBRANCH   3  19
BRANCH   5  21
ATOM     21  C6  MFU d           9.952   1.266  -4.718  0.00  0.00    -0.050 C 
ATOM     22  H6  MFU d           9.947   0.664  -3.797  0.00  0.00     0.031 H 
ATOM     23  H7  MFU d          10.383   0.674  -5.540  0.00  0.00     0.031 H 
ATOM     24  H8  MFU d           8.922   1.554  -4.974  0.00  0.00     0.031 H 
ENDBRANCH   5  21
BRANCH   4  25
ATOM     25  O4  MFU d           9.546   3.077  -2.496  0.00  0.00    -0.390 OA
ATOM     26  H11 MFU d           8.883   3.654  -2.136  0.00  0.00     0.210 HD
ENDBRANCH   4  25
TORSDOF 6
ENDMDL
MODEL 6
REMARK VINA RESULT:      -4.5      1.698      3.353
REMARK  6 active torsions:
REMARK  status: ('A' for Active; 'I' for Inactive)
REMARK    1  A    between atoms: C1_1  and  O1_7 
REMARK    2  A    between atoms: C2_2  and  O2_8 
REMARK    3  A    between atoms: C3_3  and  O3_9 
REMARK    4  A    between atoms: C4_4  and  O4_10 
REMARK    5  A    between atoms: C5_5  and  C6_6 
REMARK    6  A    between atoms: O1_7  and  CM_12 
ROOT
ATOM      1  C1  MFU d          10.362   2.918  -4.819  0.00  0.00     0.158 C 
ATOM      2  C2  MFU d          10.320   3.821  -3.569  0.00  0.00     0.110 C 
ATOM      3  C3  MFU d          11.698   3.878  -2.917  0.00  0.00     0.092 C 
ATOM      4  C4  MFU d          12.775   4.221  -3.946  0.00  0.00     0.087 C 
ATOM      5  C5  MFU d          12.702   3.345  -5.204  0.00  0.00     0.065 C 
ATOM      6  O5  MFU d          11.373   3.380  -5.743  0.00  0.00    -0.351 OA
ATOM      7  H1  MFU d           9.381   2.946  -5.318  0.00  0.00     0.133 H 
ATOM      8  H2  MFU d          10.058   4.834  -3.909  0.00  0.00     0.094 H 
ATOM      9  H3  MFU d          11.923   2.906  -2.453  0.00  0.00     0.091 H 
ATOM     10  H4  MFU d          13.762   4.082  -3.481  0.00  0.00     0.091 H 
ATOM     11  H5  MFU d          12.926   2.310  -4.909  0.00  0.00     0.086 H 
ENDROOT
BRANCH   1  12
ATOM     12  O1  MFU d          10.651   1.568  -4.412  0.00  0.00    -0.363 OA
BRANCH  12  13
ATOM     13  CM  MFU d           9.879   0.555  -5.075  0.00  0.00     0.007 C 
ATOM     14  H12 MFU d           9.300  -0.012  -4.331  0.00  0.00     0.066 H 
ATOM     15  H13 MFU d          10.554  -0.128  -5.613  0.00  0.00     0.066 H 
ATOM     16  H14 MFU d           9.190   1.029  -5.791  0.00  0.00     0.066 H 
ENDBRANCH  12  13
ENDBRANCH   1  12
BRANCH   2  17
ATOM     17  O2  MFU d           9.339   3.433  -2.567  0.00  0.00    -0.388 OA
ATOM     18  H9  MFU d           9.742   2.839  -1.944  0.00  0.00     0.210 HD
ENDBRANCH   2  17
BRANCH   3  19
ATOM     19  O3  MFU d          11.718   4.914  -1.926  0.00  0.00    -0.390 OA
ATOM     20  H10 MFU d          10.993   5.509  -2.077  0.00  0.00     0.210 HD
ENDBRANCH   3  19
BRANCH   5  21
ATOM     21  C6  MFU d          13.734   3.763  -6.257  0.00  0.00    -0.050 C 
ATOM     22  H6  MFU d          14.573   4.275  -5.765  0.00  0.00     0.031 H 
ATOM     23  H7  MFU d          13.263   4.444  -6.982  0.00  0.00     0.031 H 
ATOM     24  H8  MFU d          14.106   2.869  -6.780  0.00  0.00     0.031 H 
ENDBRANCH   5  21
BRANCH   4  25
ATOM     25  O4  MFU d          12.614   5.602  -4.322  0.00  0.00    -0.390 OA
ATOM     26  H11 MFU d          11.730   5.740  -4.642  0.00  0.00     0.210 HD
ENDBRANCH   4  25
TORSDOF 6
ENDMDL
MODEL 7
REMARK VINA RESULT:      -4.3      1.552      3.283
REMARK  6 active torsions:
REMARK  status: ('A' for Active; 'I' for Inactive)
REMARK    1  A    between atoms: C1_1  and  O1_7 
REMARK    2  A    between atoms: C2_2  and  O2_8 
REMARK    3  A    between atoms: C3_3  and  O3_9 
REMARK    4  A    between atoms: C4_4  and  O4_10 
REMARK    5  A    between atoms: C5_5  and  C6_6 
REMARK    6  A    between atoms: O1_7  and  CM_12 
ROOT
ATOM      1  C1  MFU d          11.406   3.181  -5.635  0.00  0.00     0.158 C 
ATOM      2  C2  MFU d          11.225   2.119  -4.530  0.00  0.00     0.110 C 
ATOM      3  C3  MFU d          11.480   2.741  -3.160  0.00  0.00     0.092 C 
ATOM      4  C4  MFU d          10.670   4.025  -2.983  0.00  0.00     0.087 C 
ATOM      5  C5  MFU d          10.826   4.997  -4.160  0.00  0.00     0.065 C 
ATOM      6  O5  MFU d          10.545   4.317  -5.392  0.00  0.00    -0.351 OA
ATOM      7  H1  MFU d          11.148   2.737  -6.608  0.00  0.00     0.133 H 
ATOM      8  H2  MFU d          10.177   1.788  -4.568  0.00  0.00     0.094 H 
ATOM      9  H3  MFU d          12.553   2.958  -3.052  0.00  0.00     0.091 H 
ATOM     10  H4  MFU d          11.010   4.531  -2.067  0.00  0.00     0.091 H 
ATOM     11  H5  MFU d          11.872   5.334  -4.186  0.00  0.00     0.086 H 
ENDROOT
BRANCH   1  12
ATOM     12  O1  MFU d          12.782   3.605  -5.655  0.00  0.00    -0.363 OA
BRANCH  12  13
ATOM     13  CM  MFU d          13.013   4.888  -6.257  0.00  0.00     0.007 C 
ATOM     14  H12 MFU d          13.713   5.464  -5.635  0.00  0.00     0.066 H 
ATOM     15  H13 MFU d          12.060   5.433  -6.337  0.00  0.00     0.066 H 
ATOM     16  H14 MFU d          13.442   4.750  -7.261  0.00  0.00     0.066 H 
ENDBRANCH  12  13
ENDBRANCH   1  12
BRANCH   2  17
ATOM     17  O2  MFU d          12.059   0.937  -4.675  0.00  0.00    -0.388 OA
ATOM     18  H9  MFU d          12.651   0.875  -3.935  0.00  0.00     0.210 HD
ENDBRANCH   2  17
BRANCH   3  19
ATOM     19  O3  MFU d          11.055   1.832  -2.135  0.00  0.00    -0.390 OA
ATOM     20  H10 MFU d          10.972   0.959  -2.501  0.00  0.00     0.210 HD
ENDBRANCH   3  19
BRANCH   5  21
ATOM     21  C6  MFU d           9.941   6.238  -4.003  0.00  0.00    -0.050 C 
ATOM     22  H6  MFU d           8.896   5.972  -4.218  0.00  0.00     0.031 H 
ATOM     23  H7  MFU d          10.273   7.016  -4.707  0.00  0.00     0.031 H 
ATOM     24  H8  MFU d          10.019   6.616  -2.973  0.00  0.00     0.031 H 
ENDBRANCH   5  21
BRANCH   4  25
ATOM     25  O4  MFU d           9.283   3.667  -2.846  0.00  0.00    -0.390 OA
ATOM     26  H11 MFU d           9.143   3.266  -1.997  0.00  0.00     0.210 HD
ENDBRANCH   4  25
TORSDOF 6
ENDMDL
MODEL 8
REMARK VINA RESULT:      -4.3      1.880      3.778
REMARK  6 active torsions:
REMARK  status: ('A' for Active; 'I' for Inactive)
REMARK    1  A    between atoms: C1_1  and  O1_7 
REMARK    2  A    between atoms: C2_2  and  O2_8 
REMARK    3  A    between atoms: C3_3  and  O3_9 
REMARK    4  A    between atoms: C4_4  and  O4_10 
REMARK    5  A    between atoms: C5_5  and  C6_6 
REMARK    6  A    between atoms: O1_7  and  CM_12 
ROOT
ATOM      1  C1  MFU d          10.643   3.071  -5.073  0.00  0.00     0.158 C 
ATOM      2  C2  MFU d          10.835   3.232  -3.551  0.00  0.00     0.110 C 
ATOM      3  C3  MFU d          11.587   4.526  -3.252  0.00  0.00     0.092 C 
ATOM      4  C4  MFU d          10.939   5.712  -3.967  0.00  0.00     0.087 C 
ATOM      5  C5  MFU d          10.693   5.450  -5.459  0.00  0.00     0.065 C 
ATOM      6  O5  MFU d           9.966   4.223  -5.623  0.00  0.00    -0.351 OA
ATOM      7  H1  MFU d          10.038   2.173  -5.268  0.00  0.00     0.133 H 
ATOM      8  H2  MFU d           9.833   3.305  -3.104  0.00  0.00     0.094 H 
ATOM      9  H3  MFU d          12.634   4.423  -3.574  0.00  0.00     0.091 H 
ATOM     10  H4  MFU d          11.601   6.585  -3.871  0.00  0.00     0.091 H 
ATOM     11  H5  MFU d          11.671   5.336  -5.948  0.00  0.00     0.086 H 
ENDROOT
BRANCH   1  12
ATOM     12  O1  MFU d          11.933   2.919  -5.694  0.00  0.00    -0.363 OA
BRANCH  12  13
ATOM     13  CM  MFU d          12.187   1.623  -6.258  0.00  0.00     0.007 C 
ATOM     14  H12 MFU d          11.606   1.506  -7.185  0.00  0.00     0.066 H 
ATOM     15  H13 MFU d          11.889   0.845  -5.539  0.00  0.00     0.066 H 
ATOM     16  H14 MFU d          13.259   1.524  -6.483  0.00  0.00     0.066 H 
ENDBRANCH  12  13
ENDBRANCH   1  12
BRANCH   2  17
ATOM     17  O2  MFU d          11.520   2.127  -2.900  0.00  0.00    -0.388 OA
ATOM     18  H9  MFU d          11.945   1.588  -3.557  0.00  0.00     0.210 HD
ENDBRANCH   2  17
BRANCH   3  19
ATOM     19  O3  MFU d          11.528   4.800  -1.846  0.00  0.00    -0.390 OA
ATOM     20  H10 MFU d          11.316   5.717  -1.711  0.00  0.00     0.210 HD
ENDBRANCH   3  19
BRANCH   5  21
ATOM     21  C6  MFU d           9.967   6.615  -6.137  0.00  0.00    -0.050 C 
ATOM     22  H6  MFU d           9.437   6.249  -7.028  0.00  0.00     0.031 H 
ATOM     23  H7  MFU d          10.699   7.381  -6.435  0.00  0.00     0.031 H 
ATOM     24  H8  MFU d           9.243   7.054  -5.434  0.00  0.00     0.031 H 
ENDBRANCH   5  21
BRANCH   4  25
ATOM     25  O4  MFU d           9.681   5.992  -3.324  0.00  0.00    -0.390 OA
ATOM     26  H11 MFU d           9.841   6.288  -2.436  0.00  0.00     0.210 HD
ENDBRANCH   4  25
TORSDOF 6
ENDMDL
MODEL 9
REMARK VINA RESULT:      -3.6      1.773      2.048
REMARK  6 active torsions:
REMARK  status: ('A' for Active; 'I' for Inactive)
REMARK    1  A    between atoms: C1_1  and  O1_7 
REMARK    2  A    between atoms: C2_2  and  O2_8 
REMARK    3  A    between atoms: C3_3  and  O3_9 
REMARK    4  A    between atoms: C4_4  and  O4_10 
REMARK    5  A    between atoms: C5_5  and  C6_6 
REMARK    6  A    between atoms: O1_7  and  CM_12 
ROOT
ATOM      1  C1  MFU d          12.008   4.464  -2.885  0.00  0.00     0.158 C 
ATOM      2  C2  MFU d          10.647   4.633  -3.592  0.00  0.00     0.110 C 
ATOM      3  C3  MFU d          10.830   4.564  -5.106  0.00  0.00     0.092 C 
ATOM      4  C4  MFU d          11.634   3.325  -5.502  0.00  0.00     0.087 C 
ATOM      5  C5  MFU d          12.931   3.170  -4.697  0.00  0.00     0.065 C 
ATOM      6  O5  MFU d          12.641   3.230  -3.293  0.00  0.00    -0.351 OA
ATOM      7  H1  MFU d          11.849   4.443  -1.797  0.00  0.00     0.133 H 
ATOM      8  H2  MFU d          10.014   3.788  -3.283  0.00  0.00     0.094 H 
ATOM      9  H3  MFU d          11.348   5.471  -5.452  0.00  0.00     0.091 H 
ATOM     10  H4  MFU d          11.893   3.401  -6.569  0.00  0.00     0.091 H 
ATOM     11  H5  MFU d          13.588   4.015  -4.947  0.00  0.00     0.086 H 
ENDROOT
BRANCH   1  12
ATOM     12  O1  MFU d          12.851   5.581  -3.222  0.00  0.00    -0.363 OA
BRANCH  12  13
ATOM     13  CM  MFU d          14.056   5.687  -2.448  0.00  0.00     0.007 C 
ATOM     14  H12 MFU d          14.863   6.086  -3.079  0.00  0.00     0.066 H 
ATOM     15  H13 MFU d          14.341   4.692  -2.074  0.00  0.00     0.066 H 
ATOM     16  H14 MFU d          13.887   6.364  -1.597  0.00  0.00     0.066 H 
ENDBRANCH  12  13
ENDBRANCH   1  12
BRANCH   2  17
ATOM     17  O2  MFU d           9.931   5.854  -3.258  0.00  0.00    -0.388 OA
ATOM     18  H9  MFU d           9.636   6.276  -4.057  0.00  0.00     0.210 HD
ENDBRANCH   2  17
BRANCH   3  19
ATOM     19  O3  MFU d           9.549   4.454  -5.740  0.00  0.00    -0.390 OA
ATOM     20  H10 MFU d           9.505   3.639  -6.225  0.00  0.00     0.210 HD
ENDBRANCH   3  19
BRANCH   5  21
ATOM     21  C6  MFU d          13.676   1.879  -5.050  0.00  0.00    -0.050 C 
ATOM     22  H6  MFU d          13.999   1.918  -6.100  0.00  0.00     0.031 H 
ATOM     23  H7  MFU d          13.007   1.017  -4.904  0.00  0.00     0.031 H 
ATOM     24  H8  MFU d          14.557   1.775  -4.399  0.00  0.00     0.031 H 
ENDBRANCH   5  21
BRANCH   4  25
ATOM     25  O4  MFU d          10.806   2.166  -5.293  0.00  0.00    -0.390 OA
ATOM     26  H11 MFU d          10.340   1.962  -6.095  0.00  0.00     0.210 HD
ENDBRANCH   4  25
TORSDOF 6
ENDMDL
MODEL 10
REMARK VINA RESULT:      -3.5      1.651      4.253
REMARK  6 active torsions:
REMARK  status: ('A' for Active; 'I' for Inactive)
REMARK    1  A    between atoms: C1_1  and  O1_7 
REMARK    2  A    between atoms: C2_2  and  O2_8 
REMARK    3  A    between atoms: C3_3  and  O3_9 
REMARK    4  A    between atoms: C4_4  and  O4_10 
REMARK    5  A    between atoms: C5_5  and  C6_6 
REMARK    6  A    between atoms: O1_7  and  CM_12 
ROOT
ATOM      1  C1  MFU d          10.463   2.453  -3.370  0.00  0.00     0.158 C 
ATOM      2  C2  MFU d          12.001   2.387  -3.477  0.00  0.00     0.110 C 
ATOM      3  C3  MFU d          12.490   3.332  -4.571  0.00  0.00     0.092 C 
ATOM      4  C4  MFU d          11.898   4.730  -4.390  0.00  0.00     0.087 C 
ATOM      5  C5  MFU d          10.376   4.715  -4.198  0.00  0.00     0.065 C 
ATOM      6  O5  MFU d          10.029   3.813  -3.137  0.00  0.00    -0.351 OA
ATOM      7  H1  MFU d          10.132   1.824  -2.530  0.00  0.00     0.133 H 
ATOM      8  H2  MFU d          12.408   2.733  -2.516  0.00  0.00     0.094 H 
ATOM      9  H3  MFU d          12.205   2.931  -5.555  0.00  0.00     0.091 H 
ATOM     10  H4  MFU d          12.131   5.328  -5.283  0.00  0.00     0.091 H 
ATOM     11  H5  MFU d           9.921   4.343  -5.127  0.00  0.00     0.086 H 
ENDROOT
BRANCH   1  12
ATOM     12  O1  MFU d           9.887   1.958  -4.593  0.00  0.00    -0.363 OA
BRANCH  12  13
ATOM     13  CM  MFU d           9.318   0.643  -4.507  0.00  0.00     0.007 C 
ATOM     14  H12 MFU d           8.402   0.599  -5.115  0.00  0.00     0.066 H 
ATOM     15  H13 MFU d           9.072   0.417  -3.458  0.00  0.00     0.066 H 
ATOM     16  H14 MFU d          10.042  -0.096  -4.881  0.00  0.00     0.066 H 
ENDBRANCH  12  13
ENDBRANCH   1  12
BRANCH   2  17
ATOM     17  O2  MFU d          12.540   1.060  -3.724  0.00  0.00    -0.388 OA
ATOM     18  H9  MFU d          13.379   1.136  -4.162  0.00  0.00     0.210 HD
ENDBRANCH   2  17
BRANCH   3  19
ATOM     19  O3  MFU d          13.916   3.465  -4.486  0.00  0.00    -0.390 OA
ATOM     20  H10 MFU d          14.327   2.698  -4.867  0.00  0.00     0.210 HD
ENDBRANCH   3  19
BRANCH   5  21
ATOM     21  C6  MFU d           9.816   6.116  -3.933  0.00  0.00    -0.050 C 
ATOM     22  H6  MFU d           8.819   6.032  -3.476  0.00  0.00     0.031 H 
ATOM     23  H7  MFU d           9.737   6.665  -4.884  0.00  0.00     0.031 H 
ATOM     24  H8  MFU d          10.488   6.657  -3.251  0.00  0.00     0.031 H 
ENDBRANCH   5  21
BRANCH   4  25
ATOM     25  O4  MFU d          12.514   5.333  -3.236  0.00  0.00    -0.390 OA
ATOM     26  H11 MFU d          11.880   5.386  -2.532  0.00  0.00     0.210 HD
ENDBRANCH   4  25
TORSDOF 6
ENDMDL
