MODEL 1
REMARK VINA RESULT:      -7.5      0.000      0.000
REMARK  1 active torsions:
REMARK  status: ('A' for Active; 'I' for Inactive)
REMARK    1  A    between atoms: C3_3  and  N15_15 
ROOT
ATOM      1  C1  PRL d           9.003  23.271  49.555  0.00  0.00    -0.069 A 
ATOM      2  C2  PRL d           9.805  23.562  48.533  0.00  0.00    -0.057 A 
ATOM      3  C3  PRL d          10.801  22.632  48.051  0.00  0.00     0.028 A 
ATOM      4  C4  PRL d          10.915  21.414  48.696  0.00  0.00    -0.029 A 
ATOM      5  C5  PRL d           9.475  18.165  51.911  0.00  0.00    -0.029 A 
ATOM      6  C6  PRL d           8.645  17.729  52.930  0.00  0.00     0.028 A 
ATOM      7  C7  PRL d           7.634  18.641  53.421  0.00  0.00    -0.057 A 
ATOM      8  C8  PRL d           7.490  19.869  52.920  0.00  0.00    -0.069 A 
ATOM      9  C9  PRL d           8.245  21.606  51.269  0.00  0.00    -0.059 A 
ATOM     10  N10 PRL d          10.158  19.857  50.357  0.00  0.00    -0.247 NA
ATOM     11  C11 PRL d          10.090  21.092  49.752  0.00  0.00     0.070 A 
ATOM     12  C12 PRL d           8.341  20.353  51.852  0.00  0.00    -0.006 A 
ATOM     13  C13 PRL d           9.081  22.002  50.238  0.00  0.00    -0.006 A 
ATOM     14  C14 PRL d           9.342  19.429  51.380  0.00  0.00     0.070 A 
ATOM     15  N16 PRL d           8.755  16.483  53.445  0.00  0.00    -0.399 N 
ATOM     16  H1  PRL d           8.274  24.003  49.882  0.00  0.00     0.085 H 
ATOM     17  H2  PRL d           9.709  24.527  48.047  0.00  0.00     0.086 H 
ATOM     18  H3  PRL d          11.664  20.702  48.366  0.00  0.00     0.090 H 
ATOM     19  H4  PRL d          10.241  17.501  51.526  0.00  0.00     0.090 H 
ATOM     20  H5  PRL d           6.974  18.317  54.218  0.00  0.00     0.086 H 
ATOM     21  H6  PRL d           6.720  20.519  53.320  0.00  0.00     0.085 H 
ATOM     22  H7  PRL d           7.493  22.298  51.631  0.00  0.00     0.086 H 
ATOM     23  H10 PRL d           9.477  15.840  53.090  0.00  0.00     0.156 HD
ATOM     24  H11 PRL d           8.115  16.177  54.193  0.00  0.00     0.156 HD
ENDROOT
BRANCH   3  25
ATOM     25  N15 PRL d          11.532  22.926  46.951  0.00  0.00    -0.399 N 
ATOM     26  H8  PRL d          11.193  23.632  46.282  0.00  0.00     0.156 HD
ATOM     27  H9  PRL d          12.426  22.444  46.782  0.00  0.00     0.156 HD
ENDBRANCH   3  25
TORSDOF 1
ENDMDL
MODEL 2
REMARK VINA RESULT:      -7.4      0.239      5.668
REMARK  1 active torsions:
REMARK  status: ('A' for Active; 'I' for Inactive)
REMARK    1  A    between atoms: C3_3  and  N15_15 
ROOT
ATOM      1  C1  PRL d           7.661  19.781  52.796  0.00  0.00    -0.069 A 
ATOM      2  C2  PRL d           7.880  18.569  53.304  0.00  0.00    -0.057 A 
ATOM      3  C3  PRL d           8.875  17.675  52.754  0.00  0.00     0.028 A 
ATOM      4  C4  PRL d           9.599  18.108  51.659  0.00  0.00    -0.029 A 
ATOM      5  C5  PRL d          10.873  21.448  48.466  0.00  0.00    -0.029 A 
ATOM      6  C6  PRL d          10.783  22.711  47.908  0.00  0.00     0.028 A 
ATOM      7  C7  PRL d           9.801  23.626  48.451  0.00  0.00    -0.057 A 
ATOM      8  C8  PRL d           8.997  23.281  49.458  0.00  0.00    -0.069 A 
ATOM      9  C9  PRL d           8.282  21.538  51.120  0.00  0.00    -0.059 A 
ATOM     10  N10 PRL d          10.153  19.820  50.072  0.00  0.00    -0.247 NA
ATOM     11  C11 PRL d           9.391  19.361  51.123  0.00  0.00     0.070 A 
ATOM     12  C12 PRL d           9.069  21.967  50.064  0.00  0.00    -0.006 A 
ATOM     13  C13 PRL d           8.412  20.272  51.666  0.00  0.00    -0.006 A 
ATOM     14  C14 PRL d          10.053  21.072  49.507  0.00  0.00     0.070 A 
ATOM     15  N16 PRL d          11.597  23.097  46.899  0.00  0.00    -0.399 N 
ATOM     16  H1  PRL d           6.902  20.412  53.242  0.00  0.00     0.085 H 
ATOM     17  H2  PRL d           7.294  18.242  54.156  0.00  0.00     0.086 H 
ATOM     18  H3  PRL d          10.341  17.453  51.215  0.00  0.00     0.090 H 
ATOM     19  H4  PRL d          11.600  20.743  48.078  0.00  0.00     0.090 H 
ATOM     20  H5  PRL d           9.715  24.621  48.026  0.00  0.00     0.086 H 
ATOM     21  H6  PRL d           8.275  23.998  49.830  0.00  0.00     0.085 H 
ATOM     22  H7  PRL d           7.541  22.214  51.532  0.00  0.00     0.086 H 
ATOM     23  H10 PRL d          12.293  22.440  46.518  0.00  0.00     0.156 HD
ATOM     24  H11 PRL d          11.520  24.048  46.511  0.00  0.00     0.156 HD
ENDROOT
BRANCH   3  25
ATOM     25  N15 PRL d           9.133  16.492  53.356  0.00  0.00    -0.399 N 
ATOM     26  H8  PRL d           9.238  16.447  54.379  0.00  0.00     0.156 HD
ATOM     27  H9  PRL d           9.224  15.635  52.791  0.00  0.00     0.156 HD
ENDBRANCH   3  25
TORSDOF 1
ENDMDL
MODEL 3
REMARK VINA RESULT:      -7.2      1.475      6.151
REMARK  1 active torsions:
REMARK  status: ('A' for Active; 'I' for Inactive)
REMARK    1  A    between atoms: C3_3  and  N15_15 
ROOT
ATOM      1  C1  PRL d           9.706  18.723  51.480  0.00  0.00    -0.069 A 
ATOM      2  C2  PRL d           8.901  18.538  52.526  0.00  0.00    -0.057 A 
ATOM      3  C3  PRL d           7.986  19.562  52.979  0.00  0.00     0.028 A 
ATOM      4  C4  PRL d           7.973  20.765  52.299  0.00  0.00    -0.029 A 
ATOM      5  C5  PRL d           9.346  23.622  48.704  0.00  0.00    -0.029 A 
ATOM      6  C6  PRL d          10.080  23.893  47.562  0.00  0.00     0.028 A 
ATOM      7  C7  PRL d          10.995  22.878  47.084  0.00  0.00    -0.057 A 
ATOM      8  C8  PRL d          11.141  21.710  47.712  0.00  0.00    -0.069 A 
ATOM      9  C9  PRL d          10.468  20.203  49.607  0.00  0.00    -0.059 A 
ATOM     10  N10 PRL d           8.740  22.147  50.493  0.00  0.00    -0.247 NA
ATOM     11  C11 PRL d           8.794  20.973  51.211  0.00  0.00     0.070 A 
ATOM     12  C12 PRL d          10.385  21.396  48.907  0.00  0.00    -0.006 A 
ATOM     13  C13 PRL d           9.704  19.959  50.736  0.00  0.00    -0.006 A 
ATOM     14  C14 PRL d           9.481  22.422  49.366  0.00  0.00     0.070 A 
ATOM     15  N16 PRL d           9.940  25.060  46.893  0.00  0.00    -0.399 N 
ATOM     16  H1  PRL d          10.376  17.926  51.182  0.00  0.00     0.085 H 
ATOM     17  H2  PRL d           8.933  17.592  53.054  0.00  0.00     0.086 H 
ATOM     18  H3  PRL d           7.308  21.557  52.626  0.00  0.00     0.090 H 
ATOM     19  H4  PRL d           8.653  24.366  49.082  0.00  0.00     0.090 H 
ATOM     20  H5  PRL d          11.578  23.072  46.191  0.00  0.00     0.086 H 
ATOM     21  H6  PRL d          11.840  20.980  47.320  0.00  0.00     0.085 H 
ATOM     22  H7  PRL d          11.152  19.437  49.260  0.00  0.00     0.086 H 
ATOM     23  H10 PRL d           9.287  25.778  47.239  0.00  0.00     0.156 HD
ATOM     24  H11 PRL d          10.486  25.232  46.036  0.00  0.00     0.156 HD
ENDROOT
BRANCH   3  25
ATOM     25  N15 PRL d           7.119  19.303  53.984  0.00  0.00    -0.399 N 
ATOM     26  H8  PRL d           6.163  19.685  53.951  0.00  0.00     0.156 HD
ATOM     27  H9  PRL d           7.414  18.723  54.782  0.00  0.00     0.156 HD
ENDBRANCH   3  25
TORSDOF 1
ENDMDL
MODEL 4
REMARK VINA RESULT:      -6.9      1.514      2.482
REMARK  1 active torsions:
REMARK  status: ('A' for Active; 'I' for Inactive)
REMARK    1  A    between atoms: C3_3  and  N15_15 
ROOT
ATOM      1  C1  PRL d          11.235  21.670  47.694  0.00  0.00    -0.069 A 
ATOM      2  C2  PRL d          11.154  22.834  47.051  0.00  0.00    -0.057 A 
ATOM      3  C3  PRL d          10.207  23.857  47.435  0.00  0.00     0.028 A 
ATOM      4  C4  PRL d           9.362  23.591  48.496  0.00  0.00    -0.029 A 
ATOM      5  C5  PRL d           7.851  20.864  52.137  0.00  0.00    -0.029 A 
ATOM      6  C6  PRL d           7.901  19.726  52.921  0.00  0.00     0.028 A 
ATOM      7  C7  PRL d           8.850  18.692  52.561  0.00  0.00    -0.057 A 
ATOM      8  C8  PRL d           9.659  18.816  51.507  0.00  0.00    -0.069 A 
ATOM      9  C9  PRL d          10.447  20.206  49.570  0.00  0.00    -0.059 A 
ATOM     10  N10 PRL d           8.638  22.151  50.274  0.00  0.00    -0.247 NA
ATOM     11  C11 PRL d           9.436  22.395  49.178  0.00  0.00     0.070 A 
ATOM     12  C12 PRL d           9.631  19.996  50.669  0.00  0.00    -0.006 A 
ATOM     13  C13 PRL d          10.382  21.367  48.817  0.00  0.00    -0.006 A 
ATOM     14  C14 PRL d           8.678  21.011  51.045  0.00  0.00     0.070 A 
ATOM     15  N16 PRL d           7.107  19.580  54.007  0.00  0.00    -0.399 N 
ATOM     16  H1  PRL d          11.959  20.933  47.365  0.00  0.00     0.085 H 
ATOM     17  H2  PRL d          11.817  23.019  46.214  0.00  0.00     0.086 H 
ATOM     18  H3  PRL d           8.631  24.333  48.797  0.00  0.00     0.090 H 
ATOM     19  H4  PRL d           7.150  21.653  52.385  0.00  0.00     0.090 H 
ATOM     20  H5  PRL d           8.904  17.793  53.164  0.00  0.00     0.086 H 
ATOM     21  H6  PRL d          10.351  18.015  51.274  0.00  0.00     0.085 H 
ATOM     22  H7  PRL d          11.159  19.438  49.289  0.00  0.00     0.086 H 
ATOM     23  H10 PRL d           6.435  20.320  54.256  0.00  0.00     0.156 HD
ATOM     24  H11 PRL d           7.174  18.729  54.584  0.00  0.00     0.156 HD
ENDROOT
BRANCH   3  25
ATOM     25  N15 PRL d          10.219  25.060  46.819  0.00  0.00    -0.399 N 
ATOM     26  H8  PRL d          10.656  25.160  45.891  0.00  0.00     0.156 HD
ATOM     27  H9  PRL d           9.792  25.878  47.276  0.00  0.00     0.156 HD
ENDBRANCH   3  25
TORSDOF 1
ENDMDL
MODEL 5
REMARK VINA RESULT:      -5.6      1.684      2.713
REMARK  1 active torsions:
REMARK  status: ('A' for Active; 'I' for Inactive)
REMARK    1  A    between atoms: C3_3  and  N15_15 
ROOT
ATOM      1  C1  PRL d          10.385  21.493  49.265  0.00  0.00    -0.069 A 
ATOM      2  C2  PRL d           9.804  22.687  49.153  0.00  0.00    -0.057 A 
ATOM      3  C3  PRL d           8.607  23.028  49.888  0.00  0.00     0.028 A 
ATOM      4  C4  PRL d           8.058  22.065  50.714  0.00  0.00    -0.029 A 
ATOM      5  C5  PRL d           8.118  17.779  52.858  0.00  0.00    -0.029 A 
ATOM      6  C6  PRL d           8.679  16.539  53.108  0.00  0.00     0.028 A 
ATOM      7  C7  PRL d           9.885  16.180  52.392  0.00  0.00    -0.057 A 
ATOM      8  C8  PRL d          10.453  17.007  51.512  0.00  0.00    -0.069 A 
ATOM      9  C9  PRL d          10.429  19.232  50.346  0.00  0.00    -0.059 A 
ATOM     10  N10 PRL d           8.140  19.887  51.717  0.00  0.00    -0.247 NA
ATOM     11  C11 PRL d           8.648  20.827  50.848  0.00  0.00     0.070 A 
ATOM     12  C12 PRL d           9.891  18.312  51.231  0.00  0.00    -0.006 A 
ATOM     13  C13 PRL d           9.851  20.472  50.134  0.00  0.00    -0.006 A 
ATOM     14  C14 PRL d           8.690  18.647  51.954  0.00  0.00     0.070 A 
ATOM     15  N16 PRL d           8.136  15.687  54.008  0.00  0.00    -0.399 N 
ATOM     16  H1  PRL d          11.280  21.284  48.691  0.00  0.00     0.085 H 
ATOM     17  H2  PRL d          10.243  23.425  48.491  0.00  0.00     0.086 H 
ATOM     18  H3  PRL d           7.151  22.288  51.265  0.00  0.00     0.090 H 
ATOM     19  H4  PRL d           7.214  18.072  53.382  0.00  0.00     0.090 H 
ATOM     20  H5  PRL d          10.339  15.213  52.575  0.00  0.00     0.086 H 
ATOM     21  H6  PRL d          11.354  16.695  50.997  0.00  0.00     0.085 H 
ATOM     22  H7  PRL d          11.330  18.972  49.801  0.00  0.00     0.086 H 
ATOM     23  H10 PRL d           7.277  15.949  54.514  0.00  0.00     0.156 HD
ATOM     24  H11 PRL d           8.581  14.775  54.188  0.00  0.00     0.156 HD
ENDROOT
BRANCH   3  25
ATOM     25  N15 PRL d           8.101  24.280  49.820  0.00  0.00    -0.399 N 
ATOM     26  H8  PRL d           7.828  24.773  50.682  0.00  0.00     0.156 HD
ATOM     27  H9  PRL d           7.989  24.742  48.906  0.00  0.00     0.156 HD
ENDBRANCH   3  25
TORSDOF 1
ENDMDL
MODEL 6
REMARK VINA RESULT:      -5.5      1.661      6.042
REMARK  1 active torsions:
REMARK  status: ('A' for Active; 'I' for Inactive)
REMARK    1  A    between atoms: C3_3  and  N15_15 
ROOT
ATOM      1  C1  PRL d          10.376  16.977  51.562  0.00  0.00    -0.069 A 
ATOM      2  C2  PRL d           9.777  16.163  52.429  0.00  0.00    -0.057 A 
ATOM      3  C3  PRL d           8.633  16.581  53.208  0.00  0.00     0.028 A 
ATOM      4  C4  PRL d           8.173  17.873  53.041  0.00  0.00    -0.029 A 
ATOM      5  C5  PRL d           8.213  22.142  50.862  0.00  0.00    -0.029 A 
ATOM      6  C6  PRL d           8.708  23.044  49.937  0.00  0.00     0.028 A 
ATOM      7  C7  PRL d           9.847  22.643  49.138  0.00  0.00    -0.057 A 
ATOM      8  C8  PRL d          10.416  21.444  49.275  0.00  0.00    -0.069 A 
ATOM      9  C9  PRL d          10.443  19.210  50.425  0.00  0.00    -0.059 A 
ATOM     10  N10 PRL d           8.283  19.997  51.929  0.00  0.00    -0.247 NA
ATOM     11  C11 PRL d           8.776  18.729  52.144  0.00  0.00     0.070 A 
ATOM     12  C12 PRL d           9.919  20.478  50.233  0.00  0.00    -0.006 A 
ATOM     13  C13 PRL d           9.910  18.326  51.348  0.00  0.00    -0.006 A 
ATOM     14  C14 PRL d           8.786  20.899  51.019  0.00  0.00     0.070 A 
ATOM     15  N16 PRL d           8.141  24.260  49.761  0.00  0.00    -0.399 N 
ATOM     16  H1  PRL d          11.232  16.619  51.003  0.00  0.00     0.085 H 
ATOM     17  H2  PRL d          10.159  15.156  52.555  0.00  0.00     0.086 H 
ATOM     18  H3  PRL d           7.327  18.220  53.624  0.00  0.00     0.090 H 
ATOM     19  H4  PRL d           7.360  22.418  51.473  0.00  0.00     0.090 H 
ATOM     20  H5  PRL d          10.249  23.336  48.407  0.00  0.00     0.086 H 
ATOM     21  H6  PRL d          11.269  21.187  48.657  0.00  0.00     0.085 H 
ATOM     22  H7  PRL d          11.298  18.900  49.834  0.00  0.00     0.086 H 
ATOM     23  H10 PRL d           7.331  24.538  50.334  0.00  0.00     0.156 HD
ATOM     24  H11 PRL d           8.519  24.907  49.055  0.00  0.00     0.156 HD
ENDROOT
BRANCH   3  25
ATOM     25  N15 PRL d           7.995  15.696  54.008  0.00  0.00    -0.399 N 
ATOM     26  H8  PRL d           8.510  14.898  54.407  0.00  0.00     0.156 HD
ATOM     27  H9  PRL d           6.994  15.819  54.218  0.00  0.00     0.156 HD
ENDBRANCH   3  25
TORSDOF 1
ENDMDL
