MODEL 1
REMARK VINA RESULT:      -6.2      0.000      0.000
REMARK  15 active torsions:
REMARK  status: ('A' for Active; 'I' for Inactive)
REMARK    1  A    between atoms: CA_2  and  N_1 
REMARK    2  A    between atoms: C_3  and  CA_2 
REMARK    3  A    between atoms: CA_2  and  CB_5 
REMARK       I    between atoms: N_10  and  C_3 
REMARK    4  A    between atoms: CB_5  and  CG_6 
REMARK    5  A    between atoms: CG_6  and  CD_7 
REMARK    6  A    between atoms: CA_11  and  N_10 
REMARK    7  A    between atoms: C_12  and  CA_11 
REMARK    8  A    between atoms: CA_11  and  CB_14 
REMARK       I    between atoms: C_12  and  N_18 
REMARK    9  A    between atoms: CB_14  and  CG_15 
REMARK   10  A    between atoms: N_18  and  CA_19 
REMARK   11  A    between atoms: CA_19  and  C_20 
REMARK   12  A    between atoms: CA_19  and  CB_22 
REMARK   13  A    between atoms: CB_22  and  CG_23 
REMARK   14  A    between atoms: CG_23  and  CD2_25 
REMARK   15  A    between atoms: CG_23  and  CD1_24 
ROOT
ATOM      1  CA  MOL d           9.542  26.088   6.564  0.00  0.00     0.098 C 
ATOM      2  H10 MOL d           9.964  26.927   5.990  0.00  0.00     0.088 H 
ENDROOT
BRANCH   1   3
ATOM      3  C   MOL d          10.260  24.811   6.166  0.00  0.00     0.241 C 
ATOM      4  O   MOL d          10.384  23.880   6.966  0.00  0.00    -0.271 OA
ATOM      5  N   MOL d          10.688  24.761   4.908  0.00  0.00    -0.345 N 
ATOM      6  H13 MOL d          10.541  25.554   4.316  0.00  0.00     0.163 HD
BRANCH   5   7
ATOM      7  CA  MOL d          11.363  23.593   4.363  0.00  0.00     0.096 C 
ATOM      8  H14 MOL d          10.978  22.705   4.886  0.00  0.00     0.089 H 
BRANCH   7   9
ATOM      9  C   MOL d          12.868  23.629   4.559  0.00  0.00     0.196 C 
ATOM     10  OXT MOL d          13.415  24.743   4.690  0.00  0.00    -0.646 OA
ATOM     11  O   MOL d          13.484  22.543   4.581  0.00  0.00    -0.646 OA
ENDBRANCH   7   9
BRANCH   7  12
ATOM     12  CB  MOL d          11.029  23.467   2.884  0.00  0.00    -0.034 C 
ATOM     13  H15 MOL d          11.698  22.729   2.418  0.00  0.00     0.037 H 
ATOM     14  H16 MOL d          11.161  24.442   2.393  0.00  0.00     0.037 H 
BRANCH  12  15
ATOM     15  CG  MOL d           9.582  23.011   2.729  0.00  0.00    -0.059 C 
ATOM     16  H17 MOL d           9.162  22.844   3.732  0.00  0.00     0.038 H 
BRANCH  15  17
ATOM     17  CD2 MOL d           9.539  21.688   1.979  0.00  0.00    -0.073 C 
ATOM     18  H21 MOL d          10.152  20.945   2.510  0.00  0.00     0.028 H 
ATOM     19  H22 MOL d           9.934  21.830   0.962  0.00  0.00     0.028 H 
ATOM     20  H23 MOL d           8.499  21.333   1.921  0.00  0.00     0.028 H 
ENDBRANCH  15  17
BRANCH  15  21
ATOM     21  CD1 MOL d           8.768  24.079   2.065  0.00  0.00    -0.073 C 
ATOM     22  H18 MOL d           7.728  23.736   1.961  0.00  0.00     0.028 H 
ATOM     23  H19 MOL d           9.184  24.292   1.070  0.00  0.00     0.028 H 
ATOM     24  H20 MOL d           8.792  24.993   2.676  0.00  0.00     0.028 H 
ENDBRANCH  15  21
ENDBRANCH  12  15
ENDBRANCH   7  12
ENDBRANCH   5   7
ENDBRANCH   1   3
BRANCH   1  25
ATOM     25  CB  MOL d           9.709  26.382   8.053  0.00  0.00     0.043 C 
ATOM     26  H11 MOL d          10.745  26.704   8.237  0.00  0.00     0.052 H 
ATOM     27  H12 MOL d           9.502  25.463   8.621  0.00  0.00     0.052 H 
BRANCH  25  28
ATOM     28  CG  MOL d           8.768  27.471   8.525  0.00  0.00     0.175 C 
ATOM     29  OD1 MOL d           8.931  28.615   8.061  0.00  0.00    -0.648 OA
ATOM     30  OD2 MOL d           7.843  27.183   9.318  0.00  0.00    -0.648 OA
ENDBRANCH  25  28
ENDBRANCH   1  25
BRANCH   1  31
ATOM     31  N   MOL d           8.128  25.952   6.244  0.00  0.00    -0.345 N 
ATOM     32  C   MOL d           7.513  26.763   5.393  0.00  0.00     0.249 C 
ATOM     33  O   MOL d           8.075  27.717   4.844  0.00  0.00    -0.271 OA
ATOM     34  H9  MOL d           7.602  25.222   6.681  0.00  0.00     0.163 HD
BRANCH  32  35
ATOM     35  CA  MOL d           6.026  26.491   5.168  0.00  0.00     0.176 C 
ATOM     36  H4  MOL d           5.700  25.731   5.894  0.00  0.00     0.099 H 
BRANCH  35  37
ATOM     37  CB  MOL d           5.777  25.948   3.759  0.00  0.00    -0.021 C 
ATOM     38  H5  MOL d           4.719  25.657   3.682  0.00  0.00     0.037 H 
ATOM     39  H6  MOL d           6.411  25.062   3.613  0.00  0.00     0.037 H 
BRANCH  37  40
ATOM     40  CG  MOL d           6.080  26.939   2.653  0.00  0.00     0.018 C 
ATOM     41  H7  MOL d           7.149  27.199   2.699  0.00  0.00     0.049 H 
ATOM     42  H8  MOL d           5.476  27.843   2.818  0.00  0.00     0.049 H 
BRANCH  40  43
ATOM     43  CD  MOL d           5.774  26.399   1.270  0.00  0.00     0.172 C 
ATOM     44  OE1 MOL d           4.780  25.651   1.123  0.00  0.00    -0.648 OA
ATOM     45  OE2 MOL d           6.524  26.739   0.327  0.00  0.00    -0.648 OA
ENDBRANCH  40  43
ENDBRANCH  37  40
ENDBRANCH  35  37
BRANCH  35  46
ATOM     46  N   MOL d           5.234  27.729   5.399  0.00  0.00    -0.066 N 
ATOM     47  H1  MOL d           4.256  27.536   5.249  0.00  0.00     0.275 HD
ATOM     48  H2  MOL d           5.537  28.446   4.759  0.00  0.00     0.275 HD
ATOM     49  H3  MOL d           5.371  28.044   6.347  0.00  0.00     0.275 HD
ENDBRANCH  35  46
ENDBRANCH  32  35
ENDBRANCH   1  31
TORSDOF 15
ENDMDL
