MODEL 1
REMARK VINA RESULT:      -6.2      0.000      0.000
REMARK  15 active torsions:
REMARK  status: ('A' for Active; 'I' for Inactive)
REMARK    1  A    between atoms: CA_2  and  N_1 
REMARK    2  A    between atoms: C_3  and  CA_2 
REMARK    3  A    between atoms: CA_2  and  CB_5 
REMARK       I    between atoms: N_10  and  C_3 
REMARK    4  A    between atoms: CB_5  and  CG_6 
REMARK    5  A    between atoms: CG_6  and  CD_7 
REMARK    6  A    between atoms: CA_11  and  N_10 
REMARK    7  A    between atoms: C_12  and  CA_11 
REMARK    8  A    between atoms: CA_11  and  CB_14 
REMARK       I    between atoms: C_12  and  N_18 
REMARK    9  A    between atoms: CB_14  and  CG_15 
REMARK   10  A    between atoms: N_18  and  CA_19 
REMARK   11  A    between atoms: CA_19  and  C_20 
REMARK   12  A    between atoms: CA_19  and  CB_22 
REMARK   13  A    between atoms: CB_22  and  CG_23 
REMARK   14  A    between atoms: CG_23  and  CD2_25 
REMARK   15  A    between atoms: CG_23  and  CD1_24 
ROOT
ATOM      1  CA  MOL d           9.636  25.923   6.476  0.00  0.00     0.098 C 
ATOM      2  H10 MOL d          10.216  26.625   5.858  0.00  0.00     0.088 H 
ENDROOT
BRANCH   1   3
ATOM      3  C   MOL d          10.229  24.533   6.328  0.00  0.00     0.241 C 
ATOM      4  O   MOL d          10.414  23.817   7.315  0.00  0.00    -0.271 OA
ATOM      5  N   MOL d          10.478  24.146   5.081  0.00  0.00    -0.345 N 
ATOM      6  H13 MOL d          10.292  24.781   4.331  0.00  0.00     0.163 HD
BRANCH   5   7
ATOM      7  CA  MOL d          11.014  22.829   4.770  0.00  0.00     0.096 C 
ATOM      8  H14 MOL d          10.794  22.165   5.618  0.00  0.00     0.089 H 
BRANCH   7   9
ATOM      9  C   MOL d          12.517  22.832   4.561  0.00  0.00     0.196 C 
ATOM     10  OXT MOL d          13.214  23.534   5.322  0.00  0.00    -0.646 OA
ATOM     11  O   MOL d          12.984  22.130   3.638  0.00  0.00    -0.646 OA
ENDBRANCH   7   9
BRANCH   7  12
ATOM     12  CB  MOL d          10.313  22.283   3.533  0.00  0.00    -0.034 C 
ATOM     13  H15 MOL d           9.609  21.493   3.830  0.00  0.00     0.037 H 
ATOM     14  H16 MOL d          11.060  21.869   2.841  0.00  0.00     0.037 H 
BRANCH  12  15
ATOM     15  CG  MOL d           9.552  23.411   2.845  0.00  0.00    -0.059 C 
ATOM     16  H17 MOL d           9.331  24.187   3.593  0.00  0.00     0.038 H 
BRANCH  15  17
ATOM     17  CD2 MOL d           8.227  22.885   2.313  0.00  0.00    -0.073 C 
ATOM     18  H21 MOL d           7.442  23.638   2.475  0.00  0.00     0.028 H 
ATOM     19  H22 MOL d           7.962  21.958   2.842  0.00  0.00     0.028 H 
ATOM     20  H23 MOL d           8.321  22.678   1.236  0.00  0.00     0.028 H 
ENDBRANCH  15  17
BRANCH  15  21
ATOM     21  CD1 MOL d          10.397  24.034   1.776  0.00  0.00    -0.073 C 
ATOM     22  H18 MOL d          10.032  23.718   0.789  0.00  0.00     0.028 H 
ATOM     23  H19 MOL d          11.441  23.713   1.901  0.00  0.00     0.028 H 
ATOM     24  H20 MOL d          10.339  25.130   1.854  0.00  0.00     0.028 H 
ENDBRANCH  15  21
ENDBRANCH  12  15
ENDBRANCH   7  12
ENDBRANCH   5   7
ENDBRANCH   1   3
BRANCH   1  25
ATOM     25  CB  MOL d           9.681  26.398   7.926  0.00  0.00     0.043 C 
ATOM     26  H11 MOL d          10.666  26.849   8.122  0.00  0.00     0.052 H 
ATOM     27  H12 MOL d           9.535  25.531   8.588  0.00  0.00     0.052 H 
BRANCH  25  28
ATOM     28  CG  MOL d           8.607  27.425   8.220  0.00  0.00     0.175 C 
ATOM     29  OD1 MOL d           7.567  27.028   8.779  0.00  0.00    -0.648 OA
ATOM     30  OD2 MOL d           8.812  28.627   7.938  0.00  0.00    -0.648 OA
ENDBRANCH  25  28
ENDBRANCH   1  25
BRANCH   1  31
ATOM     31  N   MOL d           8.257  25.899   6.008  0.00  0.00    -0.345 N 
ATOM     32  C   MOL d           7.778  26.809   5.169  0.00  0.00     0.249 C 
ATOM     33  O   MOL d           8.444  27.765   4.758  0.00  0.00    -0.271 OA
ATOM     34  H9  MOL d           7.651  25.172   6.330  0.00  0.00     0.163 HD
BRANCH  32  35
ATOM     35  CA  MOL d           6.310  26.647   4.778  0.00  0.00     0.176 C 
ATOM     36  H4  MOL d           6.037  25.586   4.891  0.00  0.00     0.099 H 
BRANCH  35  37
ATOM     37  CB  MOL d           6.087  27.046   3.317  0.00  0.00    -0.021 C 
ATOM     38  H5  MOL d           6.382  28.098   3.197  0.00  0.00     0.037 H 
ATOM     39  H6  MOL d           5.017  26.938   3.088  0.00  0.00     0.037 H 
BRANCH  37  40
ATOM     40  CG  MOL d           6.873  26.214   2.323  0.00  0.00     0.018 C 
ATOM     41  H7  MOL d           6.191  25.489   1.855  0.00  0.00     0.049 H 
ATOM     42  H8  MOL d           7.664  25.676   2.866  0.00  0.00     0.049 H 
BRANCH  40  43
ATOM     43  CD  MOL d           7.518  27.045   1.231  0.00  0.00     0.172 C 
ATOM     44  OE1 MOL d           8.146  28.079   1.553  0.00  0.00    -0.648 OA
ATOM     45  OE2 MOL d           7.405  26.649   0.048  0.00  0.00    -0.648 OA
ENDBRANCH  40  43
ENDBRANCH  37  40
ENDBRANCH  35  37
BRANCH  35  46
ATOM     46  N   MOL d           5.443  27.453   5.679  0.00  0.00    -0.066 N 
ATOM     47  H1  MOL d           5.579  28.433   5.489  0.00  0.00     0.275 HD
ATOM     48  H2  MOL d           5.685  27.259   6.638  0.00  0.00     0.275 HD
ATOM     49  H3  MOL d           4.477  27.212   5.521  0.00  0.00     0.275 HD
ENDBRANCH  35  46
ENDBRANCH  32  35
ENDBRANCH   1  31
TORSDOF 15
ENDMDL
MODEL 2
REMARK VINA RESULT:      -6.2      2.066      6.570
REMARK  15 active torsions:
REMARK  status: ('A' for Active; 'I' for Inactive)
REMARK    1  A    between atoms: CA_2  and  N_1 
REMARK    2  A    between atoms: C_3  and  CA_2 
REMARK    3  A    between atoms: CA_2  and  CB_5 
REMARK       I    between atoms: N_10  and  C_3 
REMARK    4  A    between atoms: CB_5  and  CG_6 
REMARK    5  A    between atoms: CG_6  and  CD_7 
REMARK    6  A    between atoms: CA_11  and  N_10 
REMARK    7  A    between atoms: C_12  and  CA_11 
REMARK    8  A    between atoms: CA_11  and  CB_14 
REMARK       I    between atoms: C_12  and  N_18 
REMARK    9  A    between atoms: CB_14  and  CG_15 
REMARK   10  A    between atoms: N_18  and  CA_19 
REMARK   11  A    between atoms: CA_19  and  C_20 
REMARK   12  A    between atoms: CA_19  and  CB_22 
REMARK   13  A    between atoms: CB_22  and  CG_23 
REMARK   14  A    between atoms: CG_23  and  CD2_25 
REMARK   15  A    between atoms: CG_23  and  CD1_24 
ROOT
ATOM      1  CA  MOL d           8.153  25.703   3.599  0.00  0.00     0.098 C 
ATOM      2  H10 MOL d           8.303  26.162   2.610  0.00  0.00     0.088 H 
ENDROOT
BRANCH   1   3
ATOM      3  C   MOL d           7.905  26.802   4.618  0.00  0.00     0.241 C 
ATOM      4  O   MOL d           8.162  27.978   4.352  0.00  0.00    -0.271 OA
ATOM      5  N   MOL d           7.359  26.407   5.764  0.00  0.00    -0.345 N 
ATOM      6  H13 MOL d           7.170  25.435   5.900  0.00  0.00     0.163 HD
BRANCH   5   7
ATOM      7  CA  MOL d           7.028  27.344   6.828  0.00  0.00     0.096 C 
ATOM      8  H14 MOL d           6.839  28.325   6.368  0.00  0.00     0.089 H 
BRANCH   7   9
ATOM      9  C   MOL d           8.144  27.513   7.842  0.00  0.00     0.196 C 
ATOM     10  OXT MOL d           8.812  28.567   7.808  0.00  0.00    -0.646 OA
ATOM     11  O   MOL d           8.339  26.591   8.662  0.00  0.00    -0.646 OA
ENDBRANCH   7   9
BRANCH   7  12
ATOM     12  CB  MOL d           5.754  26.882   7.522  0.00  0.00    -0.034 C 
ATOM     13  H15 MOL d           5.744  27.254   8.556  0.00  0.00     0.037 H 
ATOM     14  H16 MOL d           5.718  25.783   7.528  0.00  0.00     0.037 H 
BRANCH  12  15
ATOM     15  CG  MOL d           4.544  27.427   6.772  0.00  0.00    -0.059 C 
ATOM     16  H17 MOL d           4.900  28.120   5.996  0.00  0.00     0.038 H 
BRANCH  15  17
ATOM     17  CD2 MOL d           3.659  28.213   7.729  0.00  0.00    -0.073 C 
ATOM     18  H21 MOL d           2.613  27.893   7.607  0.00  0.00     0.028 H 
ATOM     19  H22 MOL d           3.743  29.287   7.508  0.00  0.00     0.028 H 
ATOM     20  H23 MOL d           3.982  28.026   8.764  0.00  0.00     0.028 H 
ENDBRANCH  15  17
BRANCH  15  21
ATOM     21  CD1 MOL d           3.809  26.314   6.089  0.00  0.00    -0.073 C 
ATOM     22  H18 MOL d           2.729  26.518   6.113  0.00  0.00     0.028 H 
ATOM     23  H19 MOL d           4.015  25.367   6.607  0.00  0.00     0.028 H 
ATOM     24  H20 MOL d           4.144  26.241   5.043  0.00  0.00     0.028 H 
ENDBRANCH  15  21
ENDBRANCH  12  15
ENDBRANCH   7  12
ENDBRANCH   5   7
ENDBRANCH   1   3
BRANCH   1  25
ATOM     25  CB  MOL d           6.971  24.741   3.517  0.00  0.00     0.043 C 
ATOM     26  H11 MOL d           6.462  24.720   4.491  0.00  0.00     0.052 H 
ATOM     27  H12 MOL d           7.348  23.735   3.277  0.00  0.00     0.052 H 
BRANCH  25  28
ATOM     28  CG  MOL d           5.975  25.155   2.453  0.00  0.00     0.175 C 
ATOM     29  OD1 MOL d           4.774  25.208   2.777  0.00  0.00    -0.648 OA
ATOM     30  OD2 MOL d           6.388  25.469   1.314  0.00  0.00    -0.648 OA
ENDBRANCH  25  28
ENDBRANCH   1  25
BRANCH   1  31
ATOM     31  N   MOL d           9.356  24.974   3.977  0.00  0.00    -0.345 N 
ATOM     32  C   MOL d          10.133  24.376   3.082  0.00  0.00     0.249 C 
ATOM     33  O   MOL d           9.874  24.352   1.873  0.00  0.00    -0.271 OA
ATOM     34  H9  MOL d           9.606  24.922   4.944  0.00  0.00     0.163 HD
BRANCH  32  35
ATOM     35  CA  MOL d          11.355  23.649   3.640  0.00  0.00     0.176 C 
ATOM     36  H4  MOL d          11.730  22.960   2.868  0.00  0.00     0.099 H 
BRANCH  35  37
ATOM     37  CB  MOL d          10.984  22.827   4.877  0.00  0.00    -0.021 C 
ATOM     38  H5  MOL d          11.324  21.793   4.720  0.00  0.00     0.037 H 
ATOM     39  H6  MOL d           9.890  22.841   4.986  0.00  0.00     0.037 H 
BRANCH  37  40
ATOM     40  CG  MOL d          11.599  23.340   6.164  0.00  0.00     0.018 C 
ATOM     41  H7  MOL d          12.404  24.045   5.912  0.00  0.00     0.049 H 
ATOM     42  H8  MOL d          12.019  22.486   6.716  0.00  0.00     0.049 H 
BRANCH  40  43
ATOM     43  CD  MOL d          10.600  24.048   7.059  0.00  0.00     0.172 C 
ATOM     44  OE1 MOL d          11.005  24.550   8.133  0.00  0.00    -0.648 OA
ATOM     45  OE2 MOL d           9.410  24.113   6.675  0.00  0.00    -0.648 OA
ENDBRANCH  40  43
ENDBRANCH  37  40
ENDBRANCH  35  37
BRANCH  35  46
ATOM     46  N   MOL d          12.433  24.623   3.962  0.00  0.00    -0.066 N 
ATOM     47  H1  MOL d          13.261  24.394   3.436  0.00  0.00     0.275 HD
ATOM     48  H2  MOL d          12.638  24.581   4.948  0.00  0.00     0.275 HD
ATOM     49  H3  MOL d          12.129  25.553   3.720  0.00  0.00     0.275 HD
ENDBRANCH  35  46
ENDBRANCH  32  35
ENDBRANCH   1  31
TORSDOF 15
ENDMDL
MODEL 3
REMARK VINA RESULT:      -6.2      1.848      5.405
REMARK  15 active torsions:
REMARK  status: ('A' for Active; 'I' for Inactive)
REMARK    1  A    between atoms: CA_2  and  N_1 
REMARK    2  A    between atoms: C_3  and  CA_2 
REMARK    3  A    between atoms: CA_2  and  CB_5 
REMARK       I    between atoms: N_10  and  C_3 
REMARK    4  A    between atoms: CB_5  and  CG_6 
REMARK    5  A    between atoms: CG_6  and  CD_7 
REMARK    6  A    between atoms: CA_11  and  N_10 
REMARK    7  A    between atoms: C_12  and  CA_11 
REMARK    8  A    between atoms: CA_11  and  CB_14 
REMARK       I    between atoms: C_12  and  N_18 
REMARK    9  A    between atoms: CB_14  and  CG_15 
REMARK   10  A    between atoms: N_18  and  CA_19 
REMARK   11  A    between atoms: CA_19  and  C_20 
REMARK   12  A    between atoms: CA_19  and  CB_22 
REMARK   13  A    between atoms: CB_22  and  CG_23 
REMARK   14  A    between atoms: CG_23  and  CD2_25 
REMARK   15  A    between atoms: CG_23  and  CD1_24 
ROOT
ATOM      1  CA  MOL d           8.343  26.401   6.058  0.00  0.00     0.098 C 
ATOM      2  H10 MOL d           7.958  25.442   6.433  0.00  0.00     0.088 H 
ENDROOT
BRANCH   1   3
ATOM      3  C   MOL d           7.765  26.657   4.677  0.00  0.00     0.241 C 
ATOM      4  O   MOL d           7.944  27.736   4.107  0.00  0.00    -0.271 OA
ATOM      5  N   MOL d           7.113  25.635   4.131  0.00  0.00    -0.345 N 
ATOM      6  H13 MOL d           7.019  24.787   4.653  0.00  0.00     0.163 HD
BRANCH   5   7
ATOM      7  CA  MOL d           6.531  25.709   2.799  0.00  0.00     0.096 C 
ATOM      8  H14 MOL d           6.472  26.770   2.514  0.00  0.00     0.089 H 
BRANCH   7   9
ATOM      9  C   MOL d           5.129  25.132   2.729  0.00  0.00     0.196 C 
ATOM     10  OXT MOL d           4.995  23.899   2.866  0.00  0.00    -0.646 OA
ATOM     11  O   MOL d           4.177  25.919   2.537  0.00  0.00    -0.646 OA
ENDBRANCH   7   9
BRANCH   7  12
ATOM     12  CB  MOL d           7.444  24.993   1.814  0.00  0.00    -0.034 C 
ATOM     13  H15 MOL d           7.933  25.732   1.163  0.00  0.00     0.037 H 
ATOM     14  H16 MOL d           6.850  24.301   1.200  0.00  0.00     0.037 H 
BRANCH  12  15
ATOM     15  CG  MOL d           8.503  24.211   2.583  0.00  0.00    -0.059 C 
ATOM     16  H17 MOL d           8.407  24.456   3.651  0.00  0.00     0.038 H 
BRANCH  15  17
ATOM     17  CD2 MOL d           9.889  24.640   2.127  0.00  0.00    -0.073 C 
ATOM     18  H21 MOL d          10.281  23.908   1.404  0.00  0.00     0.028 H 
ATOM     19  H22 MOL d          10.561  24.693   2.996  0.00  0.00     0.028 H 
ATOM     20  H23 MOL d           9.829  25.630   1.650  0.00  0.00     0.028 H 
ENDBRANCH  15  17
BRANCH  15  21
ATOM     21  CD1 MOL d           8.275  22.738   2.431  0.00  0.00    -0.073 C 
ATOM     22  H18 MOL d           8.732  22.391   1.492  0.00  0.00     0.028 H 
ATOM     23  H19 MOL d           7.195  22.534   2.409  0.00  0.00     0.028 H 
ATOM     24  H20 MOL d           8.732  22.206   3.278  0.00  0.00     0.028 H 
ENDBRANCH  15  21
ENDBRANCH  12  15
ENDBRANCH   7  12
ENDBRANCH   5   7
ENDBRANCH   1   3
BRANCH   1  25
ATOM     25  CB  MOL d           7.952  27.502   7.040  0.00  0.00     0.043 C 
ATOM     26  H11 MOL d           6.911  27.342   7.357  0.00  0.00     0.052 H 
ATOM     27  H12 MOL d           8.037  28.476   6.534  0.00  0.00     0.052 H 
BRANCH  25  28
ATOM     28  CG  MOL d           8.841  27.510   8.267  0.00  0.00     0.175 C 
ATOM     29  OD1 MOL d           9.316  28.603   8.628  0.00  0.00    -0.648 OA
ATOM     30  OD2 MOL d           9.032  26.444   8.894  0.00  0.00    -0.648 OA
ENDBRANCH  25  28
ENDBRANCH   1  25
BRANCH   1  31
ATOM     31  N   MOL d           9.795  26.327   5.954  0.00  0.00    -0.345 N 
ATOM     32  C   MOL d          10.460  25.192   6.131  0.00  0.00     0.249 C 
ATOM     33  O   MOL d           9.911  24.129   6.441  0.00  0.00    -0.271 OA
ATOM     34  H9  MOL d          10.307  27.159   5.741  0.00  0.00     0.163 HD
BRANCH  32  35
ATOM     35  CA  MOL d          11.979  25.282   5.993  0.00  0.00     0.176 C 
ATOM     36  H4  MOL d          12.265  26.344   6.004  0.00  0.00     0.099 H 
BRANCH  35  37
ATOM     37  CB  MOL d          12.444  24.674   4.667  0.00  0.00    -0.021 C 
ATOM     38  H5  MOL d          13.302  25.256   4.301  0.00  0.00     0.037 H 
ATOM     39  H6  MOL d          11.617  24.746   3.945  0.00  0.00     0.037 H 
BRANCH  37  40
ATOM     40  CG  MOL d          12.863  23.220   4.769  0.00  0.00     0.018 C 
ATOM     41  H7  MOL d          12.900  22.940   5.832  0.00  0.00     0.049 H 
ATOM     42  H8  MOL d          13.864  23.113   4.325  0.00  0.00     0.049 H 
BRANCH  40  43
ATOM     43  CD  MOL d          11.915  22.277   4.054  0.00  0.00     0.172 C 
ATOM     44  OE1 MOL d          10.942  21.806   4.689  0.00  0.00    -0.648 OA
ATOM     45  OE2 MOL d          12.138  22.020   2.850  0.00  0.00    -0.648 OA
ENDBRANCH  40  43
ENDBRANCH  37  40
ENDBRANCH  35  37
BRANCH  35  46
ATOM     46  N   MOL d          12.643  24.605   7.140  0.00  0.00    -0.066 N 
ATOM     47  H1  MOL d          12.516  23.609   7.063  0.00  0.00     0.275 HD
ATOM     48  H2  MOL d          12.235  24.931   8.003  0.00  0.00     0.275 HD
ATOM     49  H3  MOL d          13.628  24.819   7.132  0.00  0.00     0.275 HD
ENDBRANCH  35  46
ENDBRANCH  32  35
ENDBRANCH   1  31
TORSDOF 15
ENDMDL
MODEL 4
REMARK VINA RESULT:      -6.2      2.107      6.030
REMARK  15 active torsions:
REMARK  status: ('A' for Active; 'I' for Inactive)
REMARK    1  A    between atoms: CA_2  and  N_1 
REMARK    2  A    between atoms: C_3  and  CA_2 
REMARK    3  A    between atoms: CA_2  and  CB_5 
REMARK       I    between atoms: N_10  and  C_3 
REMARK    4  A    between atoms: CB_5  and  CG_6 
REMARK    5  A    between atoms: CG_6  and  CD_7 
REMARK    6  A    between atoms: CA_11  and  N_10 
REMARK    7  A    between atoms: C_12  and  CA_11 
REMARK    8  A    between atoms: CA_11  and  CB_14 
REMARK       I    between atoms: C_12  and  N_18 
REMARK    9  A    between atoms: CB_14  and  CG_15 
REMARK   10  A    between atoms: N_18  and  CA_19 
REMARK   11  A    between atoms: CA_19  and  C_20 
REMARK   12  A    between atoms: CA_19  and  CB_22 
REMARK   13  A    between atoms: CB_22  and  CG_23 
REMARK   14  A    between atoms: CG_23  and  CD2_25 
REMARK   15  A    between atoms: CG_23  and  CD1_24 
ROOT
ATOM      1  CA  MOL d           9.043  25.812   6.055  0.00  0.00     0.098 C 
ATOM      2  H10 MOL d           8.508  24.897   6.352  0.00  0.00     0.088 H 
ENDROOT
BRANCH   1   3
ATOM      3  C   MOL d           8.145  26.635   5.149  0.00  0.00     0.241 C 
ATOM      4  O   MOL d           8.560  27.667   4.617  0.00  0.00    -0.271 OA
ATOM      5  N   MOL d           6.927  26.139   4.945  0.00  0.00    -0.345 N 
ATOM      6  H13 MOL d           6.668  25.290   5.406  0.00  0.00     0.163 HD
BRANCH   5   7
ATOM      7  CA  MOL d           5.960  26.791   4.075  0.00  0.00     0.096 C 
ATOM      8  H14 MOL d           6.332  27.802   3.853  0.00  0.00     0.089 H 
BRANCH   7   9
ATOM      9  C   MOL d           4.588  26.931   4.709  0.00  0.00     0.196 C 
ATOM     10  OXT MOL d           3.690  27.488   4.045  0.00  0.00    -0.646 OA
ATOM     11  O   MOL d           4.425  26.481   5.863  0.00  0.00    -0.646 OA
ENDBRANCH   7   9
BRANCH   7  12
ATOM     12  CB  MOL d           5.859  26.015   2.770  0.00  0.00    -0.034 C 
ATOM     13  H15 MOL d           6.587  26.412   2.049  0.00  0.00     0.037 H 
ATOM     14  H16 MOL d           4.844  26.118   2.360  0.00  0.00     0.037 H 
BRANCH  12  15
ATOM     15  CG  MOL d           6.154  24.542   3.034  0.00  0.00    -0.059 C 
ATOM     16  H17 MOL d           6.663  24.459   4.005  0.00  0.00     0.038 H 
BRANCH  15  17
ATOM     17  CD2 MOL d           7.096  24.009   1.964  0.00  0.00    -0.073 C 
ATOM     18  H21 MOL d           7.380  24.827   1.286  0.00  0.00     0.028 H 
ATOM     19  H22 MOL d           6.591  23.216   1.393  0.00  0.00     0.028 H 
ATOM     20  H23 MOL d           7.998  23.598   2.442  0.00  0.00     0.028 H 
ENDBRANCH  15  17
BRANCH  15  21
ATOM     21  CD1 MOL d           4.877  23.762   3.119  0.00  0.00    -0.073 C 
ATOM     22  H18 MOL d           5.065  22.719   2.826  0.00  0.00     0.028 H 
ATOM     23  H19 MOL d           4.131  24.205   2.443  0.00  0.00     0.028 H 
ATOM     24  H20 MOL d           4.499  23.790   4.152  0.00  0.00     0.028 H 
ENDBRANCH  15  21
ENDBRANCH  12  15
ENDBRANCH   7  12
ENDBRANCH   5   7
ENDBRANCH   1   3
BRANCH   1  25
ATOM     25  CB  MOL d           9.425  26.585   7.315  0.00  0.00     0.043 C 
ATOM     26  H11 MOL d          10.315  27.195   7.100  0.00  0.00     0.052 H 
ATOM     27  H12 MOL d           9.657  25.866   8.115  0.00  0.00     0.052 H 
BRANCH  25  28
ATOM     28  CG  MOL d           8.309  27.495   7.782  0.00  0.00     0.175 C 
ATOM     29  OD1 MOL d           7.251  26.961   8.164  0.00  0.00    -0.648 OA
ATOM     30  OD2 MOL d           8.497  28.732   7.812  0.00  0.00    -0.648 OA
ENDBRANCH  25  28
ENDBRANCH   1  25
BRANCH   1  31
ATOM     31  N   MOL d          10.245  25.445   5.318  0.00  0.00    -0.345 N 
ATOM     32  C   MOL d          10.317  24.343   4.582  0.00  0.00     0.249 C 
ATOM     33  O   MOL d           9.394  23.525   4.502  0.00  0.00    -0.271 OA
ATOM     34  H9  MOL d          11.044  26.045   5.368  0.00  0.00     0.163 HD
BRANCH  32  35
ATOM     35  CA  MOL d          11.649  24.099   3.876  0.00  0.00     0.176 C 
ATOM     36  H4  MOL d          11.764  23.016   3.717  0.00  0.00     0.099 H 
BRANCH  35  37
ATOM     37  CB  MOL d          12.820  24.584   4.734  0.00  0.00    -0.021 C 
ATOM     38  H5  MOL d          12.460  25.396   5.384  0.00  0.00     0.037 H 
ATOM     39  H6  MOL d          13.603  24.969   4.066  0.00  0.00     0.037 H 
BRANCH  37  40
ATOM     40  CG  MOL d          13.429  23.508   5.611  0.00  0.00     0.018 C 
ATOM     41  H7  MOL d          14.478  23.772   5.814  0.00  0.00     0.049 H 
ATOM     42  H8  MOL d          13.390  22.551   5.069  0.00  0.00     0.049 H 
BRANCH  40  43
ATOM     43  CD  MOL d          12.709  23.341   6.935  0.00  0.00     0.172 C 
ATOM     44  OE1 MOL d          12.264  24.362   7.510  0.00  0.00    -0.648 OA
ATOM     45  OE2 MOL d          12.577  22.183   7.391  0.00  0.00    -0.648 OA
ENDBRANCH  40  43
ENDBRANCH  37  40
ENDBRANCH  35  37
BRANCH  35  46
ATOM     46  N   MOL d          11.661  24.771   2.548  0.00  0.00    -0.066 N 
ATOM     47  H1  MOL d          10.945  24.370   1.963  0.00  0.00     0.275 HD
ATOM     48  H2  MOL d          12.561  24.641   2.114  0.00  0.00     0.275 HD
ATOM     49  H3  MOL d          11.484  25.756   2.668  0.00  0.00     0.275 HD
ENDBRANCH  35  46
ENDBRANCH  32  35
ENDBRANCH   1  31
TORSDOF 15
ENDMDL
MODEL 5
REMARK VINA RESULT:      -6.1      1.973      4.784
REMARK  15 active torsions:
REMARK  status: ('A' for Active; 'I' for Inactive)
REMARK    1  A    between atoms: CA_2  and  N_1 
REMARK    2  A    between atoms: C_3  and  CA_2 
REMARK    3  A    between atoms: CA_2  and  CB_5 
REMARK       I    between atoms: N_10  and  C_3 
REMARK    4  A    between atoms: CB_5  and  CG_6 
REMARK    5  A    between atoms: CG_6  and  CD_7 
REMARK    6  A    between atoms: CA_11  and  N_10 
REMARK    7  A    between atoms: C_12  and  CA_11 
REMARK    8  A    between atoms: CA_11  and  CB_14 
REMARK       I    between atoms: C_12  and  N_18 
REMARK    9  A    between atoms: CB_14  and  CG_15 
REMARK   10  A    between atoms: N_18  and  CA_19 
REMARK   11  A    between atoms: CA_19  and  C_20 
REMARK   12  A    between atoms: CA_19  and  CB_22 
REMARK   13  A    between atoms: CB_22  and  CG_23 
REMARK   14  A    between atoms: CG_23  and  CD2_25 
REMARK   15  A    between atoms: CG_23  and  CD1_24 
ROOT
ATOM      1  CA  MOL d           7.392  24.826   2.604  0.00  0.00     0.098 C 
ATOM      2  H10 MOL d           6.931  23.839   2.449  0.00  0.00     0.088 H 
ENDROOT
BRANCH   1   3
ATOM      3  C   MOL d           8.723  24.640   3.310  0.00  0.00     0.241 C 
ATOM      4  O   MOL d           9.778  24.981   2.769  0.00  0.00    -0.271 OA
ATOM      5  N   MOL d           8.655  24.141   4.541  0.00  0.00    -0.345 N 
ATOM      6  H13 MOL d           7.760  23.898   4.915  0.00  0.00     0.163 HD
BRANCH   5   7
ATOM      7  CA  MOL d           9.839  23.937   5.362  0.00  0.00     0.096 C 
ATOM      8  H14 MOL d          10.596  24.672   5.053  0.00  0.00     0.089 H 
BRANCH   7   9
ATOM      9  C   MOL d          10.443  22.553   5.202  0.00  0.00     0.196 C 
ATOM     10  OXT MOL d          10.534  22.083   4.049  0.00  0.00    -0.646 OA
ATOM     11  O   MOL d          10.820  21.954   6.231  0.00  0.00    -0.646 OA
ENDBRANCH   7   9
BRANCH   7  12
ATOM     12  CB  MOL d           9.486  24.189   6.821  0.00  0.00    -0.034 C 
ATOM     13  H15 MOL d           9.787  23.323   7.427  0.00  0.00     0.037 H 
ATOM     14  H16 MOL d           8.401  24.342   6.915  0.00  0.00     0.037 H 
BRANCH  12  15
ATOM     15  CG  MOL d          10.220  25.433   7.310  0.00  0.00    -0.059 C 
ATOM     16  H17 MOL d          10.000  26.260   6.618  0.00  0.00     0.038 H 
BRANCH  15  17
ATOM     17  CD2 MOL d          11.721  25.187   7.282  0.00  0.00    -0.073 C 
ATOM     18  H21 MOL d          11.926  24.144   7.569  0.00  0.00     0.028 H 
ATOM     19  H22 MOL d          12.217  25.867   7.991  0.00  0.00     0.028 H 
ATOM     20  H23 MOL d          12.105  25.371   6.268  0.00  0.00     0.028 H 
ENDBRANCH  15  17
BRANCH  15  21
ATOM     21  CD1 MOL d           9.725  25.830   8.668  0.00  0.00    -0.073 C 
ATOM     22  H18 MOL d           9.758  26.925   8.765  0.00  0.00     0.028 H 
ATOM     23  H19 MOL d          10.363  25.374   9.438  0.00  0.00     0.028 H 
ATOM     24  H20 MOL d           8.689  25.483   8.797  0.00  0.00     0.028 H 
ENDBRANCH  15  21
ENDBRANCH  12  15
ENDBRANCH   7  12
ENDBRANCH   5   7
ENDBRANCH   1   3
BRANCH   1  25
ATOM     25  CB  MOL d           7.569  25.501   1.247  0.00  0.00     0.043 C 
ATOM     26  H11 MOL d           7.030  24.915   0.486  0.00  0.00     0.052 H 
ATOM     27  H12 MOL d           8.641  25.526   1.000  0.00  0.00     0.052 H 
BRANCH  25  28
ATOM     28  CG  MOL d           7.033  26.917   1.243  0.00  0.00     0.175 C 
ATOM     29  OD1 MOL d           5.889  27.100   0.786  0.00  0.00    -0.648 OA
ATOM     30  OD2 MOL d           7.727  27.838   1.732  0.00  0.00    -0.648 OA
ENDBRANCH  25  28
ENDBRANCH   1  25
BRANCH   1  31
ATOM     31  N   MOL d           6.521  25.634   3.447  0.00  0.00    -0.345 N 
ATOM     32  C   MOL d           5.276  25.273   3.732  0.00  0.00     0.249 C 
ATOM     33  O   MOL d           4.748  24.254   3.274  0.00  0.00    -0.271 OA
ATOM     34  H9  MOL d           6.873  26.492   3.822  0.00  0.00     0.163 HD
BRANCH  32  35
ATOM     35  CA  MOL d           4.492  26.232   4.625  0.00  0.00     0.176 C 
ATOM     36  H4  MOL d           3.630  26.610   4.054  0.00  0.00     0.099 H 
BRANCH  35  37
ATOM     37  CB  MOL d           5.356  27.427   5.035  0.00  0.00    -0.021 C 
ATOM     38  H5  MOL d           4.700  28.300   5.170  0.00  0.00     0.037 H 
ATOM     39  H6  MOL d           6.072  27.630   4.225  0.00  0.00     0.037 H 
BRANCH  37  40
ATOM     40  CG  MOL d           6.135  27.214   6.318  0.00  0.00     0.018 C 
ATOM     41  H7  MOL d           6.176  26.135   6.528  0.00  0.00     0.049 H 
ATOM     42  H8  MOL d           5.610  27.728   7.136  0.00  0.00     0.049 H 
BRANCH  40  43
ATOM     43  CD  MOL d           7.554  27.745   6.247  0.00  0.00     0.172 C 
ATOM     44  OE1 MOL d           7.979  28.452   7.190  0.00  0.00    -0.648 OA
ATOM     45  OE2 MOL d           8.246  27.439   5.250  0.00  0.00    -0.648 OA
ENDBRANCH  40  43
ENDBRANCH  37  40
ENDBRANCH  35  37
BRANCH  35  46
ATOM     46  N   MOL d           3.981  25.519   5.827  0.00  0.00    -0.066 N 
ATOM     47  H1  MOL d           3.339  26.116   6.325  0.00  0.00     0.275 HD
ATOM     48  H2  MOL d           4.754  25.281   6.429  0.00  0.00     0.275 HD
ATOM     49  H3  MOL d           3.504  24.678   5.542  0.00  0.00     0.275 HD
ENDBRANCH  35  46
ENDBRANCH  32  35
ENDBRANCH   1  31
TORSDOF 15
ENDMDL
MODEL 6
REMARK VINA RESULT:      -6.1      1.746      2.214
REMARK  15 active torsions:
REMARK  status: ('A' for Active; 'I' for Inactive)
REMARK    1  A    between atoms: CA_2  and  N_1 
REMARK    2  A    between atoms: C_3  and  CA_2 
REMARK    3  A    between atoms: CA_2  and  CB_5 
REMARK       I    between atoms: N_10  and  C_3 
REMARK    4  A    between atoms: CB_5  and  CG_6 
REMARK    5  A    between atoms: CG_6  and  CD_7 
REMARK    6  A    between atoms: CA_11  and  N_10 
REMARK    7  A    between atoms: C_12  and  CA_11 
REMARK    8  A    between atoms: CA_11  and  CB_14 
REMARK       I    between atoms: C_12  and  N_18 
REMARK    9  A    between atoms: CB_14  and  CG_15 
REMARK   10  A    between atoms: N_18  and  CA_19 
REMARK   11  A    between atoms: CA_19  and  C_20 
REMARK   12  A    between atoms: CA_19  and  CB_22 
REMARK   13  A    between atoms: CB_22  and  CG_23 
REMARK   14  A    between atoms: CG_23  and  CD2_25 
REMARK   15  A    between atoms: CG_23  and  CD1_24 
ROOT
ATOM      1  CA  MOL d           9.293  26.148   6.255  0.00  0.00     0.098 C 
ATOM      2  H10 MOL d           9.763  26.982   5.714  0.00  0.00     0.088 H 
ENDROOT
BRANCH   1   3
ATOM      3  C   MOL d           9.894  24.843   5.766  0.00  0.00     0.241 C 
ATOM      4  O   MOL d           9.728  23.796   6.396  0.00  0.00    -0.271 OA
ATOM      5  N   MOL d          10.550  24.911   4.611  0.00  0.00    -0.345 N 
ATOM      6  H13 MOL d          10.632  25.797   4.154  0.00  0.00     0.163 HD
BRANCH   5   7
ATOM      7  CA  MOL d          11.153  23.741   3.991  0.00  0.00     0.096 C 
ATOM      8  H14 MOL d          10.565  22.860   4.288  0.00  0.00     0.089 H 
BRANCH   7   9
ATOM      9  C   MOL d          12.588  23.509   4.427  0.00  0.00     0.196 C 
ATOM     10  OXT MOL d          13.043  22.349   4.355  0.00  0.00    -0.646 OA
ATOM     11  O   MOL d          13.245  24.491   4.835  0.00  0.00    -0.646 OA
ENDBRANCH   7   9
BRANCH   7  12
ATOM     12  CB  MOL d          11.081  23.884   2.477  0.00  0.00    -0.034 C 
ATOM     13  H15 MOL d          11.990  23.463   2.025  0.00  0.00     0.037 H 
ATOM     14  H16 MOL d          10.998  24.948   2.213  0.00  0.00     0.037 H 
BRANCH  12  15
ATOM     15  CG  MOL d           9.860  23.133   1.957  0.00  0.00    -0.059 C 
ATOM     16  H17 MOL d           9.998  22.949   0.881  0.00  0.00     0.038 H 
BRANCH  15  17
ATOM     17  CD2 MOL d           8.617  23.994   2.128  0.00  0.00    -0.073 C 
ATOM     18  H21 MOL d           8.594  24.406   3.148  0.00  0.00     0.028 H 
ATOM     19  H22 MOL d           7.720  23.381   1.959  0.00  0.00     0.028 H 
ATOM     20  H23 MOL d           8.639  24.819   1.399  0.00  0.00     0.028 H 
ENDBRANCH  15  17
BRANCH  15  21
ATOM     21  CD1 MOL d           9.738  21.803   2.636  0.00  0.00    -0.073 C 
ATOM     22  H18 MOL d           9.968  21.914   3.705  0.00  0.00     0.028 H 
ATOM     23  H19 MOL d          10.444  21.093   2.181  0.00  0.00     0.028 H 
ATOM     24  H20 MOL d           8.711  21.424   2.520  0.00  0.00     0.028 H 
ENDBRANCH  15  21
ENDBRANCH  12  15
ENDBRANCH   7  12
ENDBRANCH   5   7
ENDBRANCH   1   3
BRANCH   1  25
ATOM     25  CB  MOL d           9.526  26.344   7.751  0.00  0.00     0.043 C 
ATOM     26  H11 MOL d          10.582  26.606   7.915  0.00  0.00     0.052 H 
ATOM     27  H12 MOL d           9.296  25.403   8.272  0.00  0.00     0.052 H 
BRANCH  25  28
ATOM     28  CG  MOL d           8.655  27.445   8.322  0.00  0.00     0.175 C 
ATOM     29  OD1 MOL d           9.030  28.621   8.156  0.00  0.00    -0.648 OA
ATOM     30  OD2 MOL d           7.583  27.146   8.894  0.00  0.00    -0.648 OA
ENDBRANCH  25  28
ENDBRANCH   1  25
BRANCH   1  31
ATOM     31  N   MOL d           7.863  26.142   5.976  0.00  0.00    -0.345 N 
ATOM     32  C   MOL d           7.338  26.803   4.952  0.00  0.00     0.249 C 
ATOM     33  O   MOL d           8.009  27.506   4.188  0.00  0.00    -0.271 OA
ATOM     34  H9  MOL d           7.256  25.622   6.577  0.00  0.00     0.163 HD
BRANCH  32  35
ATOM     35  CA  MOL d           5.822  26.700   4.799  0.00  0.00     0.176 C 
ATOM     36  H4  MOL d           5.506  25.704   5.142  0.00  0.00     0.099 H 
BRANCH  35  37
ATOM     37  CB  MOL d           5.409  26.855   3.333  0.00  0.00    -0.021 C 
ATOM     38  H5  MOL d           6.238  26.503   2.701  0.00  0.00     0.037 H 
ATOM     39  H6  MOL d           5.224  27.921   3.136  0.00  0.00     0.037 H 
BRANCH  37  40
ATOM     40  CG  MOL d           4.162  26.078   2.958  0.00  0.00     0.018 C 
ATOM     41  H7  MOL d           3.868  26.359   1.936  0.00  0.00     0.049 H 
ATOM     42  H8  MOL d           3.358  26.347   3.659  0.00  0.00     0.049 H 
BRANCH  40  43
ATOM     43  CD  MOL d           4.361  24.575   3.006  0.00  0.00     0.172 C 
ATOM     44  OE1 MOL d           5.011  24.025   2.087  0.00  0.00    -0.648 OA
ATOM     45  OE2 MOL d           3.877  23.949   3.976  0.00  0.00    -0.648 OA
ENDBRANCH  40  43
ENDBRANCH  37  40
ENDBRANCH  35  37
BRANCH  35  46
ATOM     46  N   MOL d           5.146  27.723   5.643  0.00  0.00    -0.066 N 
ATOM     47  H1  MOL d           5.821  28.149   6.258  0.00  0.00     0.275 HD
ATOM     48  H2  MOL d           4.424  27.281   6.190  0.00  0.00     0.275 HD
ATOM     49  H3  MOL d           4.736  28.429   5.052  0.00  0.00     0.275 HD
ENDBRANCH  35  46
ENDBRANCH  32  35
ENDBRANCH   1  31
TORSDOF 15
ENDMDL
MODEL 7
REMARK VINA RESULT:      -6.0      2.108      4.561
REMARK  15 active torsions:
REMARK  status: ('A' for Active; 'I' for Inactive)
REMARK    1  A    between atoms: CA_2  and  N_1 
REMARK    2  A    between atoms: C_3  and  CA_2 
REMARK    3  A    between atoms: CA_2  and  CB_5 
REMARK       I    between atoms: N_10  and  C_3 
REMARK    4  A    between atoms: CB_5  and  CG_6 
REMARK    5  A    between atoms: CG_6  and  CD_7 
REMARK    6  A    between atoms: CA_11  and  N_10 
REMARK    7  A    between atoms: C_12  and  CA_11 
REMARK    8  A    between atoms: CA_11  and  CB_14 
REMARK       I    between atoms: C_12  and  N_18 
REMARK    9  A    between atoms: CB_14  and  CG_15 
REMARK   10  A    between atoms: N_18  and  CA_19 
REMARK   11  A    between atoms: CA_19  and  C_20 
REMARK   12  A    between atoms: CA_19  and  CB_22 
REMARK   13  A    between atoms: CB_22  and  CG_23 
REMARK   14  A    between atoms: CG_23  and  CD2_25 
REMARK   15  A    between atoms: CG_23  and  CD1_24 
ROOT
ATOM      1  CA  MOL d           7.304  24.713   2.158  0.00  0.00     0.098 C 
ATOM      2  H10 MOL d           6.777  23.995   1.513  0.00  0.00     0.088 H 
ENDROOT
BRANCH   1   3
ATOM      3  C   MOL d           8.200  23.948   3.117  0.00  0.00     0.241 C 
ATOM      4  O   MOL d           8.075  22.730   3.260  0.00  0.00    -0.271 OA
ATOM      5  N   MOL d           9.131  24.671   3.732  0.00  0.00    -0.345 N 
ATOM      6  H13 MOL d           9.175  25.654   3.555  0.00  0.00     0.163 HD
BRANCH   5   7
ATOM      7  CA  MOL d          10.089  24.079   4.653  0.00  0.00     0.096 C 
ATOM      8  H14 MOL d           9.822  23.020   4.785  0.00  0.00     0.089 H 
BRANCH   7   9
ATOM      9  C   MOL d          10.080  24.732   6.023  0.00  0.00     0.196 C 
ATOM     10  OXT MOL d          10.805  25.733   6.200  0.00  0.00    -0.646 OA
ATOM     11  O   MOL d           9.346  24.238   6.906  0.00  0.00    -0.646 OA
ENDBRANCH   7   9
BRANCH   7  12
ATOM     12  CB  MOL d          11.482  24.156   4.045  0.00  0.00    -0.034 C 
ATOM     13  H15 MOL d          12.167  24.637   4.757  0.00  0.00     0.037 H 
ATOM     14  H16 MOL d          11.445  24.744   3.117  0.00  0.00     0.037 H 
BRANCH  12  15
ATOM     15  CG  MOL d          11.976  22.747   3.735  0.00  0.00    -0.059 C 
ATOM     16  H17 MOL d          13.075  22.766   3.695  0.00  0.00     0.038 H 
BRANCH  15  17
ATOM     17  CD2 MOL d          11.466  22.313   2.369  0.00  0.00    -0.073 C 
ATOM     18  H21 MOL d          10.529  21.749   2.491  0.00  0.00     0.028 H 
ATOM     19  H22 MOL d          12.218  21.674   1.883  0.00  0.00     0.028 H 
ATOM     20  H23 MOL d          11.282  23.201   1.747  0.00  0.00     0.028 H 
ENDBRANCH  15  17
BRANCH  15  21
ATOM     21  CD1 MOL d          11.576  21.803   4.828  0.00  0.00    -0.073 C 
ATOM     22  H18 MOL d          10.481  21.807   4.933  0.00  0.00     0.028 H 
ATOM     23  H19 MOL d          12.036  22.121   5.775  0.00  0.00     0.028 H 
ATOM     24  H20 MOL d          11.916  20.787   4.578  0.00  0.00     0.028 H 
ENDBRANCH  15  21
ENDBRANCH  12  15
ENDBRANCH   7  12
ENDBRANCH   5   7
ENDBRANCH   1   3
BRANCH   1  25
ATOM     25  CB  MOL d           8.112  25.661   1.275  0.00  0.00     0.043 C 
ATOM     26  H11 MOL d           8.269  25.185   0.295  0.00  0.00     0.052 H 
ATOM     27  H12 MOL d           9.086  25.847   1.752  0.00  0.00     0.052 H 
BRANCH  25  28
ATOM     28  CG  MOL d           7.407  26.985   1.069  0.00  0.00     0.175 C 
ATOM     29  OD1 MOL d           7.809  27.962   1.728  0.00  0.00    -0.648 OA
ATOM     30  OD2 MOL d           6.486  27.065   0.224  0.00  0.00    -0.648 OA
ENDBRANCH  25  28
ENDBRANCH   1  25
BRANCH   1  31
ATOM     31  N   MOL d           6.329  25.472   2.930  0.00  0.00    -0.345 N 
ATOM     32  C   MOL d           5.196  24.933   3.365  0.00  0.00     0.249 C 
ATOM     33  O   MOL d           4.863  23.770   3.114  0.00  0.00    -0.271 OA
ATOM     34  H9  MOL d           6.518  26.431   3.138  0.00  0.00     0.163 HD
BRANCH  32  35
ATOM     35  CA  MOL d           4.277  25.862   4.156  0.00  0.00     0.176 C 
ATOM     36  H4  MOL d           3.419  26.125   3.518  0.00  0.00     0.099 H 
BRANCH  35  37
ATOM     37  CB  MOL d           5.004  27.154   4.538  0.00  0.00    -0.021 C 
ATOM     38  H5  MOL d           4.273  27.976   4.534  0.00  0.00     0.037 H 
ATOM     39  H6  MOL d           5.780  27.350   3.784  0.00  0.00     0.037 H 
BRANCH  37  40
ATOM     40  CG  MOL d           5.664  27.109   5.902  0.00  0.00     0.018 C 
ATOM     41  H7  MOL d           5.577  26.087   6.300  0.00  0.00     0.049 H 
ATOM     42  H8  MOL d           5.138  27.808   6.569  0.00  0.00     0.049 H 
BRANCH  40  43
ATOM     43  CD  MOL d           7.131  27.490   5.865  0.00  0.00     0.172 C 
ATOM     44  OE1 MOL d           7.595  28.189   6.795  0.00  0.00    -0.648 OA
ATOM     45  OE2 MOL d           7.822  27.073   4.908  0.00  0.00    -0.648 OA
ENDBRANCH  40  43
ENDBRANCH  37  40
ENDBRANCH  35  37
BRANCH  35  46
ATOM     46  N   MOL d           3.764  25.171   5.369  0.00  0.00    -0.066 N 
ATOM     47  H1  MOL d           3.413  24.261   5.116  0.00  0.00     0.275 HD
ATOM     48  H2  MOL d           3.020  25.716   5.777  0.00  0.00     0.275 HD
ATOM     49  H3  MOL d           4.511  25.068   6.039  0.00  0.00     0.275 HD
ENDBRANCH  35  46
ENDBRANCH  32  35
ENDBRANCH   1  31
TORSDOF 15
ENDMDL
MODEL 8
REMARK VINA RESULT:      -5.7      1.909      5.605
REMARK  15 active torsions:
REMARK  status: ('A' for Active; 'I' for Inactive)
REMARK    1  A    between atoms: CA_2  and  N_1 
REMARK    2  A    between atoms: C_3  and  CA_2 
REMARK    3  A    between atoms: CA_2  and  CB_5 
REMARK       I    between atoms: N_10  and  C_3 
REMARK    4  A    between atoms: CB_5  and  CG_6 
REMARK    5  A    between atoms: CG_6  and  CD_7 
REMARK    6  A    between atoms: CA_11  and  N_10 
REMARK    7  A    between atoms: C_12  and  CA_11 
REMARK    8  A    between atoms: CA_11  and  CB_14 
REMARK       I    between atoms: C_12  and  N_18 
REMARK    9  A    between atoms: CB_14  and  CG_15 
REMARK   10  A    between atoms: N_18  and  CA_19 
REMARK   11  A    between atoms: CA_19  and  C_20 
REMARK   12  A    between atoms: CA_19  and  CB_22 
REMARK   13  A    between atoms: CB_22  and  CG_23 
REMARK   14  A    between atoms: CG_23  and  CD2_25 
REMARK   15  A    between atoms: CG_23  and  CD1_24 
ROOT
ATOM      1  CA  MOL d          10.089  24.510   4.924  0.00  0.00     0.098 C 
ATOM      2  H10 MOL d          10.905  25.191   4.641  0.00  0.00     0.088 H 
ENDROOT
BRANCH   1   3
ATOM      3  C   MOL d           9.016  24.555   3.851  0.00  0.00     0.241 C 
ATOM      4  O   MOL d           8.898  23.637   3.037  0.00  0.00    -0.271 OA
ATOM      5  N   MOL d           8.208  25.611   3.893  0.00  0.00    -0.345 N 
ATOM      6  H13 MOL d           8.362  26.309   4.592  0.00  0.00     0.163 HD
BRANCH   5   7
ATOM      7  CA  MOL d           7.108  25.783   2.956  0.00  0.00     0.096 C 
ATOM      8  H14 MOL d           6.882  24.801   2.514  0.00  0.00     0.089 H 
BRANCH   7   9
ATOM      9  C   MOL d           7.436  26.737   1.822  0.00  0.00     0.196 C 
ATOM     10  OXT MOL d           7.511  26.271   0.666  0.00  0.00    -0.646 OA
ATOM     11  O   MOL d           7.613  27.942   2.100  0.00  0.00    -0.646 OA
ENDBRANCH   7   9
BRANCH   7  12
ATOM     12  CB  MOL d           5.879  26.269   3.711  0.00  0.00    -0.034 C 
ATOM     13  H15 MOL d           5.640  27.296   3.401  0.00  0.00     0.037 H 
ATOM     14  H16 MOL d           6.081  26.250   4.791  0.00  0.00     0.037 H 
BRANCH  12  15
ATOM     15  CG  MOL d           4.700  25.354   3.397  0.00  0.00    -0.059 C 
ATOM     16  H17 MOL d           4.067  25.284   4.294  0.00  0.00     0.038 H 
BRANCH  15  17
ATOM     17  CD2 MOL d           5.207  23.957   3.072  0.00  0.00    -0.073 C 
ATOM     18  H21 MOL d           6.095  23.738   3.684  0.00  0.00     0.028 H 
ATOM     19  H22 MOL d           5.473  23.902   2.006  0.00  0.00     0.028 H 
ATOM     20  H23 MOL d           4.419  23.220   3.291  0.00  0.00     0.028 H 
ENDBRANCH  15  17
BRANCH  15  21
ATOM     21  CD1 MOL d           3.868  25.937   2.295  0.00  0.00    -0.073 C 
ATOM     22  H18 MOL d           3.324  25.131   1.781  0.00  0.00     0.028 H 
ATOM     23  H19 MOL d           4.520  26.455   1.578  0.00  0.00     0.028 H 
ATOM     24  H20 MOL d           3.147  26.652   2.719  0.00  0.00     0.028 H 
ENDBRANCH  15  21
ENDBRANCH  12  15
ENDBRANCH   7  12
ENDBRANCH   5   7
ENDBRANCH   1   3
BRANCH   1  25
ATOM     25  CB  MOL d          10.661  23.103   5.083  0.00  0.00     0.043 C 
ATOM     26  H11 MOL d           9.956  22.382   4.644  0.00  0.00     0.052 H 
ATOM     27  H12 MOL d          10.785  22.890   6.155  0.00  0.00     0.052 H 
BRANCH  25  28
ATOM     28  CG  MOL d          12.003  22.955   4.396  0.00  0.00     0.175 C 
ATOM     29  OD1 MOL d          12.984  23.517   4.919  0.00  0.00    -0.648 OA
ATOM     30  OD2 MOL d          12.091  22.249   3.366  0.00  0.00    -0.648 OA
ENDBRANCH  25  28
ENDBRANCH   1  25
BRANCH   1  31
ATOM     31  N   MOL d           9.511  24.952   6.187  0.00  0.00    -0.345 N 
ATOM     32  C   MOL d          10.250  25.471   7.160  0.00  0.00     0.249 C 
ATOM     33  O   MOL d          11.479  25.577   7.091  0.00  0.00    -0.271 OA
ATOM     34  H9  MOL d           8.525  24.861   6.324  0.00  0.00     0.163 HD
BRANCH  32  35
ATOM     35  CA  MOL d           9.494  25.881   8.423  0.00  0.00     0.176 C 
ATOM     36  H4  MOL d           9.811  25.222   9.245  0.00  0.00     0.099 H 
BRANCH  35  37
ATOM     37  CB  MOL d           7.984  25.719   8.232  0.00  0.00    -0.021 C 
ATOM     38  H5  MOL d           7.607  25.043   9.014  0.00  0.00     0.037 H 
ATOM     39  H6  MOL d           7.806  25.272   7.244  0.00  0.00     0.037 H 
BRANCH  37  40
ATOM     40  CG  MOL d           7.209  27.020   8.314  0.00  0.00     0.018 C 
ATOM     41  H7  MOL d           7.784  27.733   8.924  0.00  0.00     0.049 H 
ATOM     42  H8  MOL d           6.241  26.821   8.797  0.00  0.00     0.049 H 
BRANCH  40  43
ATOM     43  CD  MOL d           6.952  27.645   6.957  0.00  0.00     0.172 C 
ATOM     44  OE1 MOL d           5.791  28.028   6.681  0.00  0.00    -0.648 OA
ATOM     45  OE2 MOL d           7.919  27.764   6.172  0.00  0.00    -0.648 OA
ENDBRANCH  40  43
ENDBRANCH  37  40
ENDBRANCH  35  37
BRANCH  35  46
ATOM     46  N   MOL d           9.828  27.283   8.792  0.00  0.00    -0.066 N 
ATOM     47  H1  MOL d           9.453  27.912   8.099  0.00  0.00     0.275 HD
ATOM     48  H2  MOL d          10.829  27.389   8.836  0.00  0.00     0.275 HD
ATOM     49  H3  MOL d           9.427  27.499   9.691  0.00  0.00     0.275 HD
ENDBRANCH  35  46
ENDBRANCH  32  35
ENDBRANCH   1  31
TORSDOF 15
ENDMDL
MODEL 9
REMARK VINA RESULT:      -5.7      1.954      4.752
REMARK  15 active torsions:
REMARK  status: ('A' for Active; 'I' for Inactive)
REMARK    1  A    between atoms: CA_2  and  N_1 
REMARK    2  A    between atoms: C_3  and  CA_2 
REMARK    3  A    between atoms: CA_2  and  CB_5 
REMARK       I    between atoms: N_10  and  C_3 
REMARK    4  A    between atoms: CB_5  and  CG_6 
REMARK    5  A    between atoms: CG_6  and  CD_7 
REMARK    6  A    between atoms: CA_11  and  N_10 
REMARK    7  A    between atoms: C_12  and  CA_11 
REMARK    8  A    between atoms: CA_11  and  CB_14 
REMARK       I    between atoms: C_12  and  N_18 
REMARK    9  A    between atoms: CB_14  and  CG_15 
REMARK   10  A    between atoms: N_18  and  CA_19 
REMARK   11  A    between atoms: CA_19  and  C_20 
REMARK   12  A    between atoms: CA_19  and  CB_22 
REMARK   13  A    between atoms: CB_22  and  CG_23 
REMARK   14  A    between atoms: CG_23  and  CD2_25 
REMARK   15  A    between atoms: CG_23  and  CD1_24 
ROOT
ATOM      1  CA  MOL d           6.209  25.442   3.650  0.00  0.00     0.098 C 
ATOM      2  H10 MOL d           5.257  24.948   3.894  0.00  0.00     0.088 H 
ENDROOT
BRANCH   1   3
ATOM      3  C   MOL d           7.286  24.383   3.495  0.00  0.00     0.241 C 
ATOM      4  O   MOL d           7.095  23.385   2.797  0.00  0.00    -0.271 OA
ATOM      5  N   MOL d           8.435  24.639   4.116  0.00  0.00    -0.345 N 
ATOM      6  H13 MOL d           8.516  25.477   4.655  0.00  0.00     0.163 HD
BRANCH   5   7
ATOM      7  CA  MOL d           9.576  23.740   4.036  0.00  0.00     0.096 C 
ATOM      8  H14 MOL d           9.193  22.713   3.938  0.00  0.00     0.089 H 
BRANCH   7   9
ATOM      9  C   MOL d          10.461  23.790   5.268  0.00  0.00     0.196 C 
ATOM     10  OXT MOL d          11.339  24.675   5.324  0.00  0.00    -0.646 OA
ATOM     11  O   MOL d          10.266  22.943   6.166  0.00  0.00    -0.646 OA
ENDBRANCH   7   9
BRANCH   7  12
ATOM     12  CB  MOL d          10.389  24.073   2.792  0.00  0.00    -0.034 C 
ATOM     13  H15 MOL d          11.247  24.701   3.072  0.00  0.00     0.037 H 
ATOM     14  H16 MOL d           9.756  24.615   2.075  0.00  0.00     0.037 H 
BRANCH  12  15
ATOM     15  CG  MOL d          10.890  22.781   2.155  0.00  0.00    -0.059 C 
ATOM     16  H17 MOL d          11.269  23.015   1.150  0.00  0.00     0.038 H 
BRANCH  15  17
ATOM     17  CD2 MOL d           9.735  21.803   2.004  0.00  0.00    -0.073 C 
ATOM     18  H21 MOL d           8.994  21.985   2.797  0.00  0.00     0.028 H 
ATOM     19  H22 MOL d          10.114  20.773   2.086  0.00  0.00     0.028 H 
ATOM     20  H23 MOL d           9.262  21.942   1.020  0.00  0.00     0.028 H 
ENDBRANCH  15  17
BRANCH  15  21
ATOM     21  CD1 MOL d          12.026  22.215   2.951  0.00  0.00    -0.073 C 
ATOM     22  H18 MOL d          11.636  21.754   3.870  0.00  0.00     0.028 H 
ATOM     23  H19 MOL d          12.727  23.020   3.214  0.00  0.00     0.028 H 
ATOM     24  H20 MOL d          12.550  21.454   2.354  0.00  0.00     0.028 H 
ENDBRANCH  15  21
ENDBRANCH  12  15
ENDBRANCH   7  12
ENDBRANCH   5   7
ENDBRANCH   1   3
BRANCH   1  25
ATOM     25  CB  MOL d           6.027  26.245   2.365  0.00  0.00     0.043 C 
ATOM     26  H11 MOL d           5.307  27.056   2.552  0.00  0.00     0.052 H 
ATOM     27  H12 MOL d           5.635  25.579   1.582  0.00  0.00     0.052 H 
BRANCH  25  28
ATOM     28  CG  MOL d           7.330  26.850   1.884  0.00  0.00     0.175 C 
ATOM     29  OD1 MOL d           7.937  27.607   2.664  0.00  0.00    -0.648 OA
ATOM     30  OD2 MOL d           7.770  26.541   0.754  0.00  0.00    -0.648 OA
ENDBRANCH  25  28
ENDBRANCH   1  25
BRANCH   1  31
ATOM     31  N   MOL d           6.579  26.334   4.740  0.00  0.00    -0.345 N 
ATOM     32  C   MOL d           5.675  26.907   5.525  0.00  0.00     0.249 C 
ATOM     33  O   MOL d           4.457  26.767   5.365  0.00  0.00    -0.271 OA
ATOM     34  H9  MOL d           7.548  26.521   4.903  0.00  0.00     0.163 HD
BRANCH  32  35
ATOM     35  CA  MOL d           6.225  27.820   6.620  0.00  0.00     0.176 C 
ATOM     36  H4  MOL d           6.168  28.860   6.264  0.00  0.00     0.099 H 
BRANCH  35  37
ATOM     37  CB  MOL d           7.691  27.495   6.916  0.00  0.00    -0.021 C 
ATOM     38  H5  MOL d           8.305  28.354   6.609  0.00  0.00     0.037 H 
ATOM     39  H6  MOL d           7.975  26.611   6.326  0.00  0.00     0.037 H 
BRANCH  37  40
ATOM     40  CG  MOL d           7.975  27.204   8.377  0.00  0.00     0.018 C 
ATOM     41  H7  MOL d           7.047  27.349   8.950  0.00  0.00     0.049 H 
ATOM     42  H8  MOL d           8.740  27.910   8.732  0.00  0.00     0.049 H 
BRANCH  40  43
ATOM     43  CD  MOL d           8.473  25.792   8.616  0.00  0.00     0.172 C 
ATOM     44  OE1 MOL d           9.704  25.568   8.543  0.00  0.00    -0.648 OA
ATOM     45  OE2 MOL d           7.629  24.910   8.893  0.00  0.00    -0.648 OA
ENDBRANCH  40  43
ENDBRANCH  37  40
ENDBRANCH  35  37
BRANCH  35  46
ATOM     46  N   MOL d           5.402  27.700   7.853  0.00  0.00    -0.066 N 
ATOM     47  H1  MOL d           5.982  27.865   8.661  0.00  0.00     0.275 HD
ATOM     48  H2  MOL d           5.008  26.774   7.905  0.00  0.00     0.275 HD
ATOM     49  H3  MOL d           4.659  28.381   7.830  0.00  0.00     0.275 HD
ENDBRANCH  35  46
ENDBRANCH  32  35
ENDBRANCH   1  31
TORSDOF 15
ENDMDL
MODEL 10
REMARK VINA RESULT:      -5.6      2.040      4.950
REMARK  15 active torsions:
REMARK  status: ('A' for Active; 'I' for Inactive)
REMARK    1  A    between atoms: CA_2  and  N_1 
REMARK    2  A    between atoms: C_3  and  CA_2 
REMARK    3  A    between atoms: CA_2  and  CB_5 
REMARK       I    between atoms: N_10  and  C_3 
REMARK    4  A    between atoms: CB_5  and  CG_6 
REMARK    5  A    between atoms: CG_6  and  CD_7 
REMARK    6  A    between atoms: CA_11  and  N_10 
REMARK    7  A    between atoms: C_12  and  CA_11 
REMARK    8  A    between atoms: CA_11  and  CB_14 
REMARK       I    between atoms: C_12  and  N_18 
REMARK    9  A    between atoms: CB_14  and  CG_15 
REMARK   10  A    between atoms: N_18  and  CA_19 
REMARK   11  A    between atoms: CA_19  and  C_20 
REMARK   12  A    between atoms: CA_19  and  CB_22 
REMARK   13  A    between atoms: CB_22  and  CG_23 
REMARK   14  A    between atoms: CG_23  and  CD2_25 
REMARK   15  A    between atoms: CG_23  and  CD1_24 
ROOT
ATOM      1  CA  MOL d           7.179  26.110   3.395  0.00  0.00     0.098 C 
ATOM      2  H10 MOL d           6.173  25.743   3.143  0.00  0.00     0.088 H 
ENDROOT
BRANCH   1   3
ATOM      3  C   MOL d           8.084  24.920   3.660  0.00  0.00     0.241 C 
ATOM      4  O   MOL d           7.637  23.771   3.645  0.00  0.00    -0.271 OA
ATOM      5  N   MOL d           9.368  25.209   3.854  0.00  0.00    -0.345 N 
ATOM      6  H13 MOL d           9.655  26.166   3.840  0.00  0.00     0.163 HD
BRANCH   5   7
ATOM      7  CA  MOL d          10.368  24.177   4.085  0.00  0.00     0.096 C 
ATOM      8  H14 MOL d          11.361  24.640   3.984  0.00  0.00     0.089 H 
BRANCH   7   9
ATOM      9  C   MOL d          10.285  23.034   3.091  0.00  0.00     0.196 C 
ATOM     10  OXT MOL d          10.323  23.311   1.874  0.00  0.00    -0.646 OA
ATOM     11  O   MOL d          10.185  21.871   3.538  0.00  0.00    -0.646 OA
ENDBRANCH   7   9
BRANCH   7  12
ATOM     12  CB  MOL d          10.222  23.649   5.505  0.00  0.00    -0.034 C 
ATOM     13  H15 MOL d          10.320  22.554   5.501  0.00  0.00     0.037 H 
ATOM     14  H16 MOL d           9.235  23.927   5.901  0.00  0.00     0.037 H 
BRANCH  12  15
ATOM     15  CG  MOL d          11.312  24.255   6.383  0.00  0.00    -0.059 C 
ATOM     16  H17 MOL d          10.877  25.095   6.945  0.00  0.00     0.038 H 
BRANCH  15  17
ATOM     17  CD2 MOL d          12.429  24.805   5.509  0.00  0.00    -0.073 C 
ATOM     18  H21 MOL d          12.167  25.820   5.176  0.00  0.00     0.028 H 
ATOM     19  H22 MOL d          12.561  24.154   4.632  0.00  0.00     0.028 H 
ATOM     20  H23 MOL d          13.365  24.837   6.086  0.00  0.00     0.028 H 
ENDBRANCH  15  17
BRANCH  15  21
ATOM     21  CD1 MOL d          11.800  23.246   7.378  0.00  0.00    -0.073 C 
ATOM     22  H18 MOL d          12.552  22.599   6.903  0.00  0.00     0.028 H 
ATOM     23  H19 MOL d          10.955  22.634   7.724  0.00  0.00     0.028 H 
ATOM     24  H20 MOL d          12.253  23.765   8.235  0.00  0.00     0.028 H 
ENDBRANCH  15  21
ENDBRANCH  12  15
ENDBRANCH   7  12
ENDBRANCH   5   7
ENDBRANCH   1   3
BRANCH   1  25
ATOM     25  CB  MOL d           7.694  26.957   2.234  0.00  0.00     0.043 C 
ATOM     26  H11 MOL d           8.746  26.696   2.044  0.00  0.00     0.052 H 
ATOM     27  H12 MOL d           7.623  28.019   2.510  0.00  0.00     0.052 H 
BRANCH  25  28
ATOM     28  CG  MOL d           6.898  26.726   0.966  0.00  0.00     0.175 C 
ATOM     29  OD1 MOL d           7.387  27.132  -0.105  0.00  0.00    -0.648 OA
ATOM     30  OD2 MOL d           5.812  26.107   1.027  0.00  0.00    -0.648 OA
ENDBRANCH  25  28
ENDBRANCH   1  25
BRANCH   1  31
ATOM     31  N   MOL d           7.104  26.923   4.601  0.00  0.00    -0.345 N 
ATOM     32  C   MOL d           6.018  26.961   5.364  0.00  0.00     0.249 C 
ATOM     33  O   MOL d           4.979  26.352   5.088  0.00  0.00    -0.271 OA
ATOM     34  H9  MOL d           7.898  27.471   4.864  0.00  0.00     0.163 HD
BRANCH  32  35
ATOM     35  CA  MOL d           6.098  27.866   6.592  0.00  0.00     0.176 C 
ATOM     36  H4  MOL d           6.978  28.517   6.485  0.00  0.00     0.099 H 
BRANCH  35  37
ATOM     37  CB  MOL d           6.265  27.039   7.869  0.00  0.00    -0.021 C 
ATOM     38  H5  MOL d           5.587  26.175   7.814  0.00  0.00     0.037 H 
ATOM     39  H6  MOL d           5.989  27.668   8.728  0.00  0.00     0.037 H 
BRANCH  37  40
ATOM     40  CG  MOL d           7.674  26.524   8.090  0.00  0.00     0.018 C 
ATOM     41  H7  MOL d           7.774  25.549   7.591  0.00  0.00     0.049 H 
ATOM     42  H8  MOL d           7.837  26.401   9.171  0.00  0.00     0.049 H 
BRANCH  40  43
ATOM     43  CD  MOL d           8.739  27.456   7.546  0.00  0.00     0.172 C 
ATOM     44  OE1 MOL d           9.371  27.113   6.519  0.00  0.00    -0.648 OA
ATOM     45  OE2 MOL d           8.932  28.540   8.141  0.00  0.00    -0.648 OA
ENDBRANCH  40  43
ENDBRANCH  37  40
ENDBRANCH  35  37
BRANCH  35  46
ATOM     46  N   MOL d           4.887  28.725   6.681  0.00  0.00    -0.066 N 
ATOM     47  H1  MOL d           4.679  28.915   7.648  0.00  0.00     0.275 HD
ATOM     48  H2  MOL d           4.106  28.249   6.256  0.00  0.00     0.275 HD
ATOM     49  H3  MOL d           5.055  29.594   6.197  0.00  0.00     0.275 HD
ENDBRANCH  35  46
ENDBRANCH  32  35
ENDBRANCH   1  31
TORSDOF 15
ENDMDL
