MODEL 1
REMARK VINA RESULT:      -8.9      0.000      0.000
REMARK  4 active torsions:
REMARK  status: ('A' for Active; 'I' for Inactive)
REMARK    1  A    between atoms: C9_9  and  O20_18 
REMARK    2  A    between atoms: C10_10  and  O19_17 
REMARK    3  A    between atoms: C15_15  and  O23_21 
REMARK    4  A    between atoms: C16_16  and  O22_20 
ROOT
ATOM      1  C1  REF d          36.136  -4.539  11.376  0.00  0.00     0.042 A 
ATOM      2  C2  REF d          36.583  -4.162  10.125  0.00  0.00     0.030 A 
ATOM      3  C3  REF d          36.908  -5.163   9.249  0.00  0.00     0.030 A 
ATOM      4  C4  REF d          36.790  -6.496   9.629  0.00  0.00     0.126 A 
ATOM      5  O5  REF d          36.357  -6.825  10.819  0.00  0.00    -0.281 OA
ATOM      6  C6  REF d          36.029  -5.899  11.683  0.00  0.00     0.232 A 
ATOM      7  C7  REF d          37.351  -4.783   7.998  0.00  0.00     0.042 A 
ATOM      8  C8  REF d          37.707  -5.752   7.069  0.00  0.00    -0.033 A 
ATOM      9  C9  REF d          37.608  -7.087   7.429  0.00  0.00     0.102 A 
ATOM     10  C10 REF d          37.157  -7.451   8.686  0.00  0.00     0.134 A 
ATOM     11  C11 REF d          36.714  -2.829   9.737  0.00  0.00     0.126 A 
ATOM     12  O12 REF d          37.128  -2.499   8.548  0.00  0.00    -0.281 OA
ATOM     13  C13 REF d          37.441  -3.428   7.689  0.00  0.00     0.232 A 
ATOM     14  C14 REF d          35.806  -3.547  12.291  0.00  0.00    -0.033 A 
ATOM     15  C15 REF d          35.948  -2.211  11.924  0.00  0.00     0.102 A 
ATOM     16  C16 REF d          36.397  -1.846  10.659  0.00  0.00     0.134 A 
ATOM     17  O21 REF d          37.871  -3.093   6.469  0.00  0.00    -0.163 OA
ATOM     18  O24 REF d          35.571  -6.254  12.909  0.00  0.00    -0.163 OA
ATOM     19  H1  REF d          38.057  -5.469   6.083  0.00  0.00     0.089 H 
ATOM     20  H2  REF d          35.444  -3.810  13.278  0.00  0.00     0.089 H 
ENDROOT
BRANCH   9  21
ATOM     21  O20 REF d          37.959  -8.092   6.549  0.00  0.00    -0.358 OA
ATOM     22  H4  REF d          38.855  -8.360   6.717  0.00  0.00     0.217 HD
ENDBRANCH   9  21
BRANCH  10  23
ATOM     23  O19 REF d          37.104  -8.753   8.929  0.00  0.00    -0.356 OA
ATOM     24  H3  REF d          37.013  -9.224   8.109  0.00  0.00     0.218 HD
ENDBRANCH  10  23
BRANCH  16  25
ATOM     25  O22 REF d          36.540  -0.506  10.335  0.00  0.00    -0.356 OA
ATOM     26  H5  REF d          37.464  -0.285  10.306  0.00  0.00     0.218 HD
ENDBRANCH  16  25
BRANCH  15  27
ATOM     27  O23 REF d          35.654  -1.230  12.820  0.00  0.00    -0.358 OA
ATOM     28  H6  REF d          34.768  -0.922  12.671  0.00  0.00     0.217 HD
ENDBRANCH  15  27
TORSDOF 4
ENDMDL
MODEL 2
REMARK VINA RESULT:      -8.9      0.083      6.135
REMARK  4 active torsions:
REMARK  status: ('A' for Active; 'I' for Inactive)
REMARK    1  A    between atoms: C9_9  and  O20_18 
REMARK    2  A    between atoms: C10_10  and  O19_17 
REMARK    3  A    between atoms: C15_15  and  O23_21 
REMARK    4  A    between atoms: C16_16  and  O22_20 
ROOT
ATOM      1  C1  REF d          37.326  -4.817   8.002  0.00  0.00     0.042 A 
ATOM      2  C2  REF d          36.882  -5.186   9.256  0.00  0.00     0.030 A 
ATOM      3  C3  REF d          36.579  -4.179  10.133  0.00  0.00     0.030 A 
ATOM      4  C4  REF d          36.727  -2.848   9.754  0.00  0.00     0.126 A 
ATOM      5  O5  REF d          37.143  -2.527   8.557  0.00  0.00    -0.281 OA
ATOM      6  C6  REF d          37.436  -3.460   7.687  0.00  0.00     0.232 A 
ATOM      7  C7  REF d          36.133  -4.551  11.385  0.00  0.00     0.042 A 
ATOM      8  C8  REF d          35.821  -3.575  12.323  0.00  0.00    -0.033 A 
ATOM      9  C9  REF d          35.970  -2.242  11.972  0.00  0.00     0.102 A 
ATOM     10  C10 REF d          36.415  -1.887  10.711  0.00  0.00     0.134 A 
ATOM     11  C11 REF d          36.740  -6.517   9.649  0.00  0.00     0.126 A 
ATOM     12  O12 REF d          36.309  -6.839  10.834  0.00  0.00    -0.281 OA
ATOM     13  C13 REF d          36.008  -5.904  11.691  0.00  0.00     0.232 A 
ATOM     14  C14 REF d          37.650  -5.816   7.092  0.00  0.00    -0.033 A 
ATOM     15  C15 REF d          37.529  -7.149   7.475  0.00  0.00     0.102 A 
ATOM     16  C16 REF d          37.078  -7.505   8.741  0.00  0.00     0.134 A 
ATOM     17  O21 REF d          35.571  -6.230  12.911  0.00  0.00    -0.163 OA
ATOM     18  O24 REF d          37.855  -3.113   6.444  0.00  0.00    -0.163 OA
ATOM     19  H1  REF d          35.468  -3.851  13.311  0.00  0.00     0.089 H 
ATOM     20  H2  REF d          37.993  -5.560   6.096  0.00  0.00     0.089 H 
ENDROOT
BRANCH   9  21
ATOM     21  O20 REF d          35.685  -1.231  12.869  0.00  0.00    -0.358 OA
ATOM     22  H4  REF d          35.344  -1.609  13.672  0.00  0.00     0.217 HD
ENDBRANCH   9  21
BRANCH  10  23
ATOM     23  O19 REF d          36.526  -0.586  10.480  0.00  0.00    -0.356 OA
ATOM     24  H3  REF d          37.290  -0.426   9.940  0.00  0.00     0.218 HD
ENDBRANCH  10  23
BRANCH  16  25
ATOM     25  O22 REF d          36.985  -8.843   9.092  0.00  0.00    -0.356 OA
ATOM     26  H5  REF d          36.513  -8.922   9.914  0.00  0.00     0.218 HD
ENDBRANCH  16  25
BRANCH  15  27
ATOM     27  O23 REF d          37.868  -8.136   6.601  0.00  0.00    -0.358 OA
ATOM     28  H6  REF d          38.294  -7.754   5.843  0.00  0.00     0.217 HD
ENDBRANCH  15  27
TORSDOF 4
ENDMDL
MODEL 3
REMARK VINA RESULT:      -8.7      1.339      4.511
REMARK  4 active torsions:
REMARK  status: ('A' for Active; 'I' for Inactive)
REMARK    1  A    between atoms: C9_9  and  O20_18 
REMARK    2  A    between atoms: C10_10  and  O19_17 
REMARK    3  A    between atoms: C15_15  and  O23_21 
REMARK    4  A    between atoms: C16_16  and  O22_20 
ROOT
ATOM      1  C1  REF d          36.165  -4.251  11.355  0.00  0.00     0.042 A 
ATOM      2  C2  REF d          36.634  -4.684  10.131  0.00  0.00     0.030 A 
ATOM      3  C3  REF d          36.922  -3.723   9.197  0.00  0.00     0.030 A 
ATOM      4  C4  REF d          36.734  -2.377   9.493  0.00  0.00     0.126 A 
ATOM      5  O5  REF d          36.295  -1.995  10.663  0.00  0.00    -0.281 OA
ATOM      6  C6  REF d          36.016  -2.881  11.586  0.00  0.00     0.232 A 
ATOM      7  C7  REF d          37.394  -4.158   7.975  0.00  0.00     0.042 A 
ATOM      8  C8  REF d          37.692  -3.233   6.983  0.00  0.00    -0.033 A 
ATOM      9  C9  REF d          37.504  -1.886   7.251  0.00  0.00     0.102 A 
ATOM     10  C10 REF d          37.034  -1.467   8.482  0.00  0.00     0.134 A 
ATOM     11  C11 REF d          36.817  -6.031   9.821  0.00  0.00     0.126 A 
ATOM     12  O12 REF d          37.271  -6.413   8.662  0.00  0.00    -0.281 OA
ATOM     13  C13 REF d          37.558  -5.524   7.753  0.00  0.00     0.232 A 
ATOM     14  C14 REF d          35.856  -5.201  12.321  0.00  0.00    -0.033 A 
ATOM     15  C15 REF d          36.017  -6.551  12.021  0.00  0.00     0.102 A 
ATOM     16  C16 REF d          36.493  -6.972  10.783  0.00  0.00     0.134 A 
ATOM     17  O21 REF d          38.019  -5.911   6.561  0.00  0.00    -0.163 OA
ATOM     18  O24 REF d          35.571  -2.471  12.800  0.00  0.00    -0.163 OA
ATOM     19  H1  REF d          38.064  -3.559   6.018  0.00  0.00     0.089 H 
ATOM     20  H2  REF d          35.494  -4.895  13.295  0.00  0.00     0.089 H 
ENDROOT
BRANCH   9  21
ATOM     21  O20 REF d          37.773  -0.924   6.297  0.00  0.00    -0.358 OA
ATOM     22  H4  REF d          37.192  -1.044   5.555  0.00  0.00     0.217 HD
ENDBRANCH   9  21
BRANCH  10  23
ATOM     23  O19 REF d          36.885  -0.158   8.633  0.00  0.00    -0.356 OA
ATOM     24  H3  REF d          36.217   0.011   9.286  0.00  0.00     0.218 HD
ENDBRANCH  10  23
BRANCH  16  25
ATOM     25  O22 REF d          36.626  -8.325  10.516  0.00  0.00    -0.356 OA
ATOM     26  H5  REF d          36.925  -8.443   9.621  0.00  0.00     0.218 HD
ENDBRANCH  16  25
BRANCH  15  27
ATOM     27  O23 REF d          35.693  -7.492  12.949  0.00  0.00    -0.358 OA
ATOM     28  H6  REF d          36.486  -7.834  13.343  0.00  0.00     0.217 HD
ENDBRANCH  15  27
TORSDOF 4
ENDMDL
MODEL 4
REMARK VINA RESULT:      -8.7      1.340      4.206
REMARK  4 active torsions:
REMARK  status: ('A' for Active; 'I' for Inactive)
REMARK    1  A    between atoms: C9_9  and  O20_18 
REMARK    2  A    between atoms: C10_10  and  O19_17 
REMARK    3  A    between atoms: C15_15  and  O23_21 
REMARK    4  A    between atoms: C16_16  and  O22_20 
ROOT
ATOM      1  C1  REF d          37.367  -4.210   7.820  0.00  0.00     0.042 A 
ATOM      2  C2  REF d          36.904  -3.776   9.046  0.00  0.00     0.030 A 
ATOM      3  C3  REF d          36.630  -4.734   9.986  0.00  0.00     0.030 A 
ATOM      4  C4  REF d          36.814  -6.081   9.691  0.00  0.00     0.126 A 
ATOM      5  O5  REF d          37.260  -6.464   8.523  0.00  0.00    -0.281 OA
ATOM      6  C6  REF d          37.540  -5.579   7.600  0.00  0.00     0.232 A 
ATOM      7  C7  REF d          36.171  -4.297  11.212  0.00  0.00     0.042 A 
ATOM      8  C8  REF d          35.865  -5.221  12.203  0.00  0.00    -0.033 A 
ATOM      9  C9  REF d          36.030  -6.571  11.928  0.00  0.00     0.102 A 
ATOM     10  C10 REF d          36.496  -6.991  10.695  0.00  0.00     0.134 A 
ATOM     11  C11 REF d          36.707  -2.429   9.350  0.00  0.00     0.126 A 
ATOM     12  O12 REF d          36.280  -2.044  10.517  0.00  0.00    -0.281 OA
ATOM     13  C13 REF d          36.015  -2.931  11.435  0.00  0.00     0.232 A 
ATOM     14  C14 REF d          37.645  -3.263   6.843  0.00  0.00    -0.033 A 
ATOM     15  C15 REF d          37.438  -1.915   7.124  0.00  0.00     0.102 A 
ATOM     16  C16 REF d          36.973  -1.493   8.365  0.00  0.00     0.134 A 
ATOM     17  O21 REF d          35.571  -2.541  12.633  0.00  0.00    -0.163 OA
ATOM     18  O24 REF d          38.014  -5.989   6.396  0.00  0.00    -0.163 OA
ATOM     19  H1  REF d          35.504  -4.894  13.171  0.00  0.00     0.089 H 
ATOM     20  H2  REF d          38.018  -3.570   5.872  0.00  0.00     0.089 H 
ENDROOT
BRANCH   9  21
ATOM     21  O20 REF d          35.730  -7.533  12.872  0.00  0.00    -0.358 OA
ATOM     22  H4  REF d          35.203  -8.215  12.472  0.00  0.00     0.217 HD
ENDBRANCH   9  21
BRANCH  10  23
ATOM     23  O19 REF d          36.613  -8.302  10.535  0.00  0.00    -0.356 OA
ATOM     24  H3  REF d          37.532  -8.531  10.472  0.00  0.00     0.218 HD
ENDBRANCH  10  23
BRANCH  16  25
ATOM     25  O22 REF d          36.765  -0.143   8.604  0.00  0.00    -0.356 OA
ATOM     26  H5  REF d          37.466   0.193   9.151  0.00  0.00     0.218 HD
ENDBRANCH  16  25
BRANCH  15  27
ATOM     27  O23 REF d          37.682  -0.980   6.166  0.00  0.00    -0.358 OA
ATOM     28  H6  REF d          37.377  -1.301   5.326  0.00  0.00     0.217 HD
ENDBRANCH  15  27
TORSDOF 4
ENDMDL
MODEL 5
REMARK VINA RESULT:      -8.5      1.308      3.273
REMARK  4 active torsions:
REMARK  status: ('A' for Active; 'I' for Inactive)
REMARK    1  A    between atoms: C9_9  and  O20_18 
REMARK    2  A    between atoms: C10_10  and  O19_17 
REMARK    3  A    between atoms: C15_15  and  O23_21 
REMARK    4  A    between atoms: C16_16  and  O22_20 
ROOT
ATOM      1  C1  REF d          36.282  -2.907  10.396  0.00  0.00     0.042 A 
ATOM      2  C2  REF d          36.587  -3.940   9.532  0.00  0.00     0.030 A 
ATOM      3  C3  REF d          36.484  -5.215  10.022  0.00  0.00     0.030 A 
ATOM      4  C4  REF d          36.094  -5.433  11.339  0.00  0.00     0.126 A 
ATOM      5  O5  REF d          35.805  -4.436  12.134  0.00  0.00    -0.281 OA
ATOM      6  C6  REF d          35.884  -3.203  11.703  0.00  0.00     0.232 A 
ATOM      7  C7  REF d          36.784  -6.246   9.154  0.00  0.00     0.042 A 
ATOM      8  C8  REF d          36.711  -7.561   9.594  0.00  0.00    -0.033 A 
ATOM      9  C9  REF d          36.334  -7.802  10.907  0.00  0.00     0.102 A 
ATOM     10  C10 REF d          36.032  -6.758  11.761  0.00  0.00     0.134 A 
ATOM     11  C11 REF d          36.987  -3.732   8.212  0.00  0.00     0.126 A 
ATOM     12  O12 REF d          37.258  -4.723   7.414  0.00  0.00    -0.281 OA
ATOM     13  C13 REF d          37.165  -5.949   7.847  0.00  0.00     0.232 A 
ATOM     14  C14 REF d          36.385  -1.601   9.933  0.00  0.00    -0.033 A 
ATOM     15  C15 REF d          36.801  -1.376   8.623  0.00  0.00     0.102 A 
ATOM     16  C16 REF d          37.101  -2.428   7.763  0.00  0.00     0.134 A 
ATOM     17  O21 REF d          37.448  -6.970   7.033  0.00  0.00    -0.163 OA
ATOM     18  O24 REF d          35.571  -2.178  12.535  0.00  0.00    -0.163 OA
ATOM     19  H1  REF d          36.943  -8.381   8.925  0.00  0.00     0.089 H 
ATOM     20  H2  REF d          36.146  -0.768  10.583  0.00  0.00     0.089 H 
ENDROOT
BRANCH   9  21
ATOM     21  O20 REF d          36.255  -9.090  11.401  0.00  0.00    -0.358 OA
ATOM     22  H4  REF d          36.243  -9.064  12.351  0.00  0.00     0.217 HD
ENDBRANCH   9  21
BRANCH  10  23
ATOM     23  O19 REF d          35.687  -7.099  12.996  0.00  0.00    -0.356 OA
ATOM     24  H3  REF d          36.469  -7.281  13.503  0.00  0.00     0.218 HD
ENDBRANCH  10  23
BRANCH  16  25
ATOM     25  O22 REF d          37.526  -2.164   6.470  0.00  0.00    -0.356 OA
ATOM     26  H5  REF d          38.131  -2.843   6.192  0.00  0.00     0.218 HD
ENDBRANCH  16  25
BRANCH  15  27
ATOM     27  O23 REF d          36.931  -0.101   8.166  0.00  0.00    -0.358 OA
ATOM     28  H6  REF d          37.531  -0.089   7.430  0.00  0.00     0.217 HD
ENDBRANCH  15  27
TORSDOF 4
ENDMDL
MODEL 6
REMARK VINA RESULT:      -8.0      1.341      5.129
REMARK  4 active torsions:
REMARK  status: ('A' for Active; 'I' for Inactive)
REMARK    1  A    between atoms: C9_9  and  O20_18 
REMARK    2  A    between atoms: C10_10  and  O19_17 
REMARK    3  A    between atoms: C15_15  and  O23_21 
REMARK    4  A    between atoms: C16_16  and  O22_20 
ROOT
ATOM      1  C1  REF d          36.781  -6.314   8.831  0.00  0.00     0.042 A 
ATOM      2  C2  REF d          36.596  -5.248   9.688  0.00  0.00     0.030 A 
ATOM      3  C3  REF d          36.829  -3.995   9.186  0.00  0.00     0.030 A 
ATOM      4  C4  REF d          37.241  -3.831   7.867  0.00  0.00     0.126 A 
ATOM      5  O5  REF d          37.402  -4.859   7.076  0.00  0.00    -0.281 OA
ATOM      6  C6  REF d          37.182  -6.072   7.514  0.00  0.00     0.232 A 
ATOM      7  C7  REF d          36.640  -2.930  10.044  0.00  0.00     0.042 A 
ATOM      8  C8  REF d          36.872  -1.636   9.598  0.00  0.00    -0.033 A 
ATOM      9  C9  REF d          37.293  -1.449   8.290  0.00  0.00     0.102 A 
ATOM     10  C10 REF d          37.473  -2.526   7.442  0.00  0.00     0.134 A 
ATOM     11  C11 REF d          36.192  -5.401  11.015  0.00  0.00     0.126 A 
ATOM     12  O12 REF d          36.014  -4.379  11.799  0.00  0.00    -0.281 OA
ATOM     13  C13 REF d          36.224  -3.173  11.352  0.00  0.00     0.232 A 
ATOM     14  C14 REF d          36.561  -7.599   9.312  0.00  0.00    -0.033 A 
ATOM     15  C15 REF d          36.174  -7.770  10.639  0.00  0.00     0.102 A 
ATOM     16  C16 REF d          35.989  -6.685  11.490  0.00  0.00     0.134 A 
ATOM     17  O21 REF d          36.047  -2.120  12.156  0.00  0.00    -0.163 OA
ATOM     18  O24 REF d          37.342  -7.129   6.679  0.00  0.00    -0.163 OA
ATOM     19  H1  REF d          36.727  -0.789  10.259  0.00  0.00     0.089 H 
ATOM     20  H2  REF d          36.689  -8.457   8.663  0.00  0.00     0.089 H 
ENDROOT
BRANCH   9  21
ATOM     21  O20 REF d          37.549  -0.184   7.797  0.00  0.00    -0.358 OA
ATOM     22  H4  REF d          38.440   0.066   8.016  0.00  0.00     0.217 HD
ENDBRANCH   9  21
BRANCH  10  23
ATOM     23  O19 REF d          37.882  -2.237   6.215  0.00  0.00    -0.356 OA
ATOM     24  H3  REF d          38.276  -3.007   5.823  0.00  0.00     0.218 HD
ENDBRANCH  10  23
BRANCH  16  25
ATOM     25  O22 REF d          35.618  -6.895  12.809  0.00  0.00    -0.356 OA
ATOM     26  H5  REF d          36.331  -7.319  13.274  0.00  0.00     0.218 HD
ENDBRANCH  16  25
BRANCH  15  27
ATOM     27  O23 REF d          35.981  -9.025  11.129  0.00  0.00    -0.358 OA
ATOM     28  H6  REF d          35.334  -8.996  11.824  0.00  0.00     0.217 HD
ENDBRANCH  15  27
TORSDOF 4
ENDMDL
MODEL 7
REMARK VINA RESULT:      -7.6      0.899      4.989
REMARK  4 active torsions:
REMARK  status: ('A' for Active; 'I' for Inactive)
REMARK    1  A    between atoms: C9_9  and  O20_18 
REMARK    2  A    between atoms: C10_10  and  O19_17 
REMARK    3  A    between atoms: C15_15  and  O23_21 
REMARK    4  A    between atoms: C16_16  and  O22_20 
ROOT
ATOM      1  C1  REF d          36.592  -6.292  10.237  0.00  0.00     0.042 A 
ATOM      2  C2  REF d          36.894  -5.259   9.371  0.00  0.00     0.030 A 
ATOM      3  C3  REF d          36.718  -3.983   9.835  0.00  0.00     0.030 A 
ATOM      4  C4  REF d          36.247  -3.762  11.125  0.00  0.00     0.126 A 
ATOM      5  O5  REF d          35.974  -4.759  11.926  0.00  0.00    -0.281 OA
ATOM      6  C6  REF d          36.137  -5.993  11.525  0.00  0.00     0.232 A 
ATOM      7  C7  REF d          37.024  -2.953   8.968  0.00  0.00     0.042 A 
ATOM      8  C8  REF d          36.855  -1.636   9.375  0.00  0.00    -0.033 A 
ATOM      9  C9  REF d          36.377  -1.391  10.654  0.00  0.00     0.102 A 
ATOM     10  C10 REF d          36.079  -2.435  11.511  0.00  0.00     0.134 A 
ATOM     11  C11 REF d          37.359  -5.470   8.073  0.00  0.00     0.126 A 
ATOM     12  O12 REF d          37.647  -4.479   7.279  0.00  0.00    -0.281 OA
ATOM     13  C13 REF d          37.494  -3.252   7.691  0.00  0.00     0.232 A 
ATOM     14  C14 REF d          36.753  -7.598   9.794  0.00  0.00    -0.033 A 
ATOM     15  C15 REF d          37.198  -7.825   8.495  0.00  0.00     0.102 A 
ATOM     16  C16 REF d          37.502  -6.775   7.634  0.00  0.00     0.134 A 
ATOM     17  O21 REF d          37.784  -2.232   6.878  0.00  0.00    -0.163 OA
ATOM     18  O24 REF d          35.862  -7.018  12.370  0.00  0.00    -0.163 OA
ATOM     19  H1  REF d          37.092  -0.816   8.707  0.00  0.00     0.089 H 
ATOM     20  H2  REF d          36.532  -8.431  10.452  0.00  0.00     0.089 H 
ENDROOT
BRANCH   9  21
ATOM     21  O20 REF d          36.179  -0.101  11.107  0.00  0.00    -0.358 OA
ATOM     22  H4  REF d          35.505   0.317  10.583  0.00  0.00     0.217 HD
ENDBRANCH   9  21
BRANCH  10  23
ATOM     23  O19 REF d          35.624  -2.091  12.708  0.00  0.00    -0.356 OA
ATOM     24  H3  REF d          34.677  -2.031  12.681  0.00  0.00     0.218 HD
ENDBRANCH  10  23
BRANCH  16  25
ATOM     25  O22 REF d          37.929  -7.039   6.343  0.00  0.00    -0.356 OA
ATOM     26  H5  REF d          37.194  -6.965   5.745  0.00  0.00     0.218 HD
ENDBRANCH  16  25
BRANCH  15  27
ATOM     27  O23 REF d          37.334  -9.101   8.040  0.00  0.00    -0.358 OA
ATOM     28  H6  REF d          38.150  -9.465   8.362  0.00  0.00     0.217 HD
ENDBRANCH  15  27
TORSDOF 4
ENDMDL
MODEL 8
REMARK VINA RESULT:      -7.1      1.478      4.650
REMARK  4 active torsions:
REMARK  status: ('A' for Active; 'I' for Inactive)
REMARK    1  A    between atoms: C9_9  and  O20_18 
REMARK    2  A    between atoms: C10_10  and  O19_17 
REMARK    3  A    between atoms: C15_15  and  O23_21 
REMARK    4  A    between atoms: C16_16  and  O22_20 
ROOT
ATOM      1  C1  REF d          36.277  -5.289  11.401  0.00  0.00     0.042 A 
ATOM      2  C2  REF d          36.753  -5.386  10.108  0.00  0.00     0.030 A 
ATOM      3  C3  REF d          37.075  -4.217   9.472  0.00  0.00     0.030 A 
ATOM      4  C4  REF d          36.916  -2.996  10.119  0.00  0.00     0.126 A 
ATOM      5  O5  REF d          36.469  -2.934  11.346  0.00  0.00    -0.281 OA
ATOM      6  C6  REF d          36.157  -4.028  11.992  0.00  0.00     0.232 A 
ATOM      7  C7  REF d          37.554  -4.318   8.181  0.00  0.00     0.042 A 
ATOM      8  C8  REF d          37.888  -3.167   7.478  0.00  0.00    -0.033 A 
ATOM      9  C9  REF d          37.727  -1.938   8.099  0.00  0.00     0.102 A 
ATOM     10  C10 REF d          37.250  -1.856   9.395  0.00  0.00     0.134 A 
ATOM     11  C11 REF d          36.908  -6.604   9.446  0.00  0.00     0.126 A 
ATOM     12  O12 REF d          37.369  -6.670   8.231  0.00  0.00    -0.281 OA
ATOM     13  C13 REF d          37.689  -5.576   7.598  0.00  0.00     0.232 A 
ATOM     14  C14 REF d          35.933  -6.456  12.071  0.00  0.00    -0.033 A 
ATOM     15  C15 REF d          36.066  -7.679  11.418  0.00  0.00     0.102 A 
ATOM     16  C16 REF d          36.549  -7.761  10.116  0.00  0.00     0.134 A 
ATOM     17  O21 REF d          38.157  -5.639   6.349  0.00  0.00    -0.163 OA
ATOM     18  O24 REF d          35.706  -3.950  13.269  0.00  0.00    -0.163 OA
ATOM     19  H1  REF d          38.265  -3.229   6.463  0.00  0.00     0.089 H 
ATOM     20  H2  REF d          35.565  -6.415  13.090  0.00  0.00     0.089 H 
ENDROOT
BRANCH   9  21
ATOM     21  O20 REF d          38.032  -0.761   7.443  0.00  0.00    -0.358 OA
ATOM     22  H4  REF d          38.958  -0.750   7.229  0.00  0.00     0.217 HD
ENDBRANCH   9  21
BRANCH  10  23
ATOM     23  O19 REF d          37.131  -0.633   9.893  0.00  0.00    -0.356 OA
ATOM     24  H3  REF d          37.981  -0.209   9.897  0.00  0.00     0.218 HD
ENDBRANCH  10  23
BRANCH  16  25
ATOM     25  O22 REF d          36.653  -8.995   9.493  0.00  0.00    -0.356 OA
ATOM     26  H5  REF d          36.020  -9.594   9.871  0.00  0.00     0.218 HD
ENDBRANCH  16  25
BRANCH  15  27
ATOM     27  O23 REF d          35.707  -8.827  12.055  0.00  0.00    -0.358 OA
ATOM     28  H6  REF d          36.454  -9.172  12.526  0.00  0.00     0.217 HD
ENDBRANCH  15  27
TORSDOF 4
ENDMDL
MODEL 9
REMARK VINA RESULT:      -6.2      1.604      4.112
REMARK  4 active torsions:
REMARK  status: ('A' for Active; 'I' for Inactive)
REMARK    1  A    between atoms: C9_9  and  O20_18 
REMARK    2  A    between atoms: C10_10  and  O19_17 
REMARK    3  A    between atoms: C15_15  and  O23_21 
REMARK    4  A    between atoms: C16_16  and  O22_20 
ROOT
ATOM      1  C1  REF d          36.272  -4.895   7.762  0.00  0.00     0.042 A 
ATOM      2  C2  REF d          36.334  -4.487   9.079  0.00  0.00     0.030 A 
ATOM      3  C3  REF d          36.414  -5.466  10.033  0.00  0.00     0.030 A 
ATOM      4  C4  REF d          36.423  -6.807   9.666  0.00  0.00     0.126 A 
ATOM      5  O5  REF d          36.370  -7.165   8.410  0.00  0.00    -0.281 OA
ATOM      6  C6  REF d          36.301  -6.261   7.467  0.00  0.00     0.232 A 
ATOM      7  C7  REF d          36.479  -5.054  11.350  0.00  0.00     0.042 A 
ATOM      8  C8  REF d          36.549  -6.000  12.365  0.00  0.00    -0.033 A 
ATOM      9  C9  REF d          36.550  -7.344  12.023  0.00  0.00     0.102 A 
ATOM     10  C10 REF d          36.488  -7.738  10.698  0.00  0.00     0.134 A 
ATOM     11  C11 REF d          36.316  -3.145   9.459  0.00  0.00     0.126 A 
ATOM     12  O12 REF d          36.386  -2.785  10.708  0.00  0.00    -0.281 OA
ATOM     13  C13 REF d          36.468  -3.692  11.641  0.00  0.00     0.232 A 
ATOM     14  C14 REF d          36.182  -3.926   6.770  0.00  0.00    -0.033 A 
ATOM     15  C15 REF d          36.145  -2.583   7.134  0.00  0.00     0.102 A 
ATOM     16  C16 REF d          36.212  -2.187   8.466  0.00  0.00     0.134 A 
ATOM     17  O21 REF d          36.535  -3.328  12.924  0.00  0.00    -0.163 OA
ATOM     18  O24 REF d          36.258  -6.646   6.167  0.00  0.00    -0.163 OA
ATOM     19  H1  REF d          36.602  -5.693  13.403  0.00  0.00     0.089 H 
ATOM     20  H2  REF d          36.140  -4.213   5.725  0.00  0.00     0.089 H 
ENDROOT
BRANCH   9  21
ATOM     21  O20 REF d          36.607  -8.327  12.992  0.00  0.00    -0.358 OA
ATOM     22  H4  REF d          36.948  -9.127  12.611  0.00  0.00     0.217 HD
ENDBRANCH   9  21
BRANCH  10  23
ATOM     23  O19 REF d          36.490  -9.047  10.482  0.00  0.00    -0.356 OA
ATOM     24  H3  REF d          37.045  -9.472  11.125  0.00  0.00     0.218 HD
ENDBRANCH  10  23
BRANCH  16  25
ATOM     25  O22 REF d          36.157  -0.840   8.791  0.00  0.00    -0.356 OA
ATOM     26  H5  REF d          35.813  -0.742   9.672  0.00  0.00     0.218 HD
ENDBRANCH  16  25
BRANCH  15  27
ATOM     27  O23 REF d          36.031  -1.626   6.173  0.00  0.00    -0.358 OA
ATOM     28  H6  REF d          36.804  -1.637   5.623  0.00  0.00     0.217 HD
ENDBRANCH  15  27
TORSDOF 4
ENDMDL
