MODEL 1
REMARK VINA RESULT:      -8.0      0.000      0.000
REMARK  8 active torsions:
REMARK  status: ('A' for Active; 'I' for Inactive)
REMARK    1  A    between atoms: N1_2  and  C2_4 
REMARK       I    between atoms: C10_18  and  N1_2 
REMARK    2  A    between atoms: N3_8  and  N2_5 
REMARK       I    between atoms: N2_5  and  C10_18 
REMARK       I    between atoms: C12_20  and  N3_8 
REMARK    3  A    between atoms: C16_24  and  N4_11 
REMARK    4  A    between atoms: C13_21  and  C12_20 
REMARK    5  A    between atoms: C18_26  and  C19_27 
REMARK    6  A    between atoms: C19_27  and  C20_28 
REMARK    7  A    between atoms: C19_27  and  C21_29 
REMARK    8  A    between atoms: C19_27  and  C22_30 
ROOT
ATOM      1  O2  AGY d          29.856  -5.680  19.204  0.00  0.00    -0.266 OA
ATOM      2  N3  AGY d          29.237  -3.604  18.602  0.00  0.00    -0.262 N 
ATOM      3  C12 AGY d          29.266  -4.623  19.504  0.00  0.00     0.270 C 
ATOM      4  H3  AGY d          28.776  -2.737  18.789  0.00  0.00     0.190 HD
ENDROOT
BRANCH   3   5
ATOM      5  C13 AGY d          28.609  -4.482  20.802  0.00  0.00     0.036 A 
ATOM      6  C14 AGY d          29.088  -5.219  21.905  0.00  0.00    -0.035 A 
ATOM      7  C16 AGY d          28.486  -5.115  23.201  0.00  0.00     0.111 A 
ATOM      8  H11 AGY d          29.933  -5.884  21.768  0.00  0.00     0.088 H 
ATOM      9  C18 AGY d          27.329  -4.228  23.427  0.00  0.00    -0.018 A 
ATOM     10  C17 AGY d          26.851  -3.469  22.257  0.00  0.00    -0.073 A 
ATOM     11  C15 AGY d          27.492  -3.607  20.971  0.00  0.00    -0.067 A 
ATOM     12  H13 AGY d          26.005  -2.798  22.364  0.00  0.00     0.084 H 
ATOM     13  H12 AGY d          27.123  -3.040  20.124  0.00  0.00     0.085 H 
BRANCH   7  14
ATOM     14  N4  AGY d          29.026  -5.808  24.189  0.00  0.00    -0.115 N 
ATOM     15  O3  AGY d          30.097  -5.354  24.776  0.00  0.00    -0.532 OA
ATOM     16  O4  AGY d          28.459  -7.012  24.589  0.00  0.00    -0.532 OA
ENDBRANCH   7  14
BRANCH   9  17
ATOM     17  C19 AGY d          26.605  -4.039  24.783  0.00  0.00    -0.022 C 
BRANCH  17  18
ATOM     18  C20 AGY d          25.780  -5.269  25.231  0.00  0.00    -0.066 C 
ATOM     19  H14 AGY d          25.441  -5.826  24.345  0.00  0.00     0.028 H 
ATOM     20  H15 AGY d          24.906  -4.934  25.809  0.00  0.00     0.028 H 
ATOM     21  H16 AGY d          26.406  -5.922  25.858  0.00  0.00     0.028 H 
ENDBRANCH  17  18
BRANCH  17  22
ATOM     22  C21 AGY d          27.425  -3.848  26.115  0.00  0.00    -0.066 C 
ATOM     23  H17 AGY d          26.843  -4.238  26.962  0.00  0.00     0.028 H 
ATOM     24  H18 AGY d          27.627  -2.778  26.270  0.00  0.00     0.028 H 
ATOM     25  H19 AGY d          28.376  -4.394  26.041  0.00  0.00     0.028 H 
ENDBRANCH  17  22
BRANCH  17  26
ATOM     26  C22 AGY d          25.754  -2.760  24.655  0.00  0.00    -0.066 C 
ATOM     27  H20 AGY d          26.382  -1.939  24.278  0.00  0.00     0.028 H 
ATOM     28  H21 AGY d          25.350  -2.489  25.642  0.00  0.00     0.028 H 
ATOM     29  H22 AGY d          24.925  -2.940  23.955  0.00  0.00     0.028 H 
ENDBRANCH  17  26
ENDBRANCH   9  17
ENDBRANCH   3   5
BRANCH   2  30
ATOM     30  N2  AGY d          29.914  -3.861  17.362  0.00  0.00    -0.248 N 
ATOM     31  C10 AGY d          31.040  -3.203  16.972  0.00  0.00     0.339 C 
ATOM     32  N1  AGY d          31.601  -2.242  17.764  0.00  0.00    -0.307 N 
ATOM     33  O1  AGY d          31.531  -3.511  15.878  0.00  0.00    -0.245 OA
ATOM     34  H1  AGY d          31.124  -2.078  18.628  0.00  0.00     0.170 HD
ATOM     35  H2  AGY d          29.539  -4.559  16.753  0.00  0.00     0.192 HD
BRANCH  32  36
ATOM     36  C2  AGY d          32.730  -1.453  17.559  0.00  0.00     0.047 A 
ATOM     37  C1  AGY d          34.099  -1.947  17.600  0.00  0.00     0.001 A 
ATOM     38  C3  AGY d          35.241  -1.012  17.365  0.00  0.00    -0.024 A 
ATOM     39  C4  AGY d          34.380  -3.340  17.866  0.00  0.00    -0.070 A 
ATOM     40  C6  AGY d          35.003   0.385  17.098  0.00  0.00    -0.072 A 
ATOM     41  C7  AGY d          36.581  -1.502  17.407  0.00  0.00    -0.072 A 
ATOM     42  C9  AGY d          33.631   0.878  17.058  0.00  0.00    -0.080 A 
ATOM     43  H6  AGY d          35.834   1.061  16.929  0.00  0.00     0.084 H 
ATOM     44  C5  AGY d          32.517  -0.033  17.287  0.00  0.00    -0.056 A 
ATOM     45  H9  AGY d          33.438   1.926  16.858  0.00  0.00     0.083 H 
ATOM     46  H5  AGY d          31.505   0.352  17.253  0.00  0.00     0.086 H 
ATOM     47  C11 AGY d          36.840  -2.904  17.676  0.00  0.00    -0.082 A 
ATOM     48  H7  AGY d          37.408  -0.824  17.236  0.00  0.00     0.084 H 
ATOM     49  C8  AGY d          35.743  -3.817  17.904  0.00  0.00    -0.082 A 
ATOM     50  H10 AGY d          37.861  -3.268  17.706  0.00  0.00     0.083 H 
ATOM     51  H8  AGY d          35.943  -4.864  18.105  0.00  0.00     0.083 H 
ATOM     52  H4  AGY d          33.563  -4.030  18.039  0.00  0.00     0.084 H 
ENDBRANCH  32  36
ENDBRANCH   2  30
TORSDOF 8
ENDMDL
MODEL 2
REMARK VINA RESULT:      -7.5      1.612      1.982
REMARK  8 active torsions:
REMARK  status: ('A' for Active; 'I' for Inactive)
REMARK    1  A    between atoms: N1_2  and  C2_4 
REMARK       I    between atoms: C10_18  and  N1_2 
REMARK    2  A    between atoms: N3_8  and  N2_5 
REMARK       I    between atoms: N2_5  and  C10_18 
REMARK       I    between atoms: C12_20  and  N3_8 
REMARK    3  A    between atoms: C16_24  and  N4_11 
REMARK    4  A    between atoms: C13_21  and  C12_20 
REMARK    5  A    between atoms: C18_26  and  C19_27 
REMARK    6  A    between atoms: C19_27  and  C20_28 
REMARK    7  A    between atoms: C19_27  and  C21_29 
REMARK    8  A    between atoms: C19_27  and  C22_30 
ROOT
ATOM      1  O2  AGY d          29.765  -5.819  19.063  0.00  0.00    -0.266 OA
ATOM      2  N3  AGY d          29.322  -3.622  18.889  0.00  0.00    -0.262 N 
ATOM      3  C12 AGY d          29.351  -4.777  19.608  0.00  0.00     0.270 C 
ATOM      4  H3  AGY d          28.997  -2.760  19.276  0.00  0.00     0.190 HD
ENDROOT
BRANCH   3   5
ATOM      5  C13 AGY d          28.897  -4.796  20.997  0.00  0.00     0.036 A 
ATOM      6  C14 AGY d          27.654  -4.218  21.329  0.00  0.00    -0.035 A 
ATOM      7  C16 AGY d          27.158  -4.214  22.672  0.00  0.00     0.111 A 
ATOM      8  H11 AGY d          27.058  -3.763  20.545  0.00  0.00     0.088 H 
ATOM      9  C18 AGY d          27.941  -4.815  23.768  0.00  0.00    -0.018 A 
ATOM     10  C17 AGY d          29.236  -5.412  23.393  0.00  0.00    -0.073 A 
ATOM     11  C15 AGY d          29.692  -5.393  22.024  0.00  0.00    -0.067 A 
ATOM     12  H13 AGY d          29.854  -5.872  24.157  0.00  0.00     0.084 H 
ATOM     13  H12 AGY d          30.648  -5.837  21.771  0.00  0.00     0.085 H 
BRANCH   7  14
ATOM     14  N4  AGY d          25.963  -3.691  22.887  0.00  0.00    -0.115 N 
ATOM     15  O3  AGY d          25.834  -2.395  22.929  0.00  0.00    -0.532 OA
ATOM     16  O4  AGY d          24.860  -4.515  23.073  0.00  0.00    -0.532 OA
ENDBRANCH   7  14
BRANCH   9  17
ATOM     17  C19 AGY d          27.500  -4.867  25.252  0.00  0.00    -0.022 C 
BRANCH  17  18
ATOM     18  C20 AGY d          28.664  -5.098  26.246  0.00  0.00    -0.066 C 
ATOM     19  H14 AGY d          29.545  -5.469  25.700  0.00  0.00     0.028 H 
ATOM     20  H15 AGY d          28.362  -5.839  27.000  0.00  0.00     0.028 H 
ATOM     21  H16 AGY d          28.915  -4.149  26.744  0.00  0.00     0.028 H 
ENDBRANCH  17  18
BRANCH  17  22
ATOM     22  C21 AGY d          26.882  -3.600  25.955  0.00  0.00    -0.066 C 
ATOM     23  H17 AGY d          27.032  -3.673  27.041  0.00  0.00     0.028 H 
ATOM     24  H18 AGY d          25.806  -3.548  25.735  0.00  0.00     0.028 H 
ATOM     25  H19 AGY d          27.378  -2.693  25.577  0.00  0.00     0.028 H 
ENDBRANCH  17  22
BRANCH  17  26
ATOM     26  C22 AGY d          26.405  -5.947  25.350  0.00  0.00    -0.066 C 
ATOM     27  H20 AGY d          25.508  -5.518  25.821  0.00  0.00     0.028 H 
ATOM     28  H21 AGY d          26.773  -6.787  25.959  0.00  0.00     0.028 H 
ATOM     29  H22 AGY d          26.154  -6.307  24.341  0.00  0.00     0.028 H 
ENDBRANCH  17  26
ENDBRANCH   9  17
ENDBRANCH   3   5
BRANCH   2  30
ATOM     30  N2  AGY d          29.790  -3.728  17.535  0.00  0.00    -0.248 N 
ATOM     31  C10 AGY d          30.891  -3.078  17.070  0.00  0.00     0.339 C 
ATOM     32  N1  AGY d          31.630  -2.273  17.889  0.00  0.00    -0.307 N 
ATOM     33  O1  AGY d          31.194  -3.247  15.881  0.00  0.00    -0.245 OA
ATOM     34  H1  AGY d          31.298  -2.214  18.831  0.00  0.00     0.170 HD
ATOM     35  H2  AGY d          29.280  -4.310  16.902  0.00  0.00     0.192 HD
BRANCH  32  36
ATOM     36  C2  AGY d          32.771  -1.520  17.623  0.00  0.00     0.047 A 
ATOM     37  C1  AGY d          34.126  -2.053  17.616  0.00  0.00     0.001 A 
ATOM     38  C3  AGY d          35.283  -1.156  17.315  0.00  0.00    -0.024 A 
ATOM     39  C4  AGY d          34.379  -3.448  17.897  0.00  0.00    -0.070 A 
ATOM     40  C6  AGY d          35.074   0.242  17.031  0.00  0.00    -0.072 A 
ATOM     41  C7  AGY d          36.609  -1.684  17.310  0.00  0.00    -0.072 A 
ATOM     42  C9  AGY d          33.715   0.773  17.039  0.00  0.00    -0.080 A 
ATOM     43  H6  AGY d          35.915   0.890  16.814  0.00  0.00     0.084 H 
ATOM     44  C5  AGY d          32.587  -0.101  17.331  0.00  0.00    -0.056 A 
ATOM     45  H9  AGY d          33.544   1.822  16.826  0.00  0.00     0.083 H 
ATOM     46  H5  AGY d          31.585   0.313  17.333  0.00  0.00     0.086 H 
ATOM     47  C11 AGY d          36.840  -3.088  17.595  0.00  0.00    -0.082 A 
ATOM     48  H7  AGY d          37.448  -1.033  17.092  0.00  0.00     0.084 H 
ATOM     49  C8  AGY d          35.729  -3.964  17.887  0.00  0.00    -0.082 A 
ATOM     50  H10 AGY d          37.851  -3.480  17.590  0.00  0.00     0.083 H 
ATOM     51  H8  AGY d          35.908  -5.012  18.099  0.00  0.00     0.083 H 
ATOM     52  H4  AGY d          33.551  -4.112  18.117  0.00  0.00     0.084 H 
ENDBRANCH  32  36
ENDBRANCH   2  30
TORSDOF 8
ENDMDL
MODEL 3
REMARK VINA RESULT:      -7.1      0.842      2.251
REMARK  8 active torsions:
REMARK  status: ('A' for Active; 'I' for Inactive)
REMARK    1  A    between atoms: N1_2  and  C2_4 
REMARK       I    between atoms: C10_18  and  N1_2 
REMARK    2  A    between atoms: N3_8  and  N2_5 
REMARK       I    between atoms: N2_5  and  C10_18 
REMARK       I    between atoms: C12_20  and  N3_8 
REMARK    3  A    between atoms: C16_24  and  N4_11 
REMARK    4  A    between atoms: C13_21  and  C12_20 
REMARK    5  A    between atoms: C18_26  and  C19_27 
REMARK    6  A    between atoms: C19_27  and  C20_28 
REMARK    7  A    between atoms: C19_27  and  C21_29 
REMARK    8  A    between atoms: C19_27  and  C22_30 
ROOT
ATOM      1  O2  AGY d          30.433  -6.341  19.648  0.00  0.00    -0.266 OA
ATOM      2  N3  AGY d          29.379  -4.750  18.459  0.00  0.00    -0.262 N 
ATOM      3  C12 AGY d          29.613  -5.401  19.630  0.00  0.00     0.270 C 
ATOM      4  H3  AGY d          28.731  -3.993  18.389  0.00  0.00     0.190 HD
ENDROOT
BRANCH   3   5
ATOM      5  C13 AGY d          28.908  -5.010  20.849  0.00  0.00     0.036 A 
ATOM      6  C14 AGY d          29.183  -5.684  22.057  0.00  0.00    -0.035 A 
ATOM      7  C16 AGY d          28.527  -5.337  23.282  0.00  0.00     0.111 A 
ATOM      8  H11 AGY d          29.911  -6.487  22.059  0.00  0.00     0.088 H 
ATOM      9  C18 AGY d          27.524  -4.255  23.321  0.00  0.00    -0.018 A 
ATOM     10  C17 AGY d          27.256  -3.568  22.045  0.00  0.00    -0.073 A 
ATOM     11  C15 AGY d          27.946  -3.953  20.837  0.00  0.00    -0.067 A 
ATOM     12  H13 AGY d          26.531  -2.762  22.014  0.00  0.00     0.084 H 
ATOM     13  H12 AGY d          27.732  -3.434  19.909  0.00  0.00     0.085 H 
BRANCH   7  14
ATOM     14  N4  AGY d          28.877  -5.991  24.376  0.00  0.00    -0.115 N 
ATOM     15  O3  AGY d          28.230  -7.073  24.707  0.00  0.00    -0.532 OA
ATOM     16  O4  AGY d          29.918  -5.523  25.168  0.00  0.00    -0.532 OA
ENDBRANCH   7  14
BRANCH   9  17
ATOM     17  C19 AGY d          26.757  -3.799  24.587  0.00  0.00    -0.022 C 
BRANCH  17  18
ATOM     18  C20 AGY d          25.862  -4.898  25.210  0.00  0.00    -0.066 C 
ATOM     19  H14 AGY d          25.202  -5.316  24.435  0.00  0.00     0.028 H 
ATOM     20  H15 AGY d          25.252  -4.462  26.014  0.00  0.00     0.028 H 
ATOM     21  H16 AGY d          26.496  -5.697  25.622  0.00  0.00     0.028 H 
ENDBRANCH  17  18
BRANCH  17  22
ATOM     22  C21 AGY d          27.532  -3.401  25.900  0.00  0.00    -0.066 C 
ATOM     23  H17 AGY d          28.576  -3.161  25.651  0.00  0.00     0.028 H 
ATOM     24  H18 AGY d          27.508  -4.241  26.609  0.00  0.00     0.028 H 
ATOM     25  H19 AGY d          27.053  -2.522  26.356  0.00  0.00     0.028 H 
ENDBRANCH  17  22
BRANCH  17  26
ATOM     26  C22 AGY d          25.968  -2.535  24.194  0.00  0.00    -0.066 C 
ATOM     27  H20 AGY d          25.988  -1.817  25.027  0.00  0.00     0.028 H 
ATOM     28  H21 AGY d          24.926  -2.808  23.970  0.00  0.00     0.028 H 
ATOM     29  H22 AGY d          26.427  -2.078  23.305  0.00  0.00     0.028 H 
ENDBRANCH  17  26
ENDBRANCH   9  17
ENDBRANCH   3   5
BRANCH   2  30
ATOM     30  N2  AGY d          30.128  -5.226  17.330  0.00  0.00    -0.248 N 
ATOM     31  C10 AGY d          31.396  -4.820  17.047  0.00  0.00     0.339 C 
ATOM     32  N1  AGY d          32.039  -3.917  17.845  0.00  0.00    -0.307 N 
ATOM     33  O1  AGY d          31.938  -5.300  16.043  0.00  0.00    -0.245 OA
ATOM     34  H1  AGY d          31.509  -3.600  18.632  0.00  0.00     0.170 HD
ATOM     35  H2  AGY d          29.696  -5.890  16.721  0.00  0.00     0.192 HD
BRANCH  32  36
ATOM     36  C2  AGY d          33.315  -3.368  17.738  0.00  0.00     0.047 A 
ATOM     37  C1  AGY d          33.589  -1.949  17.569  0.00  0.00     0.001 A 
ATOM     38  C3  AGY d          34.999  -1.464  17.466  0.00  0.00    -0.024 A 
ATOM     39  C4  AGY d          32.514  -0.985  17.499  0.00  0.00    -0.070 A 
ATOM     40  C6  AGY d          36.101  -2.393  17.530  0.00  0.00    -0.072 A 
ATOM     41  C7  AGY d          35.262  -0.071  17.301  0.00  0.00    -0.072 A 
ATOM     42  C9  AGY d          35.823  -3.815  17.698  0.00  0.00    -0.080 A 
ATOM     43  H6  AGY d          37.123  -2.039  17.454  0.00  0.00     0.084 H 
ATOM     44  C5  AGY d          34.449  -4.287  17.799  0.00  0.00    -0.056 A 
ATOM     45  H9  AGY d          36.642  -4.524  17.748  0.00  0.00     0.083 H 
ATOM     46  H5  AGY d          34.262  -5.348  17.924  0.00  0.00     0.086 H 
ATOM     47  C11 AGY d          34.168   0.878  17.232  0.00  0.00    -0.082 A 
ATOM     48  H7  AGY d          36.285   0.279  17.226  0.00  0.00     0.084 H 
ATOM     49  C8  AGY d          32.800   0.421  17.331  0.00  0.00    -0.082 A 
ATOM     50  H10 AGY d          34.376   1.934  17.106  0.00  0.00     0.083 H 
ATOM     51  H8  AGY d          31.986   1.135  17.280  0.00  0.00     0.083 H 
ATOM     52  H4  AGY d          31.486  -1.321  17.572  0.00  0.00     0.084 H 
ENDBRANCH  32  36
ENDBRANCH   2  30
TORSDOF 8
ENDMDL
MODEL 4
REMARK VINA RESULT:      -6.9      1.933      9.377
REMARK  8 active torsions:
REMARK  status: ('A' for Active; 'I' for Inactive)
REMARK    1  A    between atoms: N1_2  and  C2_4 
REMARK       I    between atoms: C10_18  and  N1_2 
REMARK    2  A    between atoms: N3_8  and  N2_5 
REMARK       I    between atoms: N2_5  and  C10_18 
REMARK       I    between atoms: C12_20  and  N3_8 
REMARK    3  A    between atoms: C16_24  and  N4_11 
REMARK    4  A    between atoms: C13_21  and  C12_20 
REMARK    5  A    between atoms: C18_26  and  C19_27 
REMARK    6  A    between atoms: C19_27  and  C20_28 
REMARK    7  A    between atoms: C19_27  and  C21_29 
REMARK    8  A    between atoms: C19_27  and  C22_30 
ROOT
ATOM      1  O2  AGY d          29.907  -4.373  17.674  0.00  0.00    -0.266 OA
ATOM      2  N3  AGY d          31.202  -5.518  19.111  0.00  0.00    -0.262 N 
ATOM      3  C12 AGY d          31.032  -4.532  18.189  0.00  0.00     0.270 C 
ATOM      4  H3  AGY d          32.083  -5.690  19.553  0.00  0.00     0.190 HD
ENDROOT
BRANCH   3   5
ATOM      5  C13 AGY d          32.152  -3.675  17.804  0.00  0.00     0.036 A 
ATOM      6  C14 AGY d          31.920  -2.311  17.532  0.00  0.00    -0.035 A 
ATOM      7  C16 AGY d          32.981  -1.425  17.157  0.00  0.00     0.111 A 
ATOM      8  H11 AGY d          30.911  -1.921  17.609  0.00  0.00     0.088 H 
ATOM      9  C18 AGY d          34.367  -1.916  17.035  0.00  0.00    -0.018 A 
ATOM     10  C17 AGY d          34.580  -3.346  17.325  0.00  0.00    -0.073 A 
ATOM     11  C15 AGY d          33.477  -4.198  17.702  0.00  0.00    -0.067 A 
ATOM     12  H13 AGY d          35.579  -3.763  17.254  0.00  0.00     0.084 H 
ATOM     13  H12 AGY d          33.657  -5.247  17.909  0.00  0.00     0.085 H 
BRANCH   7  14
ATOM     14  N4  AGY d          32.683  -0.152  16.964  0.00  0.00    -0.115 N 
ATOM     15  O3  AGY d          32.537   0.633  17.994  0.00  0.00    -0.532 OA
ATOM     16  O4  AGY d          32.518   0.340  15.674  0.00  0.00    -0.532 OA
ENDBRANCH   7  14
BRANCH   9  17
ATOM     17  C19 AGY d          35.587  -1.048  16.638  0.00  0.00    -0.022 C 
BRANCH  17  18
ATOM     18  C20 AGY d          35.662  -0.724  15.126  0.00  0.00    -0.066 C 
ATOM     19  H14 AGY d          35.279  -1.578  14.549  0.00  0.00     0.028 H 
ATOM     20  H15 AGY d          36.708  -0.531  14.845  0.00  0.00     0.028 H 
ATOM     21  H16 AGY d          35.054   0.167  14.912  0.00  0.00     0.028 H 
ENDBRANCH  17  18
BRANCH  17  22
ATOM     22  C21 AGY d          35.733   0.428  17.169  0.00  0.00    -0.066 C 
ATOM     23  H17 AGY d          34.860   0.683  17.788  0.00  0.00     0.028 H 
ATOM     24  H18 AGY d          35.793   1.120  16.316  0.00  0.00     0.028 H 
ATOM     25  H19 AGY d          36.648   0.511  17.774  0.00  0.00     0.028 H 
ENDBRANCH  17  22
BRANCH  17  26
ATOM     26  C22 AGY d          36.838  -1.781  17.158  0.00  0.00    -0.066 C 
ATOM     27  H20 AGY d          37.653  -1.680  16.425  0.00  0.00     0.028 H 
ATOM     28  H21 AGY d          36.606  -2.847  17.302  0.00  0.00     0.028 H 
ATOM     29  H22 AGY d          37.151  -1.340  18.116  0.00  0.00     0.028 H 
ENDBRANCH  17  26
ENDBRANCH   9  17
ENDBRANCH   3   5
BRANCH   2  30
ATOM     30  N2  AGY d          30.031  -6.295  19.405  0.00  0.00    -0.248 N 
ATOM     31  C10 AGY d          29.336  -6.190  20.570  0.00  0.00     0.339 C 
ATOM     32  N1  AGY d          29.724  -5.315  21.544  0.00  0.00    -0.307 N 
ATOM     33  O1  AGY d          28.342  -6.916  20.709  0.00  0.00    -0.245 OA
ATOM     34  H1  AGY d          30.536  -4.774  21.323  0.00  0.00     0.170 HD
ATOM     35  H2  AGY d          29.710  -6.946  18.719  0.00  0.00     0.192 HD
BRANCH  32  36
ATOM     36  C2  AGY d          29.170  -5.054  22.795  0.00  0.00     0.047 A 
ATOM     37  C1  AGY d          27.960  -4.275  23.014  0.00  0.00     0.001 A 
ATOM     38  C3  AGY d          27.449  -4.057  24.401  0.00  0.00    -0.024 A 
ATOM     39  C4  AGY d          27.232  -3.701  21.904  0.00  0.00    -0.070 A 
ATOM     40  C6  AGY d          28.146  -4.611  25.536  0.00  0.00    -0.072 A 
ATOM     41  C7  AGY d          26.262  -3.292  24.610  0.00  0.00    -0.072 A 
ATOM     42  C9  AGY d          29.359  -5.391  25.314  0.00  0.00    -0.080 A 
ATOM     43  H6  AGY d          27.774  -4.450  26.541  0.00  0.00     0.084 H 
ATOM     44  C5  AGY d          29.856  -5.604  23.961  0.00  0.00    -0.056 A 
ATOM     45  H9  AGY d          29.892  -5.813  26.158  0.00  0.00     0.083 H 
ATOM     46  H5  AGY d          30.759  -6.186  23.816  0.00  0.00     0.086 H 
ATOM     47  C11 AGY d          25.548  -2.725  23.482  0.00  0.00    -0.082 A 
ATOM     48  H7  AGY d          25.893  -3.134  25.616  0.00  0.00     0.084 H 
ATOM     49  C8  AGY d          26.033  -2.930  22.136  0.00  0.00    -0.082 A 
ATOM     50  H10 AGY d          24.648  -2.145  23.649  0.00  0.00     0.083 H 
ATOM     51  H8  AGY d          25.495  -2.504  21.296  0.00  0.00     0.083 H 
ATOM     52  H4  AGY d          27.590  -3.851  20.892  0.00  0.00     0.084 H 
ENDBRANCH  32  36
ENDBRANCH   2  30
TORSDOF 8
ENDMDL
MODEL 5
REMARK VINA RESULT:      -6.7      1.968      9.360
REMARK  8 active torsions:
REMARK  status: ('A' for Active; 'I' for Inactive)
REMARK    1  A    between atoms: N1_2  and  C2_4 
REMARK       I    between atoms: C10_18  and  N1_2 
REMARK    2  A    between atoms: N3_8  and  N2_5 
REMARK       I    between atoms: N2_5  and  C10_18 
REMARK       I    between atoms: C12_20  and  N3_8 
REMARK    3  A    between atoms: C16_24  and  N4_11 
REMARK    4  A    between atoms: C13_21  and  C12_20 
REMARK    5  A    between atoms: C18_26  and  C19_27 
REMARK    6  A    between atoms: C19_27  and  C20_28 
REMARK    7  A    between atoms: C19_27  and  C21_29 
REMARK    8  A    between atoms: C19_27  and  C22_30 
ROOT
ATOM      1  O2  AGY d          32.378  -5.737  18.110  0.00  0.00    -0.266 OA
ATOM      2  N3  AGY d          30.882  -4.232  18.853  0.00  0.00    -0.262 N 
ATOM      3  C12 AGY d          32.052  -4.539  18.229  0.00  0.00     0.270 C 
ATOM      4  H3  AGY d          30.575  -3.289  18.978  0.00  0.00     0.190 HD
ENDROOT
BRANCH   3   5
ATOM      5  C13 AGY d          32.916  -3.480  17.712  0.00  0.00     0.036 A 
ATOM      6  C14 AGY d          32.439  -2.153  17.672  0.00  0.00    -0.035 A 
ATOM      7  C16 AGY d          33.245  -1.075  17.182  0.00  0.00     0.111 A 
ATOM      8  H11 AGY d          31.434  -1.943  18.022  0.00  0.00     0.088 H 
ATOM      9  C18 AGY d          34.614  -1.320  16.689  0.00  0.00    -0.018 A 
ATOM     10  C17 AGY d          35.086  -2.715  16.742  0.00  0.00    -0.073 A 
ATOM     11  C15 AGY d          34.236  -3.767  17.248  0.00  0.00    -0.067 A 
ATOM     12  H13 AGY d          36.086  -2.955  16.396  0.00  0.00     0.084 H 
ATOM     13  H12 AGY d          34.604  -4.786  17.277  0.00  0.00     0.085 H 
BRANCH   7  14
ATOM     14  N4  AGY d          32.736   0.143  17.221  0.00  0.00    -0.115 N 
ATOM     15  O3  AGY d          32.921   0.878  18.282  0.00  0.00    -0.532 OA
ATOM     16  O4  AGY d          32.003   0.631  16.146  0.00  0.00    -0.532 OA
ENDBRANCH   7  14
BRANCH   9  17
ATOM     17  C19 AGY d          35.569  -0.232  16.140  0.00  0.00    -0.022 C 
BRANCH  17  18
ATOM     18  C20 AGY d          34.913   0.718  15.109  0.00  0.00    -0.066 C 
ATOM     19  H14 AGY d          35.451   1.678  15.101  0.00  0.00     0.028 H 
ATOM     20  H15 AGY d          33.862   0.890  15.386  0.00  0.00     0.028 H 
ATOM     21  H16 AGY d          34.959   0.263  14.109  0.00  0.00     0.028 H 
ENDBRANCH  17  18
BRANCH  17  22
ATOM     22  C21 AGY d          36.161   0.877  17.090  0.00  0.00    -0.066 C 
ATOM     23  H17 AGY d          35.694   1.845  16.859  0.00  0.00     0.028 H 
ATOM     24  H18 AGY d          37.248   0.948  16.938  0.00  0.00     0.028 H 
ATOM     25  H19 AGY d          35.953   0.611  18.137  0.00  0.00     0.028 H 
ENDBRANCH  17  22
BRANCH  17  26
ATOM     26  C22 AGY d          36.800  -0.968  15.577  0.00  0.00    -0.066 C 
ATOM     27  H20 AGY d          37.338  -1.466  16.398  0.00  0.00     0.028 H 
ATOM     28  H21 AGY d          37.469  -0.244  15.087  0.00  0.00     0.028 H 
ATOM     29  H22 AGY d          36.474  -1.721  14.843  0.00  0.00     0.028 H 
ENDBRANCH  17  26
ENDBRANCH   9  17
ENDBRANCH   3   5
BRANCH   2  30
ATOM     30  N2  AGY d          30.121  -5.356  19.321  0.00  0.00    -0.248 N 
ATOM     31  C10 AGY d          29.169  -5.266  20.290  0.00  0.00     0.339 C 
ATOM     32  N1  AGY d          28.880  -4.069  20.881  0.00  0.00    -0.307 N 
ATOM     33  O1  AGY d          28.580  -6.307  20.611  0.00  0.00    -0.245 OA
ATOM     34  H1  AGY d          29.412  -3.293  20.541  0.00  0.00     0.170 HD
ATOM     35  H2  AGY d          30.298  -6.251  18.913  0.00  0.00     0.192 HD
BRANCH  32  36
ATOM     36  C2  AGY d          27.963  -3.756  21.881  0.00  0.00     0.047 A 
ATOM     37  C1  AGY d          28.131  -4.094  23.287  0.00  0.00     0.001 A 
ATOM     38  C3  AGY d          27.083  -3.709  24.281  0.00  0.00    -0.024 A 
ATOM     39  C4  AGY d          29.304  -4.801  23.749  0.00  0.00    -0.070 A 
ATOM     40  C6  AGY d          25.896  -3.003  23.862  0.00  0.00    -0.072 A 
ATOM     41  C7  AGY d          27.253  -4.042  25.659  0.00  0.00    -0.072 A 
ATOM     42  C9  AGY d          25.731  -2.668  22.452  0.00  0.00    -0.080 A 
ATOM     43  H6  AGY d          25.138  -2.726  24.585  0.00  0.00     0.084 H 
ATOM     44  C5  AGY d          26.752  -3.042  21.483  0.00  0.00    -0.056 A 
ATOM     45  H9  AGY d          24.844  -2.137  22.124  0.00  0.00     0.083 H 
ATOM     46  H5  AGY d          26.611  -2.784  20.440  0.00  0.00     0.086 H 
ATOM     47  C11 AGY d          28.438  -4.753  26.100  0.00  0.00    -0.082 A 
ATOM     48  H7  AGY d          26.492  -3.762  26.378  0.00  0.00     0.084 H 
ATOM     49  C8  AGY d          29.458  -5.129  25.147  0.00  0.00    -0.082 A 
ATOM     50  H10 AGY d          28.559  -5.002  27.148  0.00  0.00     0.083 H 
ATOM     51  H8  AGY d          30.342  -5.660  25.483  0.00  0.00     0.083 H 
ATOM     52  H4  AGY d          30.073  -5.087  23.041  0.00  0.00     0.084 H 
ENDBRANCH  32  36
ENDBRANCH   2  30
TORSDOF 8
ENDMDL
MODEL 6
REMARK VINA RESULT:      -6.3      2.207      9.297
REMARK  8 active torsions:
REMARK  status: ('A' for Active; 'I' for Inactive)
REMARK    1  A    between atoms: N1_2  and  C2_4 
REMARK       I    between atoms: C10_18  and  N1_2 
REMARK    2  A    between atoms: N3_8  and  N2_5 
REMARK       I    between atoms: N2_5  and  C10_18 
REMARK       I    between atoms: C12_20  and  N3_8 
REMARK    3  A    between atoms: C16_24  and  N4_11 
REMARK    4  A    between atoms: C13_21  and  C12_20 
REMARK    5  A    between atoms: C18_26  and  C19_27 
REMARK    6  A    between atoms: C19_27  and  C20_28 
REMARK    7  A    between atoms: C19_27  and  C21_29 
REMARK    8  A    between atoms: C19_27  and  C22_30 
ROOT
ATOM      1  O2  AGY d          29.774  -4.793  17.604  0.00  0.00    -0.266 OA
ATOM      2  N3  AGY d          31.175  -5.690  19.116  0.00  0.00    -0.262 N 
ATOM      3  C12 AGY d          30.914  -4.811  18.110  0.00  0.00     0.270 C 
ATOM      4  H3  AGY d          32.072  -5.748  19.554  0.00  0.00     0.190 HD
ENDROOT
BRANCH   3   5
ATOM      5  C13 AGY d          31.956  -3.908  17.625  0.00  0.00     0.036 A 
ATOM      6  C14 AGY d          33.294  -4.352  17.583  0.00  0.00    -0.035 A 
ATOM      7  C16 AGY d          34.353  -3.511  17.111  0.00  0.00     0.111 A 
ATOM      8  H11 AGY d          33.527  -5.357  17.917  0.00  0.00     0.088 H 
ATOM      9  C18 AGY d          34.079  -2.135  16.655  0.00  0.00    -0.018 A 
ATOM     10  C17 AGY d          32.673  -1.698  16.710  0.00  0.00    -0.073 A 
ATOM     11  C15 AGY d          31.639  -2.584  17.191  0.00  0.00    -0.067 A 
ATOM     12  H13 AGY d          32.411  -0.697  16.384  0.00  0.00     0.084 H 
ATOM     13  H12 AGY d          30.612  -2.241  17.225  0.00  0.00     0.085 H 
BRANCH   7  14
ATOM     14  N4  AGY d          35.571  -4.023  17.063  0.00  0.00    -0.115 N 
ATOM     15  O3  AGY d          35.914  -4.759  16.045  0.00  0.00    -0.532 OA
ATOM     16  O4  AGY d          36.472  -3.782  18.094  0.00  0.00    -0.532 OA
ENDBRANCH   7  14
BRANCH   9  17
ATOM     17  C19 AGY d          35.146  -1.145  16.126  0.00  0.00    -0.022 C 
BRANCH  17  18
ATOM     18  C20 AGY d          36.082  -0.584  17.225  0.00  0.00    -0.066 C 
ATOM     19  H14 AGY d          35.548  -0.564  18.186  0.00  0.00     0.028 H 
ATOM     20  H15 AGY d          36.392   0.436  16.957  0.00  0.00     0.028 H 
ATOM     21  H16 AGY d          36.970  -1.227  17.312  0.00  0.00     0.028 H 
ENDBRANCH  17  18
BRANCH  17  22
ATOM     22  C21 AGY d          36.268  -1.624  15.129  0.00  0.00    -0.066 C 
ATOM     23  H17 AGY d          37.217  -1.128  15.380  0.00  0.00     0.028 H 
ATOM     24  H18 AGY d          35.979  -1.364  14.100  0.00  0.00     0.028 H 
ATOM     25  H19 AGY d          36.390  -2.714  15.211  0.00  0.00     0.028 H 
ENDBRANCH  17  22
BRANCH  17  26
ATOM     26  C22 AGY d          34.386  -0.041  15.366  0.00  0.00    -0.066 C 
ATOM     27  H20 AGY d          34.200   0.808  16.041  0.00  0.00     0.028 H 
ATOM     28  H21 AGY d          33.425  -0.439  15.005  0.00  0.00     0.028 H 
ATOM     29  H22 AGY d          34.988   0.296  14.509  0.00  0.00     0.028 H 
ENDBRANCH  17  26
ENDBRANCH   9  17
ENDBRANCH   3   5
BRANCH   2  30
ATOM     30  N2  AGY d          30.075  -6.526  19.504  0.00  0.00    -0.248 N 
ATOM     31  C10 AGY d          29.398  -6.379  20.675  0.00  0.00     0.339 C 
ATOM     32  N1  AGY d          29.737  -5.399  21.564  0.00  0.00    -0.307 N 
ATOM     33  O1  AGY d          28.468  -7.164  20.900  0.00  0.00    -0.245 OA
ATOM     34  H1  AGY d          30.500  -4.818  21.278  0.00  0.00     0.170 HD
ATOM     35  H2  AGY d          29.791  -7.255  18.881  0.00  0.00     0.192 HD
BRANCH  32  36
ATOM     36  C2  AGY d          29.191  -5.079  22.804  0.00  0.00     0.047 A 
ATOM     37  C1  AGY d          27.991  -4.276  22.994  0.00  0.00     0.001 A 
ATOM     38  C3  AGY d          27.489  -3.993  24.372  0.00  0.00    -0.024 A 
ATOM     39  C4  AGY d          27.267  -3.741  21.863  0.00  0.00    -0.070 A 
ATOM     40  C6  AGY d          28.183  -4.507  25.528  0.00  0.00    -0.072 A 
ATOM     41  C7  AGY d          26.312  -3.205  24.552  0.00  0.00    -0.072 A 
ATOM     42  C9  AGY d          29.385  -5.311  25.334  0.00  0.00    -0.080 A 
ATOM     43  H6  AGY d          27.816  -4.299  26.526  0.00  0.00     0.084 H 
ATOM     44  C5  AGY d          29.875  -5.587  23.991  0.00  0.00    -0.056 A 
ATOM     45  H9  AGY d          29.916  -5.704  26.194  0.00  0.00     0.083 H 
ATOM     46  H5  AGY d          30.770  -6.186  23.868  0.00  0.00     0.086 H 
ATOM     47  C11 AGY d          25.601  -2.677  23.403  0.00  0.00    -0.082 A 
ATOM     48  H7  AGY d          25.948  -3.000  25.552  0.00  0.00     0.084 H 
ATOM     49  C8  AGY d          26.078  -2.945  22.065  0.00  0.00    -0.082 A 
ATOM     50  H10 AGY d          24.708  -2.079  23.549  0.00  0.00     0.083 H 
ATOM     51  H8  AGY d          25.542  -2.548  21.210  0.00  0.00     0.083 H 
ATOM     52  H4  AGY d          27.619  -3.937  20.857  0.00  0.00     0.084 H 
ENDBRANCH  32  36
ENDBRANCH   2  30
TORSDOF 8
ENDMDL
MODEL 7
REMARK VINA RESULT:      -5.8      2.120      9.350
REMARK  8 active torsions:
REMARK  status: ('A' for Active; 'I' for Inactive)
REMARK    1  A    between atoms: N1_2  and  C2_4 
REMARK       I    between atoms: C10_18  and  N1_2 
REMARK    2  A    between atoms: N3_8  and  N2_5 
REMARK       I    between atoms: N2_5  and  C10_18 
REMARK       I    between atoms: C12_20  and  N3_8 
REMARK    3  A    between atoms: C16_24  and  N4_11 
REMARK    4  A    between atoms: C13_21  and  C12_20 
REMARK    5  A    between atoms: C18_26  and  C19_27 
REMARK    6  A    between atoms: C19_27  and  C20_28 
REMARK    7  A    between atoms: C19_27  and  C21_29 
REMARK    8  A    between atoms: C19_27  and  C22_30 
ROOT
ATOM      1  O2  AGY d          31.650  -7.351  19.550  0.00  0.00    -0.266 OA
ATOM      2  N3  AGY d          30.039  -5.918  18.915  0.00  0.00    -0.262 N 
ATOM      3  C12 AGY d          31.343  -6.305  18.945  0.00  0.00     0.270 C 
ATOM      4  H3  AGY d          29.739  -5.087  18.447  0.00  0.00     0.190 HD
ENDROOT
BRANCH   3   5
ATOM      5  C13 AGY d          32.370  -5.503  18.284  0.00  0.00     0.036 A 
ATOM      6  C14 AGY d          32.043  -4.218  17.801  0.00  0.00    -0.035 A 
ATOM      7  C16 AGY d          33.011  -3.387  17.151  0.00  0.00     0.111 A 
ATOM      8  H11 AGY d          31.030  -3.851  17.924  0.00  0.00     0.088 H 
ATOM      9  C18 AGY d          34.397  -3.853  16.956  0.00  0.00    -0.018 A 
ATOM     10  C17 AGY d          34.711  -5.198  17.470  0.00  0.00    -0.073 A 
ATOM     11  C15 AGY d          33.700  -5.998  18.121  0.00  0.00    -0.067 A 
ATOM     12  H13 AGY d          35.715  -5.592  17.358  0.00  0.00     0.084 H 
ATOM     13  H12 AGY d          33.953  -6.985  18.490  0.00  0.00     0.085 H 
BRANCH   7  14
ATOM     14  N4  AGY d          32.631  -2.180  16.769  0.00  0.00    -0.115 N 
ATOM     15  O3  AGY d          32.947  -1.150  17.501  0.00  0.00    -0.532 OA
ATOM     16  O4  AGY d          31.893  -2.015  15.602  0.00  0.00    -0.532 OA
ENDBRANCH   7  14
BRANCH   9  17
ATOM     17  C19 AGY d          35.521  -3.038  16.269  0.00  0.00    -0.022 C 
BRANCH  17  18
ATOM     18  C20 AGY d          36.544  -3.905  15.497  0.00  0.00    -0.066 C 
ATOM     19  H14 AGY d          37.209  -3.254  14.910  0.00  0.00     0.028 H 
ATOM     20  H15 AGY d          36.009  -4.587  14.819  0.00  0.00     0.028 H 
ATOM     21  H16 AGY d          37.141  -4.491  16.211  0.00  0.00     0.028 H 
ENDBRANCH  17  18
BRANCH  17  22
ATOM     22  C21 AGY d          35.190  -2.029  15.105  0.00  0.00    -0.066 C 
ATOM     23  H17 AGY d          36.003  -2.044  14.365  0.00  0.00     0.028 H 
ATOM     24  H18 AGY d          35.088  -1.015  15.517  0.00  0.00     0.028 H 
ATOM     25  H19 AGY d          34.248  -2.325  14.621  0.00  0.00     0.028 H 
ENDBRANCH  17  22
BRANCH  17  26
ATOM     26  C22 AGY d          36.174  -2.175  17.366  0.00  0.00    -0.066 C 
ATOM     27  H20 AGY d          36.757  -1.367  16.899  0.00  0.00     0.028 H 
ATOM     28  H21 AGY d          36.841  -2.802  17.977  0.00  0.00     0.028 H 
ATOM     29  H22 AGY d          35.392  -1.740  18.006  0.00  0.00     0.028 H 
ENDBRANCH  17  26
ENDBRANCH   9  17
ENDBRANCH   3   5
BRANCH   2  30
ATOM     30  N2  AGY d          29.123  -6.784  19.602  0.00  0.00    -0.248 N 
ATOM     31  C10 AGY d          28.672  -6.549  20.864  0.00  0.00     0.339 C 
ATOM     32  N1  AGY d          29.076  -5.446  21.560  0.00  0.00    -0.307 N 
ATOM     33  O1  AGY d          27.886  -7.372  21.352  0.00  0.00    -0.245 OA
ATOM     34  H1  AGY d          29.707  -4.846  21.067  0.00  0.00     0.170 HD
ATOM     35  H2  AGY d          28.800  -7.603  19.128  0.00  0.00     0.192 HD
BRANCH  32  36
ATOM     36  C2  AGY d          28.748  -5.022  22.845  0.00  0.00     0.047 A 
ATOM     37  C1  AGY d          27.615  -4.165  23.167  0.00  0.00     0.001 A 
ATOM     38  C3  AGY d          27.353  -3.770  24.584  0.00  0.00    -0.024 A 
ATOM     39  C4  AGY d          26.728  -3.684  22.132  0.00  0.00    -0.070 A 
ATOM     40  C6  AGY d          28.215  -4.227  25.646  0.00  0.00    -0.072 A 
ATOM     41  C7  AGY d          26.241  -2.930  24.893  0.00  0.00    -0.072 A 
ATOM     42  C9  AGY d          29.350  -5.085  25.321  0.00  0.00    -0.080 A 
ATOM     43  H6  AGY d          28.023  -3.938  26.673  0.00  0.00     0.084 H 
ATOM     44  C5  AGY d          29.605  -5.471  23.940  0.00  0.00    -0.056 A 
ATOM     45  H9  AGY d          30.005  -5.436  26.109  0.00  0.00     0.083 H 
ATOM     46  H5  AGY d          30.454  -6.108  23.718  0.00  0.00     0.086 H 
ATOM     47  C11 AGY d          25.363  -2.458  23.839  0.00  0.00    -0.082 A 
ATOM     48  H7  AGY d          26.051  -2.644  25.921  0.00  0.00     0.084 H 
ATOM     49  C8  AGY d          25.608  -2.835  22.465  0.00  0.00    -0.082 A 
ATOM     50  H10 AGY d          24.521  -1.820  24.083  0.00  0.00     0.083 H 
ATOM     51  H8  AGY d          24.948  -2.479  21.681  0.00  0.00     0.083 H 
ATOM     52  H4  AGY d          26.905  -3.962  21.100  0.00  0.00     0.084 H 
ENDBRANCH  32  36
ENDBRANCH   2  30
TORSDOF 8
ENDMDL
