MODEL 1
REMARK VINA RESULT:      -7.3      0.000      0.000
REMARK  2 active torsions:
REMARK  status: ('A' for Active; 'I' for Inactive)
REMARK    1  A    between atoms: C6_6  and  S11_10 
REMARK    2  A    between atoms: C7_14  and  N15_15 
ROOT
ATOM      1  C1  MOL d         -22.432   2.165 -24.641  0.00  0.00    -0.059 A 
ATOM      2  C2  MOL d         -22.760   2.123 -25.995  0.00  0.00    -0.081 A 
ATOM      3  C3  MOL d         -22.302   1.068 -26.780  0.00  0.00    -0.070 A 
ATOM      4  C4  MOL d         -21.519   0.048 -26.216  0.00  0.00     0.002 A 
ATOM      5  C5  MOL d         -21.187   0.089 -24.845  0.00  0.00     0.001 A 
ATOM      6  C6  MOL d         -21.655   1.157 -24.050  0.00  0.00     0.091 A 
ATOM      7  C9  MOL d         -19.961  -1.996 -25.108  0.00  0.00    -0.080 A 
ATOM      8  C10 MOL d         -20.405  -0.945 -24.307  0.00  0.00    -0.070 A 
ATOM      9  C8  MOL d         -20.289  -2.025 -26.464  0.00  0.00    -0.057 A 
ATOM     10  C7  MOL d         -21.066  -1.008 -27.024  0.00  0.00     0.036 A 
ATOM     11  H1  MOL d         -22.783   2.991 -24.033  0.00  0.00     0.086 H 
ATOM     12  H2  MOL d         -23.368   2.905 -26.435  0.00  0.00     0.083 H 
ATOM     13  H3  MOL d         -22.551   1.033 -27.834  0.00  0.00     0.084 H 
ATOM     14  H4  MOL d         -19.362  -2.791 -24.678  0.00  0.00     0.083 H 
ATOM     15  H5  MOL d         -20.143  -0.926 -23.255  0.00  0.00     0.084 H 
ATOM     16  H6  MOL d         -19.938  -2.840 -27.087  0.00  0.00     0.086 H 
ENDROOT
BRANCH   6  17
ATOM     17  S11 MOL d         -21.330   1.297 -22.471  0.00  0.00     0.138 S 
ATOM     18  O14 MOL d         -22.070   0.241 -21.742  0.00  0.00    -0.591 OA
ATOM     19  O12 MOL d         -21.738   2.656 -22.024  0.00  0.00    -0.591 OA
ATOM     20  O13 MOL d         -19.883   1.143 -22.168  0.00  0.00    -0.591 OA
ENDBRANCH   6  17
BRANCH  10  21
ATOM     21  N15 MOL d         -21.362  -1.074 -28.356  0.00  0.00    -0.398 N 
ATOM     22  H7  MOL d         -21.108  -0.294 -28.978  0.00  0.00     0.156 HD
ATOM     23  H8  MOL d         -21.840  -1.902 -28.736  0.00  0.00     0.156 HD
ENDBRANCH  10  21
TORSDOF 2
ENDMDL
MODEL 2
REMARK VINA RESULT:      -7.3      1.406      3.437
REMARK  2 active torsions:
REMARK  status: ('A' for Active; 'I' for Inactive)
REMARK    1  A    between atoms: C6_6  and  S11_10 
REMARK    2  A    between atoms: C7_14  and  N15_15 
ROOT
ATOM      1  C1  MOL d         -20.527  -2.167 -24.637  0.00  0.00    -0.059 A 
ATOM      2  C2  MOL d         -20.198  -2.127 -25.992  0.00  0.00    -0.081 A 
ATOM      3  C3  MOL d         -20.656  -1.073 -26.778  0.00  0.00    -0.070 A 
ATOM      4  C4  MOL d         -21.438  -0.053 -26.217  0.00  0.00     0.002 A 
ATOM      5  C5  MOL d         -21.771  -0.091 -24.845  0.00  0.00     0.001 A 
ATOM      6  C6  MOL d         -21.303  -1.157 -24.048  0.00  0.00     0.091 A 
ATOM      7  C9  MOL d         -22.996   1.994 -25.113  0.00  0.00    -0.080 A 
ATOM      8  C10 MOL d         -22.553   0.944 -24.310  0.00  0.00    -0.070 A 
ATOM      9  C8  MOL d         -22.668   2.020 -26.469  0.00  0.00    -0.057 A 
ATOM     10  C7  MOL d         -21.891   1.002 -27.026  0.00  0.00     0.036 A 
ATOM     11  H1  MOL d         -20.176  -2.992 -24.028  0.00  0.00     0.086 H 
ATOM     12  H2  MOL d         -19.590  -2.911 -26.429  0.00  0.00     0.083 H 
ATOM     13  H3  MOL d         -20.406  -1.041 -27.832  0.00  0.00     0.084 H 
ATOM     14  H4  MOL d         -23.596   2.790 -24.684  0.00  0.00     0.083 H 
ATOM     15  H5  MOL d         -22.816   0.927 -23.258  0.00  0.00     0.084 H 
ATOM     16  H6  MOL d         -23.018   2.834 -27.093  0.00  0.00     0.086 H 
ENDROOT
BRANCH   6  17
ATOM     17  S11 MOL d         -21.629  -1.295 -22.469  0.00  0.00     0.138 S 
ATOM     18  O14 MOL d         -20.891  -0.237 -21.742  0.00  0.00    -0.591 OA
ATOM     19  O12 MOL d         -21.220  -2.653 -22.019  0.00  0.00    -0.591 OA
ATOM     20  O13 MOL d         -23.077  -1.142 -22.167  0.00  0.00    -0.591 OA
ENDBRANCH   6  17
BRANCH  10  21
ATOM     21  N15 MOL d         -21.594   1.066 -28.358  0.00  0.00    -0.398 N 
ATOM     22  H7  MOL d         -22.018   0.393 -29.012  0.00  0.00     0.156 HD
ATOM     23  H8  MOL d         -20.945   1.785 -28.707  0.00  0.00     0.156 HD
ENDBRANCH  10  21
TORSDOF 2
ENDMDL
MODEL 3
REMARK VINA RESULT:      -7.1      3.975      4.458
REMARK  2 active torsions:
REMARK  status: ('A' for Active; 'I' for Inactive)
REMARK    1  A    between atoms: C6_6  and  S11_10 
REMARK    2  A    between atoms: C7_14  and  N15_15 
ROOT
ATOM      1  C1  MOL d         -22.610   1.615 -27.063  0.00  0.00    -0.059 A 
ATOM      2  C2  MOL d         -22.953   2.337 -25.920  0.00  0.00    -0.081 A 
ATOM      3  C3  MOL d         -22.559   1.868 -24.669  0.00  0.00    -0.070 A 
ATOM      4  C4  MOL d         -21.818   0.683 -24.553  0.00  0.00     0.002 A 
ATOM      5  C5  MOL d         -21.469  -0.048 -25.710  0.00  0.00     0.001 A 
ATOM      6  C6  MOL d         -21.866   0.429 -26.977  0.00  0.00     0.091 A 
ATOM      7  C9  MOL d         -20.335  -1.678 -24.303  0.00  0.00    -0.080 A 
ATOM      8  C10 MOL d         -20.725  -1.230 -25.564  0.00  0.00    -0.070 A 
ATOM      9  C8  MOL d         -20.690  -0.953 -23.165  0.00  0.00    -0.057 A 
ATOM     10  C7  MOL d         -21.430   0.226 -23.282  0.00  0.00     0.036 A 
ATOM     11  H1  MOL d         -22.924   1.977 -28.035  0.00  0.00     0.086 H 
ATOM     12  H2  MOL d         -23.522   3.255 -26.005  0.00  0.00     0.083 H 
ATOM     13  H3  MOL d         -22.827   2.424 -23.778  0.00  0.00     0.084 H 
ATOM     14  H4  MOL d         -19.757  -2.591 -24.206  0.00  0.00     0.083 H 
ATOM     15  H5  MOL d         -20.450  -1.801 -26.444  0.00  0.00     0.084 H 
ATOM     16  H6  MOL d         -20.391  -1.306 -22.185  0.00  0.00     0.086 H 
ENDROOT
BRANCH   6  17
ATOM     17  S11 MOL d         -21.518  -0.334 -28.362  0.00  0.00     0.138 S 
ATOM     18  O14 MOL d         -20.047  -0.356 -28.531  0.00  0.00    -0.591 OA
ATOM     19  O12 MOL d         -22.185   0.388 -29.478  0.00  0.00    -0.591 OA
ATOM     20  O13 MOL d         -22.008  -1.737 -28.381  0.00  0.00    -0.591 OA
ENDBRANCH   6  17
BRANCH  10  21
ATOM     21  N15 MOL d         -21.758   0.905 -22.144  0.00  0.00    -0.398 N 
ATOM     22  H7  MOL d         -21.923   1.921 -22.179  0.00  0.00     0.156 HD
ATOM     23  H8  MOL d         -21.839   0.401 -21.249  0.00  0.00     0.156 HD
ENDBRANCH  10  21
TORSDOF 2
ENDMDL
MODEL 4
REMARK VINA RESULT:      -7.1      3.866      5.038
REMARK  2 active torsions:
REMARK  status: ('A' for Active; 'I' for Inactive)
REMARK    1  A    between atoms: C6_6  and  S11_10 
REMARK    2  A    between atoms: C7_14  and  N15_15 
ROOT
ATOM      1  C1  MOL d         -20.290  -1.675 -27.001  0.00  0.00    -0.059 A 
ATOM      2  C2  MOL d         -19.985  -2.410 -25.856  0.00  0.00    -0.081 A 
ATOM      3  C3  MOL d         -20.410  -1.951 -24.612  0.00  0.00    -0.070 A 
ATOM      4  C4  MOL d         -21.146  -0.761 -24.505  0.00  0.00     0.002 A 
ATOM      5  C5  MOL d         -21.457  -0.017 -25.664  0.00  0.00     0.001 A 
ATOM      6  C6  MOL d         -21.029  -0.484 -26.924  0.00  0.00     0.091 A 
ATOM      7  C9  MOL d         -22.619   1.608 -24.273  0.00  0.00    -0.080 A 
ATOM      8  C10 MOL d         -22.197   1.169 -25.527  0.00  0.00    -0.070 A 
ATOM      9  C8  MOL d         -22.301   0.868 -23.133  0.00  0.00    -0.057 A 
ATOM     10  C7  MOL d         -21.567  -0.315 -23.241  0.00  0.00     0.036 A 
ATOM     11  H1  MOL d         -19.952  -2.030 -27.968  0.00  0.00     0.086 H 
ATOM     12  H2  MOL d         -19.420  -3.332 -25.934  0.00  0.00     0.083 H 
ATOM     13  H3  MOL d         -20.171  -2.517 -23.720  0.00  0.00     0.084 H 
ATOM     14  H4  MOL d         -23.194   2.523 -24.184  0.00  0.00     0.083 H 
ATOM     15  H5  MOL d         -22.443   1.750 -26.409  0.00  0.00     0.084 H 
ATOM     16  H6  MOL d         -22.626   1.214 -22.159  0.00  0.00     0.086 H 
ENDROOT
BRANCH   6  17
ATOM     17  S11 MOL d         -21.332   0.294 -28.310  0.00  0.00     0.138 S 
ATOM     18  O14 MOL d         -20.883  -0.557 -29.436  0.00  0.00    -0.591 OA
ATOM     19  O12 MOL d         -20.609   1.595 -28.289  0.00  0.00    -0.591 OA
ATOM     20  O13 MOL d         -22.776   0.589 -28.498  0.00  0.00    -0.591 OA
ENDBRANCH   6  17
BRANCH  10  21
ATOM     21  N15 MOL d         -21.276  -1.007 -22.101  0.00  0.00    -0.398 N 
ATOM     22  H7  MOL d         -21.828  -1.839 -21.848  0.00  0.00     0.156 HD
ATOM     23  H8  MOL d         -20.505  -0.696 -21.493  0.00  0.00     0.156 HD
ENDBRANCH  10  21
TORSDOF 2
ENDMDL
MODEL 5
REMARK VINA RESULT:      -6.7      1.093      2.953
REMARK  2 active torsions:
REMARK  status: ('A' for Active; 'I' for Inactive)
REMARK    1  A    between atoms: C6_6  and  S11_10 
REMARK    2  A    between atoms: C7_14  and  N15_15 
ROOT
ATOM      1  C1  MOL d         -20.122  -1.702 -24.386  0.00  0.00    -0.059 A 
ATOM      2  C2  MOL d         -19.890  -2.412 -25.564  0.00  0.00    -0.081 A 
ATOM      3  C3  MOL d         -20.368  -1.911 -26.772  0.00  0.00    -0.070 A 
ATOM      4  C4  MOL d         -21.074  -0.699 -26.811  0.00  0.00     0.002 A 
ATOM      5  C5  MOL d         -21.308   0.021 -25.620  0.00  0.00     0.001 A 
ATOM      6  C6  MOL d         -20.820  -0.485 -24.397  0.00  0.00     0.091 A 
ATOM      7  C9  MOL d         -22.479   1.720 -26.910  0.00  0.00    -0.080 A 
ATOM      8  C10 MOL d         -22.015   1.233 -25.689  0.00  0.00    -0.070 A 
ATOM      9  C8  MOL d         -22.249   0.998 -28.081  0.00  0.00    -0.057 A 
ATOM     10  C7  MOL d         -21.548  -0.209 -28.040  0.00  0.00     0.036 A 
ATOM     11  H1  MOL d         -19.756  -2.098 -23.445  0.00  0.00     0.086 H 
ATOM     12  H2  MOL d         -19.343  -3.347 -25.539  0.00  0.00     0.083 H 
ATOM     13  H3  MOL d         -20.194  -2.461 -27.689  0.00  0.00     0.084 H 
ATOM     14  H4  MOL d         -23.019   2.660 -26.949  0.00  0.00     0.083 H 
ATOM     15  H5  MOL d         -22.201   1.796 -24.782  0.00  0.00     0.084 H 
ATOM     16  H6  MOL d         -22.615   1.377 -29.029  0.00  0.00     0.086 H 
ENDROOT
BRANCH   6  17
ATOM     17  S11 MOL d         -21.036   0.261 -22.977  0.00  0.00     0.138 S 
ATOM     18  O14 MOL d         -22.425   0.773 -22.921  0.00  0.00    -0.591 OA
ATOM     19  O12 MOL d         -20.044   1.364 -22.867  0.00  0.00    -0.591 OA
ATOM     20  O13 MOL d         -20.829  -0.644 -21.816  0.00  0.00    -0.591 OA
ENDBRANCH   6  17
BRANCH  10  21
ATOM     21  N15 MOL d         -21.345  -0.885 -29.209  0.00  0.00    -0.398 N 
ATOM     22  H7  MOL d         -20.988  -0.386 -30.037  0.00  0.00     0.156 HD
ATOM     23  H8  MOL d         -21.551  -1.892 -29.264  0.00  0.00     0.156 HD
ENDBRANCH  10  21
TORSDOF 2
ENDMDL
MODEL 6
REMARK VINA RESULT:      -6.6      1.473      1.877
REMARK  2 active torsions:
REMARK  status: ('A' for Active; 'I' for Inactive)
REMARK    1  A    between atoms: C6_6  and  S11_10 
REMARK    2  A    between atoms: C7_14  and  N15_15 
ROOT
ATOM      1  C1  MOL d         -22.634   1.196 -23.929  0.00  0.00    -0.059 A 
ATOM      2  C2  MOL d         -22.940   2.042 -24.995  0.00  0.00    -0.081 A 
ATOM      3  C3  MOL d         -22.511   1.710 -26.278  0.00  0.00    -0.070 A 
ATOM      4  C4  MOL d         -21.782   0.533 -26.504  0.00  0.00     0.002 A 
ATOM      5  C5  MOL d         -21.474  -0.325 -25.426  0.00  0.00     0.001 A 
ATOM      6  C6  MOL d         -21.911   0.010 -24.127  0.00  0.00     0.091 A 
ATOM      7  C9  MOL d         -20.331  -1.814 -26.974  0.00  0.00    -0.080 A 
ATOM      8  C10 MOL d         -20.745  -1.497 -25.681  0.00  0.00    -0.070 A 
ATOM      9  C8  MOL d         -20.635  -0.958 -28.032  0.00  0.00    -0.057 A 
ATOM     10  C7  MOL d         -21.359   0.215 -27.806  0.00  0.00     0.036 A 
ATOM     11  H1  MOL d         -22.962   1.460 -22.930  0.00  0.00     0.086 H 
ATOM     12  H2  MOL d         -23.506   2.950 -24.827  0.00  0.00     0.083 H 
ATOM     13  H3  MOL d         -22.743   2.366 -27.109  0.00  0.00     0.084 H 
ATOM     14  H4  MOL d         -19.773  -2.726 -27.157  0.00  0.00     0.083 H 
ATOM     15  H5  MOL d         -20.502  -2.165 -24.862  0.00  0.00     0.084 H 
ATOM     16  H6  MOL d         -20.308  -1.203 -29.036  0.00  0.00     0.086 H 
ENDROOT
BRANCH   6  17
ATOM     17  S11 MOL d         -21.609  -0.903 -22.825  0.00  0.00     0.138 S 
ATOM     18  O14 MOL d         -22.886  -1.150 -22.117  0.00  0.00    -0.591 OA
ATOM     19  O12 MOL d         -20.637  -0.183 -21.959  0.00  0.00    -0.591 OA
ATOM     20  O13 MOL d         -21.010  -2.217 -23.173  0.00  0.00    -0.591 OA
ENDBRANCH   6  17
BRANCH  10  21
ATOM     21  N15 MOL d         -21.634   1.026 -28.869  0.00  0.00    -0.398 N 
ATOM     22  H7  MOL d         -21.029   1.835 -29.070  0.00  0.00     0.156 HD
ATOM     23  H8  MOL d         -22.447   0.830 -29.470  0.00  0.00     0.156 HD
ENDBRANCH  10  21
TORSDOF 2
ENDMDL
MODEL 7
REMARK VINA RESULT:      -5.3      1.019      1.080
REMARK  2 active torsions:
REMARK  status: ('A' for Active; 'I' for Inactive)
REMARK    1  A    between atoms: C6_6  and  S11_10 
REMARK    2  A    between atoms: C7_14  and  N15_15 
ROOT
ATOM      1  C1  MOL d         -22.244   2.269 -25.402  0.00  0.00    -0.059 A 
ATOM      2  C2  MOL d         -22.693   2.310 -26.722  0.00  0.00    -0.081 A 
ATOM      3  C3  MOL d         -22.323   1.299 -27.605  0.00  0.00    -0.070 A 
ATOM      4  C4  MOL d         -21.508   0.241 -27.175  0.00  0.00     0.002 A 
ATOM      5  C5  MOL d         -21.053   0.198 -25.839  0.00  0.00     0.001 A 
ATOM      6  C6  MOL d         -21.432   1.221 -24.944  0.00  0.00     0.091 A 
ATOM      7  C9  MOL d         -19.886  -1.879 -26.334  0.00  0.00    -0.080 A 
ATOM      8  C10 MOL d         -20.240  -0.874 -25.436  0.00  0.00    -0.070 A 
ATOM      9  C8  MOL d         -20.335  -1.825 -27.654  0.00  0.00    -0.057 A 
ATOM     10  C7  MOL d         -21.145  -0.770 -28.081  0.00  0.00     0.036 A 
ATOM     11  H1  MOL d         -22.527   3.061 -24.719  0.00  0.00     0.086 H 
ATOM     12  H2  MOL d         -23.326   3.123 -27.058  0.00  0.00     0.083 H 
ATOM     13  H3  MOL d         -22.667   1.330 -28.632  0.00  0.00     0.084 H 
ATOM     14  H4  MOL d         -19.262  -2.704 -26.007  0.00  0.00     0.083 H 
ATOM     15  H5  MOL d         -19.884  -0.920 -24.413  0.00  0.00     0.084 H 
ATOM     16  H6  MOL d         -20.054  -2.605 -28.352  0.00  0.00     0.086 H 
ENDROOT
BRANCH   6  17
ATOM     17  S11 MOL d         -20.963   1.265 -23.396  0.00  0.00     0.138 S 
ATOM     18  O14 MOL d         -22.100   0.838 -22.548  0.00  0.00    -0.591 OA
ATOM     19  O12 MOL d         -20.533   2.651 -23.072  0.00  0.00    -0.591 OA
ATOM     20  O13 MOL d         -19.814   0.364 -23.119  0.00  0.00    -0.591 OA
ENDBRANCH   6  17
BRANCH  10  21
ATOM     21  N15 MOL d         -21.561  -0.753 -29.381  0.00  0.00    -0.398 N 
ATOM     22  H7  MOL d         -21.932   0.115 -29.792  0.00  0.00     0.156 HD
ATOM     23  H8  MOL d         -21.504  -1.609 -29.950  0.00  0.00     0.156 HD
ENDBRANCH  10  21
TORSDOF 2
ENDMDL
