MODEL 1
REMARK VINA RESULT:      -7.5      0.000      0.000
REMARK  4 active torsions:
REMARK  status: ('A' for Active; 'I' for Inactive)
REMARK    1  A    between atoms: OH_1  and  CZ3_2 
REMARK    2  A    between atoms: CG_8  and  CB_11 
REMARK    3  A    between atoms: CB_11  and  CA_12 
REMARK    4  A    between atoms: CA_12  and  NZ_13 
ROOT
ATOM      1  CZ3 SRO d          13.343   9.966   9.812  0.00  0.00     0.066 A 
ATOM      2  CH2 SRO d          14.363  10.399   8.949  0.00  0.00    -0.049 A 
ATOM      3  CZ2 SRO d          14.381  10.008   7.610  0.00  0.00    -0.054 A 
ATOM      4  CE2 SRO d          13.352   9.178   7.105  0.00  0.00     0.043 A 
ATOM      5  NE1 SRO d          13.128   8.645   5.845  0.00  0.00    -0.365 N 
ATOM      6  CD1 SRO d          12.001   7.903   5.872  0.00  0.00    -0.015 A 
ATOM      7  CG  SRO d          11.491   7.945   7.169  0.00  0.00    -0.029 A 
ATOM      8  CD2 SRO d          12.355   8.750   7.948  0.00  0.00     0.001 A 
ATOM      9  CE3 SRO d          12.341   9.137   9.309  0.00  0.00    -0.038 A 
ATOM     10  H2  SRO d          15.147  11.044   9.329  0.00  0.00     0.087 H 
ATOM     11  H3  SRO d          15.180  10.340   6.958  0.00  0.00     0.087 H 
ATOM     12  H4  SRO d          13.726   8.793   5.020  0.00  0.00     0.165 HD
ATOM     13  H5  SRO d          11.567   7.366   5.030  0.00  0.00     0.112 H 
ATOM     14  H6  SRO d          11.549   8.789   9.962  0.00  0.00     0.089 H 
ENDROOT
BRANCH   7  15
ATOM     15  CB  SRO d          10.262   7.280   7.687  0.00  0.00    -0.017 C 
ATOM     16  H7  SRO d           9.403   7.724   7.162  0.00  0.00     0.042 H 
ATOM     17  H8  SRO d          10.193   7.508   8.760  0.00  0.00     0.042 H 
BRANCH  15  18
ATOM     18  CA  SRO d          10.157   5.806   7.541  0.00  0.00     0.083 C 
ATOM     19  H9  SRO d           9.659   5.602   6.582  0.00  0.00     0.075 H 
ATOM     20  H10 SRO d           9.531   5.435   8.366  0.00  0.00     0.075 H 
BRANCH  18  21
ATOM     21  NZ  SRO d          11.381   5.066   7.559  0.00  0.00    -0.079 N 
ATOM     22  H11 SRO d          12.119   5.645   7.927  0.00  0.00     0.274 HD
ATOM     23  H12 SRO d          11.614   4.780   6.622  0.00  0.00     0.274 HD
ATOM     24  H13 SRO d          11.271   4.250   8.142  0.00  0.00     0.274 HD
ENDBRANCH  18  21
ENDBRANCH  15  18
ENDBRANCH   7  15
BRANCH   1  25
ATOM     25  OH  SRO d          13.321  10.340  11.148  0.00  0.00    -0.361 OA
ATOM     26  H1  SRO d          12.870   9.676  11.655  0.00  0.00     0.217 HD
ENDBRANCH   1  25
TORSDOF 4
ENDMDL
MODEL 2
REMARK VINA RESULT:      -6.3      2.131      2.656
REMARK  4 active torsions:
REMARK  status: ('A' for Active; 'I' for Inactive)
REMARK    1  A    between atoms: OH_1  and  CZ3_2 
REMARK    2  A    between atoms: CG_8  and  CB_11 
REMARK    3  A    between atoms: CB_11  and  CA_12 
REMARK    4  A    between atoms: CA_12  and  NZ_13 
ROOT
ATOM      1  CZ3 SRO d          14.406   9.776   6.625  0.00  0.00     0.066 A 
ATOM      2  CH2 SRO d          14.592  10.304   7.913  0.00  0.00    -0.049 A 
ATOM      3  CZ2 SRO d          13.702  10.003   8.944  0.00  0.00    -0.054 A 
ATOM      4  CE2 SRO d          12.604   9.145   8.699  0.00  0.00     0.043 A 
ATOM      5  NE1 SRO d          11.583   8.690   9.520  0.00  0.00    -0.365 N 
ATOM      6  CD1 SRO d          10.765   7.887   8.807  0.00  0.00    -0.015 A 
ATOM      7  CG  SRO d          11.255   7.827   7.503  0.00  0.00    -0.029 A 
ATOM      8  CD2 SRO d          12.417   8.630   7.439  0.00  0.00     0.001 A 
ATOM      9  CE3 SRO d          13.314   8.942   6.389  0.00  0.00    -0.038 A 
ATOM     10  H2  SRO d          15.438  10.952   8.109  0.00  0.00     0.087 H 
ATOM     11  H3  SRO d          13.851  10.426   9.931  0.00  0.00     0.087 H 
ATOM     12  H4  SRO d          11.468   8.928  10.516  0.00  0.00     0.165 HD
ATOM     13  H5  SRO d           9.880   7.377   9.183  0.00  0.00     0.112 H 
ATOM     14  H6  SRO d          13.152   8.531   5.399  0.00  0.00     0.089 H 
ENDROOT
BRANCH   7  15
ATOM     15  CB  SRO d          10.690   7.066   6.352  0.00  0.00    -0.017 C 
ATOM     16  H7  SRO d          11.428   7.109   5.538  0.00  0.00     0.042 H 
ATOM     17  H8  SRO d           9.769   7.580   6.040  0.00  0.00     0.042 H 
BRANCH  15  18
ATOM     18  CA  SRO d          10.349   5.637   6.566  0.00  0.00     0.083 C 
ATOM     19  H9  SRO d          10.483   5.117   5.607  0.00  0.00     0.075 H 
ATOM     20  H10 SRO d           9.291   5.589   6.864  0.00  0.00     0.075 H 
BRANCH  18  21
ATOM     21  NZ  SRO d          11.108   4.931   7.551  0.00  0.00    -0.079 N 
ATOM     22  H11 SRO d          10.763   3.987   7.630  0.00  0.00     0.274 HD
ATOM     23  H12 SRO d          11.019   5.396   8.441  0.00  0.00     0.274 HD
ATOM     24  H13 SRO d          12.079   4.912   7.278  0.00  0.00     0.274 HD
ENDBRANCH  18  21
ENDBRANCH  15  18
ENDBRANCH   7  15
BRANCH   1  25
ATOM     25  OH  SRO d          15.280  10.076   5.590  0.00  0.00    -0.361 OA
ATOM     26  H1  SRO d          15.768  10.861   5.807  0.00  0.00     0.217 HD
ENDBRANCH   1  25
TORSDOF 4
ENDMDL
MODEL 3
REMARK VINA RESULT:      -6.2      2.402      4.505
REMARK  4 active torsions:
REMARK  status: ('A' for Active; 'I' for Inactive)
REMARK    1  A    between atoms: OH_1  and  CZ3_2 
REMARK    2  A    between atoms: CG_8  and  CB_11 
REMARK    3  A    between atoms: CB_11  and  CA_12 
REMARK    4  A    between atoms: CA_12  and  NZ_13 
ROOT
ATOM      1  CZ3 SRO d          10.335   6.824   7.751  0.00  0.00     0.066 A 
ATOM      2  CH2 SRO d          10.676   6.479   6.433  0.00  0.00    -0.049 A 
ATOM      3  CZ2 SRO d          11.725   7.123   5.775  0.00  0.00    -0.054 A 
ATOM      4  CE2 SRO d          12.466   8.125   6.443  0.00  0.00     0.043 A 
ATOM      5  NE1 SRO d          13.531   8.914   6.037  0.00  0.00    -0.365 N 
ATOM      6  CD1 SRO d          13.885   9.736   7.049  0.00  0.00    -0.015 A 
ATOM      7  CG  SRO d          13.032   9.485   8.123  0.00  0.00    -0.029 A 
ATOM      8  CD2 SRO d          12.131   8.468   7.731  0.00  0.00     0.001 A 
ATOM      9  CE3 SRO d          11.061   7.822   8.397  0.00  0.00    -0.038 A 
ATOM     10  H2  SRO d          10.119   5.703   5.921  0.00  0.00     0.087 H 
ATOM     11  H3  SRO d          11.971   6.855   4.754  0.00  0.00     0.087 H 
ATOM     12  H4  SRO d          13.981   8.878   5.112  0.00  0.00     0.165 HD
ATOM     13  H5  SRO d          14.693  10.465   7.029  0.00  0.00     0.112 H 
ATOM     14  H6  SRO d          10.807   8.105   9.412  0.00  0.00     0.089 H 
ENDROOT
BRANCH   7  15
ATOM     15  CB  SRO d          13.033  10.143   9.460  0.00  0.00    -0.017 C 
ATOM     16  H7  SRO d          13.380   9.399  10.191  0.00  0.00     0.042 H 
ATOM     17  H8  SRO d          11.994  10.424   9.687  0.00  0.00     0.042 H 
BRANCH  15  18
ATOM     18  CA  SRO d          13.867  11.358   9.635  0.00  0.00     0.083 C 
ATOM     19  H9  SRO d          13.610  11.801  10.607  0.00  0.00     0.075 H 
ATOM     20  H10 SRO d          13.605  12.061   8.830  0.00  0.00     0.075 H 
BRANCH  18  21
ATOM     21  NZ  SRO d          15.286  11.178   9.605  0.00  0.00    -0.079 N 
ATOM     22  H11 SRO d          15.502  10.266   9.232  0.00  0.00     0.274 HD
ATOM     23  H12 SRO d          15.655  11.253  10.540  0.00  0.00     0.274 HD
ATOM     24  H13 SRO d          15.703  11.887   9.021  0.00  0.00     0.274 HD
ENDBRANCH  18  21
ENDBRANCH  15  18
ENDBRANCH   7  15
BRANCH   1  25
ATOM     25  OH  SRO d           9.287   6.197   8.411  0.00  0.00    -0.361 OA
ATOM     26  H1  SRO d           9.616   5.777   9.198  0.00  0.00     0.217 HD
ENDBRANCH   1  25
TORSDOF 4
ENDMDL
MODEL 4
REMARK VINA RESULT:      -5.0      2.701      4.918
REMARK  4 active torsions:
REMARK  status: ('A' for Active; 'I' for Inactive)
REMARK    1  A    between atoms: OH_1  and  CZ3_2 
REMARK    2  A    between atoms: CG_8  and  CB_11 
REMARK    3  A    between atoms: CB_11  and  CA_12 
REMARK    4  A    between atoms: CA_12  and  NZ_13 
ROOT
ATOM      1  CZ3 SRO d          11.535   7.383   5.845  0.00  0.00     0.066 A 
ATOM      2  CH2 SRO d          10.636   6.898   6.808  0.00  0.00    -0.049 A 
ATOM      3  CZ2 SRO d          10.710   7.325   8.134  0.00  0.00    -0.054 A 
ATOM      4  CE2 SRO d          11.692   8.269   8.516  0.00  0.00     0.043 A 
ATOM      5  NE1 SRO d          11.989   8.852   9.738  0.00  0.00    -0.365 N 
ATOM      6  CD1 SRO d          13.032   9.694   9.585  0.00  0.00    -0.015 A 
ATOM      7  CG  SRO d          13.425   9.652   8.249  0.00  0.00    -0.029 A 
ATOM      8  CD2 SRO d          12.576   8.743   7.576  0.00  0.00     0.001 A 
ATOM      9  CE3 SRO d          12.508   8.303   6.232  0.00  0.00    -0.038 A 
ATOM     10  H2  SRO d           9.874   6.183   6.517  0.00  0.00     0.087 H 
ATOM     11  H3  SRO d          10.017   6.934   8.870  0.00  0.00     0.087 H 
ATOM     12  H4  SRO d          11.492   8.670  10.622  0.00  0.00     0.165 HD
ATOM     13  H5  SRO d          13.487  10.300  10.368  0.00  0.00     0.112 H 
ATOM     14  H6  SRO d          13.214   8.684   5.503  0.00  0.00     0.089 H 
ENDROOT
BRANCH   7  15
ATOM     15  CB  SRO d          14.532  10.410   7.599  0.00  0.00    -0.017 C 
ATOM     16  H7  SRO d          15.409  10.338   8.259  0.00  0.00     0.042 H 
ATOM     17  H8  SRO d          14.212  11.460   7.527  0.00  0.00     0.042 H 
BRANCH  15  18
ATOM     18  CA  SRO d          14.962   9.986   6.244  0.00  0.00     0.083 C 
ATOM     19  H9  SRO d          14.505   9.006   6.042  0.00  0.00     0.075 H 
ATOM     20  H10 SRO d          16.057   9.884   6.259  0.00  0.00     0.075 H 
BRANCH  18  21
ATOM     21  NZ  SRO d          14.623  10.852   5.157  0.00  0.00    -0.079 N 
ATOM     22  H11 SRO d          13.788  11.368   5.386  0.00  0.00     0.274 HD
ATOM     23  H12 SRO d          14.462  10.304   4.327  0.00  0.00     0.274 HD
ATOM     24  H13 SRO d          15.381  11.497   4.992  0.00  0.00     0.274 HD
ENDBRANCH  18  21
ENDBRANCH  15  18
ENDBRANCH   7  15
BRANCH   1  25
ATOM     25  OH  SRO d          11.477   6.958   4.524  0.00  0.00    -0.361 OA
ATOM     26  H1  SRO d          11.555   6.012   4.494  0.00  0.00     0.217 HD
ENDBRANCH   1  25
TORSDOF 4
ENDMDL
