REMARK  8 active torsions:
REMARK  status: ('A' for Active; 'I' for Inactive)
REMARK    1  A    between atoms: N1_1  and  C2_2 
REMARK    2  A    between atoms: C2_2  and  C3_3 
REMARK    3  A    between atoms: C6_6  and  N7_7 
REMARK       I    between atoms: N7_7  and  C8_8 
REMARK    4  A    between atoms: C8_8  and  C10_10 
REMARK    5  A    between atoms: C12_12  and  N13_13 
REMARK    6  A    between atoms: N13_13  and  C14_14 
REMARK    7  A    between atoms: C22_22  and  C27_27 
REMARK    8  A    between atoms: C27_27  and  N28_28 
ROOT
ATOM      1  C10 UI1 d          23.418  15.911  33.026  0.00  0.00     0.035 A 
ATOM      2  C11 UI1 d          23.763  16.969  33.898  0.00  0.00    -0.041 A 
ATOM      3  C12 UI1 d          22.818  17.896  34.274  0.00  0.00     0.061 A 
ATOM      4  C20 UI1 d          21.473  17.783  33.783  0.00  0.00     0.002 A 
ATOM      5  C21 UI1 d          20.515  18.755  34.160  0.00  0.00    -0.057 A 
ATOM      6  C22 UI1 d          19.186  18.662  33.693  0.00  0.00     0.008 A 
ATOM      7  C23 UI1 d          18.801  17.598  32.854  0.00  0.00    -0.069 A 
ATOM      8  C24 UI1 d          19.756  16.625  32.469  0.00  0.00    -0.071 A 
ATOM      9  C25 UI1 d          21.101  16.722  32.931  0.00  0.00    -0.023 A 
ATOM     10  C26 UI1 d          22.077  15.777  32.541  0.00  0.00    -0.057 A 
ATOM     11  H9  UI1 d          24.777  17.050  34.272  0.00  0.00     0.088 H 
ATOM     12  H14 UI1 d          20.803  19.574  34.810  0.00  0.00     0.086 H 
ATOM     13  H15 UI1 d          17.778  17.524  32.504  0.00  0.00     0.085 H 
ATOM     14  H16 UI1 d          19.463  15.806  31.822  0.00  0.00     0.084 H 
ATOM     15  H17 UI1 d          21.813  14.959  31.881  0.00  0.00     0.086 H 
ENDROOT
BRANCH   1  16
ATOM     16  C8  UI1 d          24.516  14.993  32.592  0.00  0.00     0.256 C 
ATOM     17  N7  UI1 d          24.244  14.073  31.686  0.00  0.00    -0.323 N 
ATOM     18  H8  UI1 d          23.297  13.938  31.393  0.00  0.00     0.169 HD
ATOM     19  O9  UI1 d          25.653  15.150  33.021  0.00  0.00    -0.267 OA
BRANCH  17  20
ATOM     20  C6  UI1 d          25.285  13.259  31.111  0.00  0.00     0.035 A 
ATOM     21  C5  UI1 d          25.602  13.606  29.761  0.00  0.00    -0.057 A 
ATOM     22  C4  UI1 d          26.579  12.906  29.038  0.00  0.00    -0.073 A 
ATOM     23  H7  UI1 d          25.077  14.427  29.286  0.00  0.00     0.086 H 
ATOM     24  C3  UI1 d          27.263  11.844  29.651  0.00  0.00    -0.033 A 
ATOM     25  H6  UI1 d          26.804  13.183  28.014  0.00  0.00     0.084 H 
ATOM     26  C31 UI1 d          26.959  11.488  30.991  0.00  0.00    -0.073 A 
ATOM     27  C30 UI1 d          25.958  12.198  31.728  0.00  0.00    -0.057 A 
ATOM     28  H23 UI1 d          27.491  10.669  31.462  0.00  0.00     0.084 H 
ATOM     29  H22 UI1 d          25.725  11.918  32.749  0.00  0.00     0.086 H 
BRANCH  24  30
ATOM     30  C2  UI1 d          28.330  11.073  28.859  0.00  0.00     0.103 C 
ATOM     31  H4  UI1 d          28.562  10.137  29.388  0.00  0.00     0.082 H 
ATOM     32  H5  UI1 d          27.935  10.841  27.859  0.00  0.00     0.082 H 
BRANCH  30  33
ATOM     33  N1  UI1 d          29.552  11.853  28.717  0.00  0.00    -0.075 N 
ATOM     34  H1  UI1 d          30.231  11.322  28.194  0.00  0.00     0.274 HD
ATOM     35  H2  UI1 d          29.923  12.066  29.630  0.00  0.00     0.274 HD
ATOM     36  H3  UI1 d          29.348  12.711  28.228  0.00  0.00     0.274 HD
ENDBRANCH  30  33
ENDBRANCH  24  30
ENDBRANCH  17  20
ENDBRANCH   1  16
BRANCH   3  37
ATOM     37  N13 UI1 d          23.218  18.997  35.111  0.00  0.00    -0.187 N 
ATOM     38  H10 UI1 d          23.135  19.951  34.733  0.00  0.00     0.184 HD
BRANCH  37  39
ATOM     39  C14 UI1 d          23.720  18.839  36.429  0.00  0.00     0.726 A 
ATOM     40  N15 UI1 d          24.154  19.942  37.085  0.00  0.00    -0.075 NA
ATOM     41  C16 UI1 d          24.625  19.855  38.349  0.00  0.00     0.022 A 
ATOM     42  C17 UI1 d          24.658  18.602  38.998  0.00  0.00    -0.048 A 
ATOM     43  H11 UI1 d          24.976  20.743  38.862  0.00  0.00     0.115 H 
ATOM     44  C18 UI1 d          24.206  17.480  38.288  0.00  0.00     0.022 A 
ATOM     45  H12 UI1 d          25.022  18.510  40.015  0.00  0.00     0.087 H 
ATOM     46  N19 UI1 d          23.747  17.625  37.022  0.00  0.00    -0.075 NA
ATOM     47  H13 UI1 d          24.224  16.500  38.751  0.00  0.00     0.115 H 
ENDBRANCH  37  39
ENDBRANCH   3  37
BRANCH   6  48
ATOM     48  C27 UI1 d          18.238  19.715  34.126  0.00  0.00     0.102 C 
ATOM     49  N29 UI1 d          16.965  19.677  33.756  0.00  0.00    -0.385 N 
ATOM     50  H20 UI1 d          16.624  18.908  33.161  0.00  0.00     0.157 HD
ATOM     51  H21 UI1 d          16.317  20.416  34.064  0.00  0.00     0.157 HD
BRANCH  48  52
ATOM     52  N28 UI1 d          18.656  20.693  34.879  0.00  0.00    -0.385 N 
ATOM     53  H18 UI1 d          18.000  21.427  35.182  0.00  0.00     0.157 HD
ATOM     54  H19 UI1 d          19.643  20.732  35.171  0.00  0.00     0.157 HD
ENDBRANCH  48  52
ENDBRANCH   6  48
TORSDOF 8
