MODEL 1
REMARK VINA RESULT:      -8.8      0.000      0.000
REMARK  8 active torsions:
REMARK  status: ('A' for Active; 'I' for Inactive)
REMARK    1  A    between atoms: N1_1  and  C2_2 
REMARK    2  A    between atoms: C2_2  and  C3_3 
REMARK    3  A    between atoms: C6_6  and  N7_7 
REMARK       I    between atoms: N7_7  and  C8_8 
REMARK    4  A    between atoms: C8_8  and  C10_10 
REMARK    5  A    between atoms: C12_12  and  N13_13 
REMARK    6  A    between atoms: N13_13  and  C14_14 
REMARK    7  A    between atoms: C22_22  and  C27_27 
REMARK    8  A    between atoms: C27_27  and  N28_28 
ROOT
ATOM      1  C10 UI1 d          23.411  15.893  33.037  0.00  0.00     0.035 A 
ATOM      2  C11 UI1 d          23.801  17.063  33.728  0.00  0.00    -0.041 A 
ATOM      3  C12 UI1 d          22.874  18.034  34.029  0.00  0.00     0.061 A 
ATOM      4  C20 UI1 d          21.501  17.853  33.646  0.00  0.00     0.002 A 
ATOM      5  C21 UI1 d          20.561  18.869  33.942  0.00  0.00    -0.057 A 
ATOM      6  C22 UI1 d          19.206  18.711  33.579  0.00  0.00     0.008 A 
ATOM      7  C23 UI1 d          18.778  17.540  32.924  0.00  0.00    -0.069 A 
ATOM      8  C24 UI1 d          19.715  16.522  32.620  0.00  0.00    -0.071 A 
ATOM      9  C25 UI1 d          21.085  16.683  32.977  0.00  0.00    -0.023 A 
ATOM     10  C26 UI1 d          22.043  15.692  32.662  0.00  0.00    -0.057 A 
ATOM     11  H9  UI1 d          24.836  17.196  34.021  0.00  0.00     0.088 H 
ATOM     12  H14 UI1 d          20.882  19.771  34.451  0.00  0.00     0.086 H 
ATOM     13  H15 UI1 d          17.735  17.417  32.654  0.00  0.00     0.085 H 
ATOM     14  H16 UI1 d          19.389  15.620  32.115  0.00  0.00     0.084 H 
ATOM     15  H17 UI1 d          21.745  14.789  32.142  0.00  0.00     0.086 H 
ENDROOT
BRANCH   1  16
ATOM     16  C8  UI1 d          24.487  14.922  32.668  0.00  0.00     0.256 C 
ATOM     17  N7  UI1 d          24.251  14.064  31.694  0.00  0.00    -0.323 N 
ATOM     18  H8  UI1 d          23.332  14.006  31.302  0.00  0.00     0.169 HD
ATOM     19  O9  UI1 d          25.582  14.983  33.214  0.00  0.00    -0.267 OA
BRANCH  17  20
ATOM     20  C6  UI1 d          25.292  13.207  31.184  0.00  0.00     0.035 A 
ATOM     21  C5  UI1 d          25.941  13.727  30.021  0.00  0.00    -0.057 A 
ATOM     22  C4  UI1 d          26.967  13.017  29.379  0.00  0.00    -0.073 A 
ATOM     23  H7  UI1 d          25.636  14.690  29.627  0.00  0.00     0.086 H 
ATOM     24  C3  UI1 d          27.367  11.771  29.888  0.00  0.00    -0.033 A 
ATOM     25  H6  UI1 d          27.446  13.427  28.497  0.00  0.00     0.084 H 
ATOM     26  C31 UI1 d          26.731  11.242  31.042  0.00  0.00    -0.073 A 
ATOM     27  C30 UI1 d          25.681  11.963  31.694  0.00  0.00    -0.057 A 
ATOM     28  H23 UI1 d          27.044  10.281  31.434  0.00  0.00     0.084 H 
ATOM     29  H22 UI1 d          25.194  11.552  32.571  0.00  0.00     0.086 H 
BRANCH  24  30
ATOM     30  C2  UI1 d          28.486  10.989  29.184  0.00  0.00     0.103 C 
ATOM     31  H4  UI1 d          29.297  11.684  28.919  0.00  0.00     0.082 H 
ATOM     32  H5  UI1 d          28.872  10.220  29.870  0.00  0.00     0.082 H 
BRANCH  30  33
ATOM     33  N1  UI1 d          28.001  10.343  27.972  0.00  0.00    -0.075 N 
ATOM     34  H1  UI1 d          27.016  10.150  28.066  0.00  0.00     0.274 HD
ATOM     35  H2  UI1 d          28.500   9.479  27.828  0.00  0.00     0.274 HD
ATOM     36  H3  UI1 d          28.149  10.954  27.183  0.00  0.00     0.274 HD
ENDBRANCH  30  33
ENDBRANCH  24  30
ENDBRANCH  17  20
ENDBRANCH   1  16
BRANCH   3  37
ATOM     37  N13 UI1 d          23.316  19.242  34.675  0.00  0.00    -0.187 N 
ATOM     38  H10 UI1 d          23.066  20.143  34.246  0.00  0.00     0.184 HD
BRANCH  37  39
ATOM     39  C14 UI1 d          24.077  19.258  35.873  0.00  0.00     0.726 A 
ATOM     40  N15 UI1 d          24.910  20.304  36.088  0.00  0.00    -0.075 NA
ATOM     41  C16 UI1 d          25.646  20.382  37.220  0.00  0.00     0.022 A 
ATOM     42  C17 UI1 d          25.540  19.366  38.194  0.00  0.00    -0.048 A 
ATOM     43  H11 UI1 d          26.315  21.220  37.378  0.00  0.00     0.115 H 
ATOM     44  C18 UI1 d          24.672  18.295  37.937  0.00  0.00     0.022 A 
ATOM     45  H12 UI1 d          26.112  19.413  39.113  0.00  0.00     0.087 H 
ATOM     46  N19 UI1 d          23.961  18.266  36.784  0.00  0.00    -0.075 NA
ATOM     47  H13 UI1 d          24.570  17.492  38.658  0.00  0.00     0.115 H 
ENDBRANCH  37  39
ENDBRANCH   3  37
BRANCH   6  48
ATOM     48  C27 UI1 d          18.278  19.815  33.919  0.00  0.00     0.102 C 
ATOM     49  N29 UI1 d          16.966  19.622  33.927  0.00  0.00    -0.385 N 
ATOM     50  H20 UI1 d          16.580  18.694  33.696  0.00  0.00     0.157 HD
ATOM     51  H21 UI1 d          16.332  20.398  34.165  0.00  0.00     0.157 HD
BRANCH  48  52
ATOM     52  N28 UI1 d          18.752  20.992  34.214  0.00  0.00    -0.385 N 
ATOM     53  H18 UI1 d          18.187  21.835  34.036  0.00  0.00     0.157 HD
ATOM     54  H19 UI1 d          19.693  21.080  34.624  0.00  0.00     0.157 HD
ENDBRANCH  48  52
ENDBRANCH   6  48
TORSDOF 8
ENDMDL
MODEL 2
REMARK VINA RESULT:      -7.3      2.846      9.679
REMARK  8 active torsions:
REMARK  status: ('A' for Active; 'I' for Inactive)
REMARK    1  A    between atoms: N1_1  and  C2_2 
REMARK    2  A    between atoms: C2_2  and  C3_3 
REMARK    3  A    between atoms: C6_6  and  N7_7 
REMARK       I    between atoms: N7_7  and  C8_8 
REMARK    4  A    between atoms: C8_8  and  C10_10 
REMARK    5  A    between atoms: C12_12  and  N13_13 
REMARK    6  A    between atoms: N13_13  and  C14_14 
REMARK    7  A    between atoms: C22_22  and  C27_27 
REMARK    8  A    between atoms: C27_27  and  N28_28 
ROOT
ATOM      1  C10 UI1 d          24.868  15.200  30.895  0.00  0.00     0.035 A 
ATOM      2  C11 UI1 d          24.749  13.840  31.265  0.00  0.00    -0.041 A 
ATOM      3  C12 UI1 d          25.718  12.933  30.900  0.00  0.00     0.061 A 
ATOM      4  C20 UI1 d          26.859  13.373  30.147  0.00  0.00     0.002 A 
ATOM      5  C21 UI1 d          27.839  12.426  29.760  0.00  0.00    -0.057 A 
ATOM      6  C22 UI1 d          28.971  12.836  29.022  0.00  0.00     0.008 A 
ATOM      7  C23 UI1 d          29.138  14.190  28.671  0.00  0.00    -0.069 A 
ATOM      8  C24 UI1 d          28.159  15.141  29.051  0.00  0.00    -0.071 A 
ATOM      9  C25 UI1 d          27.010  14.728  29.787  0.00  0.00    -0.023 A 
ATOM     10  C26 UI1 d          26.008  15.655  30.157  0.00  0.00    -0.057 A 
ATOM     11  H9  UI1 d          23.890  13.511  31.838  0.00  0.00     0.088 H 
ATOM     12  H14 UI1 d          27.719  11.383  30.031  0.00  0.00     0.086 H 
ATOM     13  H15 UI1 d          30.012  14.503  28.113  0.00  0.00     0.085 H 
ATOM     14  H16 UI1 d          28.284  16.183  28.781  0.00  0.00     0.084 H 
ATOM     15  H17 UI1 d          26.102  16.699  29.883  0.00  0.00     0.086 H 
ENDROOT
BRANCH   1  16
ATOM     16  C8  UI1 d          23.736  16.109  31.250  0.00  0.00     0.256 C 
ATOM     17  N7  UI1 d          22.918  15.745  32.219  0.00  0.00    -0.323 N 
ATOM     18  H8  UI1 d          23.005  14.832  32.617  0.00  0.00     0.169 HD
ATOM     19  O9  UI1 d          23.625  17.197  30.696  0.00  0.00    -0.267 OA
BRANCH  17  20
ATOM     20  C6  UI1 d          21.902  16.639  32.716  0.00  0.00     0.035 A 
ATOM     21  C5  UI1 d          20.595  16.355  32.212  0.00  0.00    -0.057 A 
ATOM     22  C4  UI1 d          19.488  17.136  32.575  0.00  0.00    -0.073 A 
ATOM     23  H7  UI1 d          20.456  15.519  31.537  0.00  0.00     0.086 H 
ATOM     24  C3  UI1 d          19.664  18.218  33.453  0.00  0.00    -0.033 A 
ATOM     25  H6  UI1 d          18.504  16.905  32.181  0.00  0.00     0.084 H 
ATOM     26  C31 UI1 d          20.956  18.512  33.961  0.00  0.00    -0.073 A 
ATOM     27  C30 UI1 d          22.088  17.719  33.587  0.00  0.00    -0.057 A 
ATOM     28  H23 UI1 d          21.087  19.347  34.640  0.00  0.00     0.084 H 
ATOM     29  H22 UI1 d          23.074  17.952  33.972  0.00  0.00     0.086 H 
BRANCH  24  30
ATOM     30  C2  UI1 d          18.453  19.077  33.848  0.00  0.00     0.103 C 
ATOM     31  H4  UI1 d          18.001  19.498  32.938  0.00  0.00     0.082 H 
ATOM     32  H5  UI1 d          17.717  18.442  34.363  0.00  0.00     0.082 H 
BRANCH  30  33
ATOM     33  N1  UI1 d          18.842  20.167  34.732  0.00  0.00    -0.075 N 
ATOM     34  H1  UI1 d          19.384  19.800  35.499  0.00  0.00     0.274 HD
ATOM     35  H2  UI1 d          18.015  20.619  35.091  0.00  0.00     0.274 HD
ATOM     36  H3  UI1 d          19.396  20.835  34.219  0.00  0.00     0.274 HD
ENDBRANCH  30  33
ENDBRANCH  24  30
ENDBRANCH  17  20
ENDBRANCH   1  16
BRANCH   3  37
ATOM     37  N13 UI1 d          25.534  11.546  31.237  0.00  0.00    -0.187 N 
ATOM     38  H10 UI1 d          25.827  10.836  30.552  0.00  0.00     0.184 HD
BRANCH  37  39
ATOM     39  C14 UI1 d          24.972  11.104  32.463  0.00  0.00     0.726 A 
ATOM     40  N15 UI1 d          25.794  10.960  33.530  0.00  0.00    -0.075 NA
ATOM     41  C16 UI1 d          25.311  10.560  34.727  0.00  0.00     0.022 A 
ATOM     42  C17 UI1 d          23.932  10.297  34.872  0.00  0.00    -0.048 A 
ATOM     43  H11 UI1 d          25.979  10.441  35.572  0.00  0.00     0.115 H 
ATOM     44  C18 UI1 d          23.110  10.451  33.746  0.00  0.00     0.022 A 
ATOM     45  H12 UI1 d          23.520   9.985  35.825  0.00  0.00     0.087 H 
ATOM     46  N19 UI1 d          23.648  10.851  32.569  0.00  0.00    -0.075 NA
ATOM     47  H13 UI1 d          22.047  10.250  33.817  0.00  0.00     0.115 H 
ENDBRANCH  37  39
ENDBRANCH   3  37
BRANCH   6  48
ATOM     48  C27 UI1 d          29.954  11.792  28.650  0.00  0.00     0.102 C 
ATOM     49  N29 UI1 d          30.376  10.907  29.542  0.00  0.00    -0.385 N 
ATOM     50  H20 UI1 d          30.020  10.939  30.509  0.00  0.00     0.157 HD
ATOM     51  H21 UI1 d          31.060  10.187  29.270  0.00  0.00     0.157 HD
BRANCH  48  52
ATOM     52  N28 UI1 d          30.412  11.739  27.431  0.00  0.00    -0.385 N 
ATOM     53  H18 UI1 d          30.844  12.572  27.006  0.00  0.00     0.157 HD
ATOM     54  H19 UI1 d          30.342  10.864  26.892  0.00  0.00     0.157 HD
ENDBRANCH  48  52
ENDBRANCH   6  48
TORSDOF 8
ENDMDL
MODEL 3
REMARK VINA RESULT:      -7.1      2.926      9.146
REMARK  8 active torsions:
REMARK  status: ('A' for Active; 'I' for Inactive)
REMARK    1  A    between atoms: N1_1  and  C2_2 
REMARK    2  A    between atoms: C2_2  and  C3_3 
REMARK    3  A    between atoms: C6_6  and  N7_7 
REMARK       I    between atoms: N7_7  and  C8_8 
REMARK    4  A    between atoms: C8_8  and  C10_10 
REMARK    5  A    between atoms: C12_12  and  N13_13 
REMARK    6  A    between atoms: N13_13  and  C14_14 
REMARK    7  A    between atoms: C22_22  and  C27_27 
REMARK    8  A    between atoms: C27_27  and  N28_28 
ROOT
ATOM      1  C10 UI1 d          23.728  14.426  32.167  0.00  0.00     0.035 A 
ATOM      2  C11 UI1 d          24.611  15.123  31.311  0.00  0.00    -0.041 A 
ATOM      3  C12 UI1 d          25.750  14.511  30.839  0.00  0.00     0.061 A 
ATOM      4  C20 UI1 d          26.038  13.154  31.214  0.00  0.00     0.002 A 
ATOM      5  C21 UI1 d          27.223  12.542  30.739  0.00  0.00    -0.057 A 
ATOM      6  C22 UI1 d          27.525  11.209  31.091  0.00  0.00     0.008 A 
ATOM      7  C23 UI1 d          26.646  10.474  31.911  0.00  0.00    -0.069 A 
ATOM      8  C24 UI1 d          25.461  11.083  32.393  0.00  0.00    -0.071 A 
ATOM      9  C25 UI1 d          25.159  12.432  32.048  0.00  0.00    -0.023 A 
ATOM     10  C26 UI1 d          23.995  13.068  32.537  0.00  0.00    -0.057 A 
ATOM     11  H9  UI1 d          24.390  16.145  31.025  0.00  0.00     0.088 H 
ATOM     12  H14 UI1 d          27.902  13.100  30.103  0.00  0.00     0.086 H 
ATOM     13  H15 UI1 d          26.876   9.448  32.172  0.00  0.00     0.085 H 
ATOM     14  H16 UI1 d          24.784  10.521  33.026  0.00  0.00     0.084 H 
ATOM     15  H17 UI1 d          23.311  12.533  33.185  0.00  0.00     0.086 H 
ENDROOT
BRANCH   1  16
ATOM     16  C8  UI1 d          22.558  15.183  32.710  0.00  0.00     0.256 C 
ATOM     17  N7  UI1 d          22.235  16.330  32.145  0.00  0.00    -0.323 N 
ATOM     18  H8  UI1 d          22.837  16.719  31.446  0.00  0.00     0.169 HD
ATOM     19  O9  UI1 d          21.880  14.702  33.610  0.00  0.00    -0.267 OA
BRANCH  17  20
ATOM     20  C6  UI1 d          21.033  17.034  32.514  0.00  0.00     0.035 A 
ATOM     21  C5  UI1 d          21.271  18.185  33.328  0.00  0.00    -0.057 A 
ATOM     22  C4  UI1 d          20.214  18.979  33.796  0.00  0.00    -0.073 A 
ATOM     23  H7  UI1 d          22.290  18.449  33.589  0.00  0.00     0.086 H 
ATOM     24  C3  UI1 d          18.894  18.640  33.457  0.00  0.00    -0.033 A 
ATOM     25  H6  UI1 d          20.415  19.847  34.414  0.00  0.00     0.084 H 
ATOM     26  C31 UI1 d          18.642  17.500  32.650  0.00  0.00    -0.073 A 
ATOM     27  C30 UI1 d          19.720  16.686  32.176  0.00  0.00    -0.057 A 
ATOM     28  H23 UI1 d          17.622  17.243  32.388  0.00  0.00     0.084 H 
ATOM     29  H22 UI1 d          19.522  15.813  31.565  0.00  0.00     0.086 H 
BRANCH  24  30
ATOM     30  C2  UI1 d          17.734  19.506  33.973  0.00  0.00     0.103 C 
ATOM     31  H4  UI1 d          16.859  19.356  33.324  0.00  0.00     0.082 H 
ATOM     32  H5  UI1 d          17.487  19.198  35.000  0.00  0.00     0.082 H 
BRANCH  30  33
ATOM     33  N1  UI1 d          18.087  20.919  33.974  0.00  0.00    -0.075 N 
ATOM     34  H1  UI1 d          17.285  21.466  34.245  0.00  0.00     0.274 HD
ATOM     35  H2  UI1 d          18.383  21.192  33.049  0.00  0.00     0.274 HD
ATOM     36  H3  UI1 d          18.838  21.078  34.628  0.00  0.00     0.274 HD
ENDBRANCH  30  33
ENDBRANCH  24  30
ENDBRANCH  17  20
ENDBRANCH   1  16
BRANCH   3  37
ATOM     37  N13 UI1 d          26.660  15.269  30.022  0.00  0.00    -0.187 N 
ATOM     38  H10 UI1 d          27.180  14.774  29.283  0.00  0.00     0.184 HD
BRANCH  37  39
ATOM     39  C14 UI1 d          26.880  16.663  30.177  0.00  0.00     0.726 A 
ATOM     40  N15 UI1 d          27.689  17.075  31.182  0.00  0.00    -0.075 NA
ATOM     41  C16 UI1 d          27.950  18.388  31.367  0.00  0.00     0.022 A 
ATOM     42  C17 UI1 d          27.379  19.343  30.499  0.00  0.00    -0.048 A 
ATOM     43  H11 UI1 d          28.594  18.707  32.179  0.00  0.00     0.115 H 
ATOM     44  C18 UI1 d          26.542  18.883  29.472  0.00  0.00     0.022 A 
ATOM     45  H12 UI1 d          27.582  20.401  30.622  0.00  0.00     0.087 H 
ATOM     46  N19 UI1 d          26.313  17.555  29.335  0.00  0.00    -0.075 NA
ATOM     47  H13 UI1 d          26.079  19.587  28.790  0.00  0.00     0.115 H 
ENDBRANCH  37  39
ENDBRANCH   3  37
BRANCH   6  48
ATOM     48  C27 UI1 d          28.783  10.634  30.560  0.00  0.00     0.102 C 
ATOM     49  N29 UI1 d          29.773  10.297  31.375  0.00  0.00    -0.385 N 
ATOM     50  H20 UI1 d          29.673  10.434  32.391  0.00  0.00     0.157 HD
ATOM     51  H21 UI1 d          30.642   9.899  30.992  0.00  0.00     0.157 HD
BRANCH  48  52
ATOM     52  N28 UI1 d          28.922  10.455  29.276  0.00  0.00    -0.385 N 
ATOM     53  H18 UI1 d          28.091  10.388  28.672  0.00  0.00     0.157 HD
ATOM     54  H19 UI1 d          29.864  10.381  28.866  0.00  0.00     0.157 HD
ENDBRANCH  48  52
ENDBRANCH   6  48
TORSDOF 8
ENDMDL
MODEL 4
REMARK VINA RESULT:      -6.8      3.194      9.021
REMARK  8 active torsions:
REMARK  status: ('A' for Active; 'I' for Inactive)
REMARK    1  A    between atoms: N1_1  and  C2_2 
REMARK    2  A    between atoms: C2_2  and  C3_3 
REMARK    3  A    between atoms: C6_6  and  N7_7 
REMARK       I    between atoms: N7_7  and  C8_8 
REMARK    4  A    between atoms: C8_8  and  C10_10 
REMARK    5  A    between atoms: C12_12  and  N13_13 
REMARK    6  A    between atoms: N13_13  and  C14_14 
REMARK    7  A    between atoms: C22_22  and  C27_27 
REMARK    8  A    between atoms: C27_27  and  N28_28 
ROOT
ATOM      1  C10 UI1 d          23.748  14.716  32.461  0.00  0.00     0.035 A 
ATOM      2  C11 UI1 d          24.955  15.276  31.984  0.00  0.00    -0.041 A 
ATOM      3  C12 UI1 d          26.141  14.593  32.124  0.00  0.00     0.061 A 
ATOM      4  C20 UI1 d          26.150  13.301  32.752  0.00  0.00     0.002 A 
ATOM      5  C21 UI1 d          27.380  12.617  32.909  0.00  0.00    -0.057 A 
ATOM      6  C22 UI1 d          27.413  11.344  33.519  0.00  0.00     0.008 A 
ATOM      7  C23 UI1 d          26.222  10.742  33.970  0.00  0.00    -0.069 A 
ATOM      8  C24 UI1 d          24.989  11.423  33.821  0.00  0.00    -0.071 A 
ATOM      9  C25 UI1 d          24.954  12.713  33.214  0.00  0.00    -0.023 A 
ATOM     10  C26 UI1 d          23.739  13.422  33.075  0.00  0.00    -0.057 A 
ATOM     11  H9  UI1 d          24.946  16.249  31.506  0.00  0.00     0.088 H 
ATOM     12  H14 UI1 d          28.300  13.072  32.559  0.00  0.00     0.086 H 
ATOM     13  H15 UI1 d          26.248   9.761  34.431  0.00  0.00     0.085 H 
ATOM     14  H16 UI1 d          24.071  10.963  34.168  0.00  0.00     0.084 H 
ATOM     15  H17 UI1 d          22.811  12.991  33.431  0.00  0.00     0.086 H 
ENDROOT
BRANCH   1  16
ATOM     16  C8  UI1 d          22.513  15.553  32.354  0.00  0.00     0.256 C 
ATOM     17  N7  UI1 d          21.802  15.767  33.444  0.00  0.00    -0.323 N 
ATOM     18  H8  UI1 d          22.039  15.283  34.287  0.00  0.00     0.169 HD
ATOM     19  O9  UI1 d          22.220  16.081  31.287  0.00  0.00    -0.267 OA
BRANCH  17  20
ATOM     20  C6  UI1 d          20.692  16.686  33.445  0.00  0.00     0.035 A 
ATOM     21  C5  UI1 d          21.011  17.969  33.989  0.00  0.00    -0.057 A 
ATOM     22  C4  UI1 d          20.046  18.982  34.085  0.00  0.00    -0.073 A 
ATOM     23  H7  UI1 d          22.021  18.163  34.334  0.00  0.00     0.086 H 
ATOM     24  C3  UI1 d          18.738  18.734  33.637  0.00  0.00    -0.033 A 
ATOM     25  H6  UI1 d          20.307  19.948  34.503  0.00  0.00     0.084 H 
ATOM     26  C31 UI1 d          18.406  17.465  33.094  0.00  0.00    -0.073 A 
ATOM     27  C30 UI1 d          19.390  16.429  33.001  0.00  0.00    -0.057 A 
ATOM     28  H23 UI1 d          17.397  17.278  32.746  0.00  0.00     0.084 H 
ATOM     29  H22 UI1 d          19.129  15.459  32.592  0.00  0.00     0.086 H 
BRANCH  24  30
ATOM     30  C2  UI1 d          17.678  19.840  33.746  0.00  0.00     0.103 C 
ATOM     31  H4  UI1 d          17.078  19.854  32.824  0.00  0.00     0.082 H 
ATOM     32  H5  UI1 d          17.026  19.627  34.605  0.00  0.00     0.082 H 
BRANCH  30  33
ATOM     33  N1  UI1 d          18.293  21.148  33.931  0.00  0.00    -0.075 N 
ATOM     34  H1  UI1 d          18.035  21.517  34.833  0.00  0.00     0.274 HD
ATOM     35  H2  UI1 d          17.974  21.775  33.208  0.00  0.00     0.274 HD
ATOM     36  H3  UI1 d          19.296  21.058  33.880  0.00  0.00     0.274 HD
ENDBRANCH  30  33
ENDBRANCH  24  30
ENDBRANCH  17  20
ENDBRANCH   1  16
BRANCH   3  37
ATOM     37  N13 UI1 d          27.361  15.219  31.686  0.00  0.00    -0.187 N 
ATOM     38  H10 UI1 d          28.239  14.689  31.773  0.00  0.00     0.184 HD
BRANCH  37  39
ATOM     39  C14 UI1 d          27.419  16.528  31.140  0.00  0.00     0.726 A 
ATOM     40  N15 UI1 d          27.156  16.683  29.820  0.00  0.00    -0.075 NA
ATOM     41  C16 UI1 d          27.178  17.908  29.249  0.00  0.00     0.022 A 
ATOM     42  C17 UI1 d          27.470  19.041  30.038  0.00  0.00    -0.048 A 
ATOM     43  H11 UI1 d          26.972  18.019  28.191  0.00  0.00     0.115 H 
ATOM     44  C18 UI1 d          27.743  18.844  31.399  0.00  0.00     0.022 A 
ATOM     45  H12 UI1 d          27.484  20.035  29.603  0.00  0.00     0.087 H 
ATOM     46  N19 UI1 d          27.710  17.594  31.918  0.00  0.00    -0.075 NA
ATOM     47  H13 UI1 d          27.980  19.690  32.034  0.00  0.00     0.115 H 
ENDBRANCH  37  39
ENDBRANCH   3  37
BRANCH   6  48
ATOM     48  C27 UI1 d          28.734  10.688  33.653  0.00  0.00     0.102 C 
ATOM     49  N29 UI1 d          29.277  10.489  34.846  0.00  0.00    -0.385 N 
ATOM     50  H20 UI1 d          28.778  10.791  35.696  0.00  0.00     0.157 HD
ATOM     51  H21 UI1 d          30.196  10.031  34.924  0.00  0.00     0.157 HD
BRANCH  48  52
ATOM     52  N28 UI1 d          29.375  10.300  32.586  0.00  0.00    -0.385 N 
ATOM     53  H18 UI1 d          30.007   9.488  32.631  0.00  0.00     0.157 HD
ATOM     54  H19 UI1 d          29.251  10.808  31.698  0.00  0.00     0.157 HD
ENDBRANCH  48  52
ENDBRANCH   6  48
TORSDOF 8
ENDMDL
MODEL 5
REMARK VINA RESULT:      -6.7      3.103      9.515
REMARK  8 active torsions:
REMARK  status: ('A' for Active; 'I' for Inactive)
REMARK    1  A    between atoms: N1_1  and  C2_2 
REMARK    2  A    between atoms: C2_2  and  C3_3 
REMARK    3  A    between atoms: C6_6  and  N7_7 
REMARK       I    between atoms: N7_7  and  C8_8 
REMARK    4  A    between atoms: C8_8  and  C10_10 
REMARK    5  A    between atoms: C12_12  and  N13_13 
REMARK    6  A    between atoms: N13_13  and  C14_14 
REMARK    7  A    between atoms: C22_22  and  C27_27 
REMARK    8  A    between atoms: C27_27  and  N28_28 
ROOT
ATOM      1  C10 UI1 d          23.989  14.738  32.029  0.00  0.00     0.035 A 
ATOM      2  C11 UI1 d          25.201  15.327  31.601  0.00  0.00    -0.041 A 
ATOM      3  C12 UI1 d          26.383  14.629  31.693  0.00  0.00     0.061 A 
ATOM      4  C20 UI1 d          26.384  13.293  32.220  0.00  0.00     0.002 A 
ATOM      5  C21 UI1 d          27.610  12.594  32.330  0.00  0.00    -0.057 A 
ATOM      6  C22 UI1 d          27.634  11.278  32.841  0.00  0.00     0.008 A 
ATOM      7  C23 UI1 d          26.439  10.649  33.240  0.00  0.00    -0.069 A 
ATOM      8  C24 UI1 d          25.209  11.345  33.138  0.00  0.00    -0.071 A 
ATOM      9  C25 UI1 d          25.183  12.678  32.631  0.00  0.00    -0.023 A 
ATOM     10  C26 UI1 d          23.972  13.401  32.542  0.00  0.00    -0.057 A 
ATOM     11  H9  UI1 d          25.198  16.333  31.198  0.00  0.00     0.088 H 
ATOM     12  H14 UI1 d          28.534  13.070  32.020  0.00  0.00     0.086 H 
ATOM     13  H15 UI1 d          26.459   9.636  33.624  0.00  0.00     0.085 H 
ATOM     14  H16 UI1 d          24.288  10.864  33.445  0.00  0.00     0.084 H 
ATOM     15  H17 UI1 d          23.040  12.949  32.860  0.00  0.00     0.086 H 
ENDROOT
BRANCH   1  16
ATOM     16  C8  UI1 d          22.758  15.587  31.980  0.00  0.00     0.256 C 
ATOM     17  N7  UI1 d          22.031  15.702  33.075  0.00  0.00    -0.323 N 
ATOM     18  H8  UI1 d          22.253  15.140  33.873  0.00  0.00     0.169 HD
ATOM     19  O9  UI1 d          22.484  16.212  30.963  0.00  0.00    -0.267 OA
BRANCH  17  20
ATOM     20  C6  UI1 d          20.923  16.621  33.144  0.00  0.00     0.035 A 
ATOM     21  C5  UI1 d          21.250  17.863  33.771  0.00  0.00    -0.057 A 
ATOM     22  C4  UI1 d          20.287  18.870  33.941  0.00  0.00    -0.073 A 
ATOM     23  H7  UI1 d          22.261  18.032  34.123  0.00  0.00     0.086 H 
ATOM     24  C3  UI1 d          18.977  18.656  33.484  0.00  0.00    -0.033 A 
ATOM     25  H6  UI1 d          20.554  19.805  34.422  0.00  0.00     0.084 H 
ATOM     26  C31 UI1 d          18.638  17.428  32.859  0.00  0.00    -0.073 A 
ATOM     27  C30 UI1 d          19.618  16.398  32.690  0.00  0.00    -0.057 A 
ATOM     28  H23 UI1 d          17.626  17.268  32.505  0.00  0.00     0.084 H 
ATOM     29  H22 UI1 d          19.353  15.459  32.218  0.00  0.00     0.086 H 
BRANCH  24  30
ATOM     30  C2  UI1 d          17.921  19.756  33.674  0.00  0.00     0.103 C 
ATOM     31  H4  UI1 d          17.465  19.986  32.699  0.00  0.00     0.082 H 
ATOM     32  H5  UI1 d          17.146  19.392  34.364  0.00  0.00     0.082 H 
BRANCH  30  33
ATOM     33  N1  UI1 d          18.511  20.970  34.220  0.00  0.00    -0.075 N 
ATOM     34  H1  UI1 d          18.381  21.729  33.570  0.00  0.00     0.274 HD
ATOM     35  H2  UI1 d          19.497  20.825  34.374  0.00  0.00     0.274 HD
ATOM     36  H3  UI1 d          18.063  21.197  35.095  0.00  0.00     0.274 HD
ENDBRANCH  30  33
ENDBRANCH  24  30
ENDBRANCH  17  20
ENDBRANCH   1  16
BRANCH   3  37
ATOM     37  N13 UI1 d          27.608  15.282  31.309  0.00  0.00    -0.187 N 
ATOM     38  H10 UI1 d          28.184  15.709  32.047  0.00  0.00     0.184 HD
BRANCH  37  39
ATOM     39  C14 UI1 d          28.064  15.368  29.968  0.00  0.00     0.726 A 
ATOM     40  N15 UI1 d          28.451  16.579  29.500  0.00  0.00    -0.075 NA
ATOM     41  C16 UI1 d          28.912  16.718  28.237  0.00  0.00     0.022 A 
ATOM     42  C17 UI1 d          29.000  15.587  27.397  0.00  0.00    -0.048 A 
ATOM     43  H11 UI1 d          29.212  17.693  27.870  0.00  0.00     0.115 H 
ATOM     44  C18 UI1 d          28.587  14.349  27.911  0.00  0.00     0.022 A 
ATOM     45  H12 UI1 d          29.377  15.673  26.383  0.00  0.00     0.087 H 
ATOM     46  N19 UI1 d          28.130  14.269  29.184  0.00  0.00    -0.075 NA
ATOM     47  H13 UI1 d          28.633  13.460  27.293  0.00  0.00     0.115 H 
ENDBRANCH  37  39
ENDBRANCH   3  37
BRANCH   6  48
ATOM     48  C27 UI1 d          28.952  10.607  32.929  0.00  0.00     0.102 C 
ATOM     49  N29 UI1 d          29.631  10.297  31.833  0.00  0.00    -0.385 N 
ATOM     50  H20 UI1 d          29.244  10.523  30.906  0.00  0.00     0.157 HD
ATOM     51  H21 UI1 d          30.547   9.830  31.909  0.00  0.00     0.157 HD
BRANCH  48  52
ATOM     52  N28 UI1 d          29.454  10.316  34.096  0.00  0.00    -0.385 N 
ATOM     53  H18 UI1 d          29.239   9.411  34.539  0.00  0.00     0.157 HD
ATOM     54  H19 UI1 d          30.066  10.991  34.576  0.00  0.00     0.157 HD
ENDBRANCH  48  52
ENDBRANCH   6  48
TORSDOF 8
ENDMDL
MODEL 6
REMARK VINA RESULT:      -6.6      3.009      9.393
REMARK  8 active torsions:
REMARK  status: ('A' for Active; 'I' for Inactive)
REMARK    1  A    between atoms: N1_1  and  C2_2 
REMARK    2  A    between atoms: C2_2  and  C3_3 
REMARK    3  A    between atoms: C6_6  and  N7_7 
REMARK       I    between atoms: N7_7  and  C8_8 
REMARK    4  A    between atoms: C8_8  and  C10_10 
REMARK    5  A    between atoms: C12_12  and  N13_13 
REMARK    6  A    between atoms: N13_13  and  C14_14 
REMARK    7  A    between atoms: C22_22  and  C27_27 
REMARK    8  A    between atoms: C27_27  and  N28_28 
ROOT
ATOM      1  C10 UI1 d          24.083  14.852  31.447  0.00  0.00     0.035 A 
ATOM      2  C11 UI1 d          24.227  13.861  32.445  0.00  0.00    -0.041 A 
ATOM      3  C12 UI1 d          25.269  12.964  32.390  0.00  0.00     0.061 A 
ATOM      4  C20 UI1 d          26.220  13.041  31.316  0.00  0.00     0.002 A 
ATOM      5  C21 UI1 d          27.276  12.100  31.258  0.00  0.00    -0.057 A 
ATOM      6  C22 UI1 d          28.225  12.159  30.214  0.00  0.00     0.008 A 
ATOM      7  C23 UI1 d          28.132  13.158  29.226  0.00  0.00    -0.069 A 
ATOM      8  C24 UI1 d          27.075  14.100  29.275  0.00  0.00    -0.071 A 
ATOM      9  C25 UI1 d          26.110  14.036  30.322  0.00  0.00    -0.023 A 
ATOM     10  C26 UI1 d          25.033  14.950  30.379  0.00  0.00    -0.057 A 
ATOM     11  H9  UI1 d          23.512  13.807  33.258  0.00  0.00     0.088 H 
ATOM     12  H14 UI1 d          27.357  11.331  32.019  0.00  0.00     0.086 H 
ATOM     13  H15 UI1 d          28.866  13.206  28.430  0.00  0.00     0.085 H 
ATOM     14  H16 UI1 d          27.000  14.869  28.515  0.00  0.00     0.084 H 
ATOM     15  H17 UI1 d          24.926  15.717  29.621  0.00  0.00     0.086 H 
ENDROOT
BRANCH   1  16
ATOM     16  C8  UI1 d          22.879  15.735  31.524  0.00  0.00     0.256 C 
ATOM     17  N7  UI1 d          22.035  15.560  32.523  0.00  0.00    -0.323 N 
ATOM     18  H8  UI1 d          22.157  14.780  33.137  0.00  0.00     0.169 HD
ATOM     19  O9  UI1 d          22.730  16.642  30.714  0.00  0.00    -0.267 OA
BRANCH  17  20
ATOM     20  C6  UI1 d          20.940  16.470  32.745  0.00  0.00     0.035 A 
ATOM     21  C5  UI1 d          21.292  17.603  33.544  0.00  0.00    -0.057 A 
ATOM     22  C4  UI1 d          20.346  18.583  33.876  0.00  0.00    -0.073 A 
ATOM     23  H7  UI1 d          22.311  17.706  33.899  0.00  0.00     0.086 H 
ATOM     24  C3  UI1 d          19.026  18.453  33.415  0.00  0.00    -0.033 A 
ATOM     25  H6  UI1 d          20.631  19.434  34.485  0.00  0.00     0.084 H 
ATOM     26  C31 UI1 d          18.662  17.334  32.622  0.00  0.00    -0.073 A 
ATOM     27  C30 UI1 d          19.625  16.330  32.286  0.00  0.00    -0.057 A 
ATOM     28  H23 UI1 d          17.642  17.239  32.265  0.00  0.00     0.084 H 
ATOM     29  H22 UI1 d          19.341  15.474  31.685  0.00  0.00     0.086 H 
BRANCH  24  30
ATOM     30  C2  UI1 d          17.987  19.524  33.783  0.00  0.00     0.103 C 
ATOM     31  H4  UI1 d          17.353  19.724  32.906  0.00  0.00     0.082 H 
ATOM     32  H5  UI1 d          17.363  19.148  34.608  0.00  0.00     0.082 H 
BRANCH  30  33
ATOM     33  N1  UI1 d          18.627  20.764  34.199  0.00  0.00    -0.075 N 
ATOM     34  H1  UI1 d          19.563  20.569  34.518  0.00  0.00     0.274 HD
ATOM     35  H2  UI1 d          18.097  21.182  34.948  0.00  0.00     0.274 HD
ATOM     36  H3  UI1 d          18.665  21.401  33.418  0.00  0.00     0.274 HD
ENDBRANCH  30  33
ENDBRANCH  24  30
ENDBRANCH  17  20
ENDBRANCH   1  16
BRANCH   3  37
ATOM     37  N13 UI1 d          25.349  11.928  33.386  0.00  0.00    -0.187 N 
ATOM     38  H10 UI1 d          24.564  11.267  33.465  0.00  0.00     0.184 HD
BRANCH  37  39
ATOM     39  C14 UI1 d          26.452  11.767  34.264  0.00  0.00     0.726 A 
ATOM     40  N15 UI1 d          26.759  10.516  34.683  0.00  0.00    -0.075 NA
ATOM     41  C16 UI1 d          27.810  10.300  35.506  0.00  0.00     0.022 A 
ATOM     42  C17 UI1 d          28.603  11.389  35.927  0.00  0.00    -0.048 A 
ATOM     43  H11 UI1 d          28.043   9.296  35.840  0.00  0.00     0.115 H 
ATOM     44  C18 UI1 d          28.254  12.671  35.479  0.00  0.00     0.022 A 
ATOM     45  H12 UI1 d          29.457  11.238  36.578  0.00  0.00     0.087 H 
ATOM     46  N19 UI1 d          27.189  12.830  34.658  0.00  0.00    -0.075 NA
ATOM     47  H13 UI1 d          28.835  13.532  35.788  0.00  0.00     0.115 H 
ENDBRANCH  37  39
ENDBRANCH   3  37
BRANCH   6  48
ATOM     48  C27 UI1 d          29.301  11.141  30.216  0.00  0.00     0.102 C 
ATOM     49  N29 UI1 d          29.907  10.790  29.089  0.00  0.00    -0.385 N 
ATOM     50  H20 UI1 d          29.631  11.228  28.198  0.00  0.00     0.157 HD
ATOM     51  H21 UI1 d          30.653  10.081  29.105  0.00  0.00     0.157 HD
BRANCH  48  52
ATOM     52  N28 UI1 d          29.660  10.579  31.336  0.00  0.00    -0.385 N 
ATOM     53  H18 UI1 d          30.539  10.044  31.385  0.00  0.00     0.157 HD
ATOM     54  H19 UI1 d          29.065  10.671  32.171  0.00  0.00     0.157 HD
ENDBRANCH  48  52
ENDBRANCH   6  48
TORSDOF 8
ENDMDL
MODEL 7
REMARK VINA RESULT:      -6.4      2.916      9.129
REMARK  8 active torsions:
REMARK  status: ('A' for Active; 'I' for Inactive)
REMARK    1  A    between atoms: N1_1  and  C2_2 
REMARK    2  A    between atoms: C2_2  and  C3_3 
REMARK    3  A    between atoms: C6_6  and  N7_7 
REMARK       I    between atoms: N7_7  and  C8_8 
REMARK    4  A    between atoms: C8_8  and  C10_10 
REMARK    5  A    between atoms: C12_12  and  N13_13 
REMARK    6  A    between atoms: N13_13  and  C14_14 
REMARK    7  A    between atoms: C22_22  and  C27_27 
REMARK    8  A    between atoms: C27_27  and  N28_28 
ROOT
ATOM      1  C10 UI1 d          24.309  14.411  31.857  0.00  0.00     0.035 A 
ATOM      2  C11 UI1 d          24.823  13.796  33.022  0.00  0.00    -0.041 A 
ATOM      3  C12 UI1 d          25.985  13.061  32.966  0.00  0.00     0.061 A 
ATOM      4  C20 UI1 d          26.683  12.925  31.718  0.00  0.00     0.002 A 
ATOM      5  C21 UI1 d          27.867  12.150  31.668  0.00  0.00    -0.057 A 
ATOM      6  C22 UI1 d          28.572  12.006  30.454  0.00  0.00     0.008 A 
ATOM      7  C23 UI1 d          28.107  12.638  29.284  0.00  0.00    -0.069 A 
ATOM      8  C24 UI1 d          26.921  13.411  29.326  0.00  0.00    -0.071 A 
ATOM      9  C25 UI1 d          26.202  13.550  30.548  0.00  0.00    -0.023 A 
ATOM     10  C26 UI1 d          25.003  14.297  30.610  0.00  0.00    -0.057 A 
ATOM     11  H9  UI1 d          24.298  13.904  33.964  0.00  0.00     0.088 H 
ATOM     12  H14 UI1 d          28.233  11.665  32.566  0.00  0.00     0.086 H 
ATOM     13  H15 UI1 d          28.655  12.533  28.354  0.00  0.00     0.085 H 
ATOM     14  H16 UI1 d          26.560  13.897  28.426  0.00  0.00     0.084 H 
ATOM     15  H17 UI1 d          24.613  14.778  29.720  0.00  0.00     0.086 H 
ENDROOT
BRANCH   1  16
ATOM     16  C8  UI1 d          22.998  15.119  31.976  0.00  0.00     0.256 C 
ATOM     17  N7  UI1 d          22.630  15.565  33.162  0.00  0.00    -0.323 N 
ATOM     18  H8  UI1 d          23.176  15.328  33.966  0.00  0.00     0.169 HD
ATOM     19  O9  UI1 d          22.325  15.337  30.975  0.00  0.00    -0.267 OA
BRANCH  17  20
ATOM     20  C6  UI1 d          21.457  16.388  33.321  0.00  0.00     0.035 A 
ATOM     21  C5  UI1 d          21.754  17.757  33.604  0.00  0.00    -0.057 A 
ATOM     22  C4  UI1 d          20.733  18.698  33.807  0.00  0.00    -0.073 A 
ATOM     23  H7  UI1 d          22.788  18.076  33.661  0.00  0.00     0.086 H 
ATOM     24  C3  UI1 d          19.392  18.288  33.730  0.00  0.00    -0.033 A 
ATOM     25  H6  UI1 d          20.978  19.732  34.022  0.00  0.00     0.084 H 
ATOM     26  C31 UI1 d          19.082  16.932  33.450  0.00  0.00    -0.073 A 
ATOM     27  C30 UI1 d          20.123  15.970  33.248  0.00  0.00    -0.057 A 
ATOM     28  H23 UI1 d          18.046  16.620  33.389  0.00  0.00     0.084 H 
ATOM     29  H22 UI1 d          19.882  14.934  33.042  0.00  0.00     0.086 H 
BRANCH  24  30
ATOM     30  C2  UI1 d          18.273  19.316  33.957  0.00  0.00     0.103 C 
ATOM     31  H4  UI1 d          17.675  19.403  33.038  0.00  0.00     0.082 H 
ATOM     32  H5  UI1 d          17.631  18.970  34.781  0.00  0.00     0.082 H 
BRANCH  30  33
ATOM     33  N1  UI1 d          18.815  20.625  34.297  0.00  0.00    -0.075 N 
ATOM     34  H1  UI1 d          19.356  20.555  35.144  0.00  0.00     0.274 HD
ATOM     35  H2  UI1 d          18.058  21.277  34.434  0.00  0.00     0.274 HD
ATOM     36  H3  UI1 d          19.406  20.948  33.546  0.00  0.00     0.274 HD
ENDBRANCH  30  33
ENDBRANCH  24  30
ENDBRANCH  17  20
ENDBRANCH   1  16
BRANCH   3  37
ATOM     37  N13 UI1 d          26.446  12.395  34.156  0.00  0.00    -0.187 N 
ATOM     38  H10 UI1 d          26.035  11.481  34.392  0.00  0.00     0.184 HD
BRANCH  37  39
ATOM     39  C14 UI1 d          27.435  12.930  35.022  0.00  0.00     0.726 A 
ATOM     40  N15 UI1 d          27.610  14.273  35.042  0.00  0.00    -0.075 NA
ATOM     41  C16 UI1 d          28.524  14.840  35.861  0.00  0.00     0.022 A 
ATOM     42  C17 UI1 d          29.301  14.025  36.711  0.00  0.00    -0.048 A 
ATOM     43  H11 UI1 d          28.660  15.915  35.864  0.00  0.00     0.115 H 
ATOM     44  C18 UI1 d          29.099  12.638  36.661  0.00  0.00     0.022 A 
ATOM     45  H12 UI1 d          30.033  14.458  37.383  0.00  0.00     0.087 H 
ATOM     46  N19 UI1 d          28.170  12.123  35.819  0.00  0.00    -0.075 NA
ATOM     47  H13 UI1 d          29.683  11.979  37.294  0.00  0.00     0.115 H 
ENDBRANCH  37  39
ENDBRANCH   3  37
BRANCH   6  48
ATOM     48  C27 UI1 d          29.800  11.178  30.475  0.00  0.00     0.102 C 
ATOM     49  N29 UI1 d          30.204  10.590  31.593  0.00  0.00    -0.385 N 
ATOM     50  H20 UI1 d          29.661  10.705  32.461  0.00  0.00     0.157 HD
ATOM     51  H21 UI1 d          31.061  10.018  31.593  0.00  0.00     0.157 HD
BRANCH  48  52
ATOM     52  N28 UI1 d          30.496  11.024  29.384  0.00  0.00    -0.385 N 
ATOM     53  H18 UI1 d          31.385  10.503  29.409  0.00  0.00     0.157 HD
ATOM     54  H19 UI1 d          30.158  11.423  28.497  0.00  0.00     0.157 HD
ENDBRANCH  48  52
ENDBRANCH   6  48
TORSDOF 8
ENDMDL
MODEL 8
REMARK VINA RESULT:      -6.1      2.937      8.587
REMARK  8 active torsions:
REMARK  status: ('A' for Active; 'I' for Inactive)
REMARK    1  A    between atoms: N1_1  and  C2_2 
REMARK    2  A    between atoms: C2_2  and  C3_3 
REMARK    3  A    between atoms: C6_6  and  N7_7 
REMARK       I    between atoms: N7_7  and  C8_8 
REMARK    4  A    between atoms: C8_8  and  C10_10 
REMARK    5  A    between atoms: C12_12  and  N13_13 
REMARK    6  A    between atoms: N13_13  and  C14_14 
REMARK    7  A    between atoms: C22_22  and  C27_27 
REMARK    8  A    between atoms: C27_27  and  N28_28 
ROOT
ATOM      1  C10 UI1 d          23.949  15.046  32.797  0.00  0.00     0.035 A 
ATOM      2  C11 UI1 d          25.174  15.696  33.073  0.00  0.00    -0.041 A 
ATOM      3  C12 UI1 d          26.308  14.960  33.331  0.00  0.00     0.061 A 
ATOM      4  C20 UI1 d          26.247  13.525  33.313  0.00  0.00     0.002 A 
ATOM      5  C21 UI1 d          27.416  12.780  33.602  0.00  0.00    -0.057 A 
ATOM      6  C22 UI1 d          27.381  11.369  33.586  0.00  0.00     0.008 A 
ATOM      7  C23 UI1 d          26.185  10.691  33.277  0.00  0.00    -0.069 A 
ATOM      8  C24 UI1 d          25.011  11.432  32.992  0.00  0.00    -0.071 A 
ATOM      9  C25 UI1 d          25.041  12.857  33.017  0.00  0.00    -0.023 A 
ATOM     10  C26 UI1 d          23.877  13.616  32.761  0.00  0.00    -0.057 A 
ATOM     11  H9  UI1 d          25.220  16.779  33.081  0.00  0.00     0.088 H 
ATOM     12  H14 UI1 d          28.341  13.294  33.836  0.00  0.00     0.086 H 
ATOM     13  H15 UI1 d          26.163   9.608  33.257  0.00  0.00     0.085 H 
ATOM     14  H16 UI1 d          24.089  10.913  32.756  0.00  0.00     0.084 H 
ATOM     15  H17 UI1 d          22.939  13.121  32.539  0.00  0.00     0.086 H 
ENDROOT
BRANCH   1  16
ATOM     16  C8  UI1 d          22.741  15.908  32.612  0.00  0.00     0.256 C 
ATOM     17  N7  UI1 d          21.859  15.972  33.591  0.00  0.00    -0.323 N 
ATOM     18  H8  UI1 d          21.959  15.366  34.381  0.00  0.00     0.169 HD
ATOM     19  O9  UI1 d          22.623  16.590  31.601  0.00  0.00    -0.267 OA
BRANCH  17  20
ATOM     20  C6  UI1 d          20.755  16.897  33.544  0.00  0.00     0.035 A 
ATOM     21  C5  UI1 d          21.098  18.218  33.972  0.00  0.00    -0.057 A 
ATOM     22  C4  UI1 d          20.142  19.243  34.009  0.00  0.00    -0.073 A 
ATOM     23  H7  UI1 d          22.117  18.431  34.274  0.00  0.00     0.086 H 
ATOM     24  C3  UI1 d          18.821  18.971  33.616  0.00  0.00    -0.033 A 
ATOM     25  H6  UI1 d          20.420  20.238  34.338  0.00  0.00     0.084 H 
ATOM     26  C31 UI1 d          18.467  17.665  33.189  0.00  0.00    -0.073 A 
ATOM     27  C30 UI1 d          19.440  16.616  33.156  0.00  0.00    -0.057 A 
ATOM     28  H23 UI1 d          17.447  17.459  32.884  0.00  0.00     0.084 H 
ATOM     29  H22 UI1 d          19.163  15.618  32.836  0.00  0.00     0.086 H 
BRANCH  24  30
ATOM     30  C2  UI1 d          17.772  20.092  33.660  0.00  0.00     0.103 C 
ATOM     31  H4  UI1 d          17.218  20.102  32.710  0.00  0.00     0.082 H 
ATOM     32  H5  UI1 d          17.075  19.897  34.489  0.00  0.00     0.082 H 
BRANCH  30  33
ATOM     33  N1  UI1 d          18.394  21.394  33.860  0.00  0.00    -0.075 N 
ATOM     34  H1  UI1 d          17.852  22.102  33.389  0.00  0.00     0.274 HD
ATOM     35  H2  UI1 d          19.329  21.381  33.484  0.00  0.00     0.274 HD
ATOM     36  H3  UI1 d          18.431  21.601  34.847  0.00  0.00     0.274 HD
ENDBRANCH  30  33
ENDBRANCH  24  30
ENDBRANCH  17  20
ENDBRANCH   1  16
BRANCH   3  37
ATOM     37  N13 UI1 d          27.524  15.653  33.672  0.00  0.00    -0.187 N 
ATOM     38  H10 UI1 d          28.398  15.111  33.708  0.00  0.00     0.184 HD
BRANCH  37  39
ATOM     39  C14 UI1 d          27.582  17.041  33.959  0.00  0.00     0.726 A 
ATOM     40  N15 UI1 d          28.001  17.880  32.982  0.00  0.00    -0.075 NA
ATOM     41  C16 UI1 d          28.058  19.214  33.192  0.00  0.00     0.022 A 
ATOM     42  C17 UI1 d          27.671  19.742  34.442  0.00  0.00    -0.048 A 
ATOM     43  H11 UI1 d          28.401  19.875  32.405  0.00  0.00     0.115 H 
ATOM     44  C18 UI1 d          27.247  18.845  35.434  0.00  0.00     0.022 A 
ATOM     45  H12 UI1 d          27.699  20.809  34.630  0.00  0.00     0.087 H 
ATOM     46  N19 UI1 d          27.212  17.517  35.169  0.00  0.00    -0.075 NA
ATOM     47  H13 UI1 d          26.950  19.213  36.409  0.00  0.00     0.115 H 
ENDBRANCH  37  39
ENDBRANCH   3  37
BRANCH   6  48
ATOM     48  C27 UI1 d          28.640  10.654  33.900  0.00  0.00     0.102 C 
ATOM     49  N29 UI1 d          28.954  10.348  35.151  0.00  0.00    -0.385 N 
ATOM     50  H20 UI1 d          28.319  10.607  35.920  0.00  0.00     0.157 HD
ATOM     51  H21 UI1 d          29.833   9.851  35.355  0.00  0.00     0.157 HD
BRANCH  48  52
ATOM     52  N28 UI1 d          29.452  10.320  32.937  0.00  0.00    -0.385 N 
ATOM     53  H18 UI1 d          29.424  10.826  32.040  0.00  0.00     0.157 HD
ATOM     54  H19 UI1 d          30.122   9.549  33.073  0.00  0.00     0.157 HD
ENDBRANCH  48  52
ENDBRANCH   6  48
TORSDOF 8
ENDMDL
