MODEL 1
REMARK VINA RESULT:     -10.8      0.000      0.000
REMARK  13 active torsions:
REMARK  status: ('A' for Active; 'I' for Inactive)
REMARK    1  A    between atoms: C_1  and  CA_4 
REMARK       I    between atoms: NAV_21  and  C_1 
REMARK    2  A    between atoms: CAH_9  and  CAL_13 
REMARK    3  A    between atoms: CAL_13  and  CAT_20 
REMARK    4  A    between atoms: CAL_13  and  CBZ_50 
REMARK    5  A    between atoms: CAL_13  and  CCA_51 
REMARK    6  A    between atoms: CAR_18  and  CAS_19 
REMARK    7  A    between atoms: CAZ_24  and  CAR_18 
REMARK    8  A    between atoms: CAX_22  and  NAV_21 
REMARK    9  A    between atoms: CAX_22  and  CAY_23 
REMARK       I    between atoms: CAY_23  and  NBK_35 
REMARK   10  A    between atoms: NBK_35  and  SBM_37 
REMARK   11  A    between atoms: SBM_37  and  CBN_38 
REMARK   12  A    between atoms: CBV_46  and  CBX_48 
REMARK   13  A    between atoms: CBV_46  and  CBY_49 
ROOT
ATOM      1  N   SU3 d         -15.073  -9.682  13.572  0.00  0.00    -0.334 N 
ATOM      2  CA  SU3 d         -13.690  -9.717  14.106  0.00  0.00     0.094 C 
ATOM      3  CB  SU3 d         -12.948 -10.601  13.123  0.00  0.00    -0.011 C 
ATOM      4  CG  SU3 d         -14.032 -11.599  12.674  0.00  0.00     0.067 C 
ATOM      5  CAF SU3 d         -16.031  -8.915  14.086  0.00  0.00     0.244 C 
ATOM      6  OAG SU3 d         -15.752  -8.131  15.001  0.00  0.00    -0.271 OA
ATOM      7  CAH SU3 d         -17.414  -8.881  13.448  0.00  0.00     0.098 C 
ATOM      8  NAI SU3 d         -18.365  -9.115  14.522  0.00  0.00    -0.323 N 
ATOM      9  CAJ SU3 d         -18.959 -10.283  14.666  0.00  0.00     0.361 C 
ATOM     10  OAK SU3 d         -19.785 -10.342  15.733  0.00  0.00    -0.303 OA
ATOM     11  OAM SU3 d         -18.821 -11.236  13.900  0.00  0.00    -0.238 OA
ATOM     12  CAO SU3 d         -13.559 -13.590  13.894  0.00  0.00     0.371 C 
ATOM     13  OAP SU3 d         -12.635 -13.843  13.116  0.00  0.00    -0.238 OA
ATOM     14  NAQ SU3 d         -13.791 -14.351  14.916  0.00  0.00    -0.278 N 
ATOM     15  CBB SU3 d         -13.134 -15.606  15.296  0.00  0.00     0.000 A 
ATOM     16  CBC SU3 d         -13.775 -16.006  16.592  0.00  0.00    -0.008 A 
ATOM     17  CBD SU3 d         -14.739 -15.062  16.938  0.00  0.00    -0.002 A 
ATOM     18  CBE SU3 d         -14.833 -13.984  15.884  0.00  0.00     0.001 A 
ATOM     19  CBF SU3 d         -13.527 -17.093  17.417  0.00  0.00    -0.071 A 
ATOM     20  CBG SU3 d         -14.252 -17.222  18.584  0.00  0.00    -0.082 A 
ATOM     21  CBH SU3 d         -15.222 -16.280  18.921  0.00  0.00    -0.076 A 
ATOM     22  CBI SU3 d         -15.489 -15.173  18.104  0.00  0.00    -0.046 A 
ATOM     23  CBJ SU3 d         -16.522 -14.097  18.513  0.00  0.00    -0.040 C 
ATOM     24  CBS SU3 d         -17.946 -14.509  18.753  0.00  0.00    -0.061 C 
ATOM     25  CBT SU3 d         -18.756 -13.210  18.819  0.00  0.00    -0.064 C 
ATOM     26  CBU SU3 d         -19.069 -12.669  17.417  0.00  0.00    -0.057 C 
ATOM     27  CBV SU3 d         -20.442 -12.012  17.340  0.00  0.00    -0.025 C 
ATOM     28  CBW SU3 d         -20.587 -11.511  15.934  0.00  0.00     0.037 C 
ATOM     29  CD1 SU3 d         -15.248 -10.700  12.499  0.00  0.00     0.023 C 
ATOM     30  OD2 SU3 d         -14.326 -12.491  13.761  0.00  0.00    -0.296 OA
ATOM     31  H1  SU3 d         -13.647 -10.136  15.122  0.00  0.00     0.088 H 
ATOM     32  H2  SU3 d         -12.111 -11.121  13.612  0.00  0.00     0.040 H 
ATOM     33  H3  SU3 d         -12.570 -10.017  12.271  0.00  0.00     0.040 H 
ATOM     34  H4  SU3 d         -13.758 -12.143  11.758  0.00  0.00     0.086 H 
ATOM     35  H5  SU3 d         -17.485  -9.704  12.721  0.00  0.00     0.088 H 
ATOM     36  H6  SU3 d         -18.573  -8.377  15.163  0.00  0.00     0.165 HD
ATOM     37  H19 SU3 d         -12.350 -16.133  14.755  0.00  0.00     0.113 H 
ATOM     38  H20 SU3 d         -15.512 -13.133  15.850  0.00  0.00     0.113 H 
ATOM     39  H21 SU3 d         -12.777 -17.828  17.150  0.00  0.00     0.084 H 
ATOM     40  H22 SU3 d         -14.066 -18.062  19.243  0.00  0.00     0.083 H 
ATOM     41  H23 SU3 d         -15.786 -16.406  19.839  0.00  0.00     0.084 H 
ATOM     42  H24 SU3 d         -16.535 -13.342  17.713  0.00  0.00     0.040 H 
ATOM     43  H25 SU3 d         -16.158 -13.638  19.443  0.00  0.00     0.040 H 
ATOM     44  H32 SU3 d         -18.030 -15.060  19.701  0.00  0.00     0.033 H 
ATOM     45  H33 SU3 d         -18.305 -15.142  17.928  0.00  0.00     0.033 H 
ATOM     46  H34 SU3 d         -18.177 -12.456  19.372  0.00  0.00     0.033 H 
ATOM     47  H35 SU3 d         -19.702 -13.406  19.345  0.00  0.00     0.033 H 
ATOM     48  H36 SU3 d         -19.036 -13.504  16.701  0.00  0.00     0.034 H 
ATOM     49  H37 SU3 d         -18.305 -11.925  17.148  0.00  0.00     0.034 H 
ATOM     50  H38 SU3 d         -20.264 -12.297  15.235  0.00  0.00     0.076 H 
ATOM     51  H39 SU3 d         -21.642 -11.263  15.744  0.00  0.00     0.076 H 
ATOM     52  H52 SU3 d         -15.252 -10.228  11.504  0.00  0.00     0.068 H 
ATOM     53  H53 SU3 d         -16.181 -11.266  12.639  0.00  0.00     0.068 H 
ENDROOT
BRANCH   2  54
ATOM     54  C   SU3 d         -13.175  -8.267  14.101  0.00  0.00     0.241 C 
ATOM     55  O   SU3 d         -13.090  -7.599  13.065  0.00  0.00    -0.271 OA
ATOM     56  NAV SU3 d         -12.740  -7.823  15.274  0.00  0.00    -0.341 N 
ATOM     57  H15 SU3 d         -12.602  -8.482  16.013  0.00  0.00     0.163 HD
BRANCH  56  58
ATOM     58  CAX SU3 d         -12.453  -6.421  15.532  0.00  0.00     0.119 A 
ATOM     59  CAZ SU3 d         -13.748  -5.551  15.576  0.00  0.00    -0.018 A 
ATOM     60  CBA SU3 d         -13.015  -5.876  16.855  0.00  0.00    -0.027 A 
ATOM     61  H16 SU3 d         -14.727  -5.998  15.349  0.00  0.00     0.044 H 
ATOM     62  H17 SU3 d         -12.475  -5.082  17.391  0.00  0.00     0.038 H 
ATOM     63  H18 SU3 d         -13.467  -6.568  17.582  0.00  0.00     0.038 H 
BRANCH  58  64
ATOM     64  CAY SU3 d         -11.109  -5.852  15.104  0.00  0.00     0.259 C 
ATOM     65  NBK SU3 d         -10.508  -6.462  14.120  0.00  0.00    -0.252 N 
ATOM     66  H26 SU3 d         -10.894  -7.274  13.682  0.00  0.00     0.181 HD
ATOM     67  OBL SU3 d         -10.660  -4.889  15.721  0.00  0.00    -0.270 OA
BRANCH  65  68
ATOM     68  SBM SU3 d          -9.123  -5.830  13.659  0.00  0.00     0.237 S 
ATOM     69  OBO SU3 d          -9.321  -4.704  12.719  0.00  0.00    -0.205 OA
ATOM     70  OBP SU3 d          -8.242  -5.490  14.779  0.00  0.00    -0.205 OA
BRANCH  68  71
ATOM     71  CBN SU3 d          -8.341  -7.142  12.727  0.00  0.00     0.063 A 
ATOM     72  CBQ SU3 d          -6.941  -6.812  12.196  0.00  0.00    -0.046 A 
ATOM     73  CBR SU3 d          -7.122  -7.719  13.411  0.00  0.00    -0.046 A 
ATOM     74  H28 SU3 d          -6.528  -5.800  12.320  0.00  0.00     0.035 H 
ATOM     75  H29 SU3 d          -6.599  -7.233  11.239  0.00  0.00     0.035 H 
ATOM     76  H30 SU3 d          -6.905  -8.795  13.330  0.00  0.00     0.035 H 
ATOM     77  H31 SU3 d          -6.834  -7.361  14.411  0.00  0.00     0.035 H 
ATOM     78  H27 SU3 d          -9.059  -7.755  12.161  0.00  0.00     0.066 H 
ENDBRANCH  68  71
ENDBRANCH  65  68
ENDBRANCH  58  64
BRANCH  59  79
ATOM     79  CAR SU3 d         -13.699  -4.102  15.105  0.00  0.00    -0.062 C 
ATOM     80  H7  SU3 d         -13.848  -3.439  15.970  0.00  0.00     0.033 H 
ATOM     81  H8  SU3 d         -12.714  -3.904  14.657  0.00  0.00     0.033 H 
BRANCH  79  82
ATOM     82  CAS SU3 d         -14.783  -3.817  14.069  0.00  0.00    -0.076 C 
ATOM     83  H9  SU3 d         -15.633  -3.316  14.556  0.00  0.00     0.027 H 
ATOM     84  H10 SU3 d         -15.122  -4.764  13.624  0.00  0.00     0.027 H 
ATOM     85  H11 SU3 d         -14.376  -3.167  13.282  0.00  0.00     0.027 H 
ENDBRANCH  79  82
ENDBRANCH  59  79
ENDBRANCH  56  58
ENDBRANCH   2  54
BRANCH   7  86
ATOM     86  CAL SU3 d         -17.713  -7.561  12.689  0.00  0.00    -0.022 C 
BRANCH  86  87
ATOM     87  CAT SU3 d         -18.244  -6.518  13.695  0.00  0.00    -0.067 C 
ATOM     88  H12 SU3 d         -19.343  -6.484  13.643  0.00  0.00     0.028 H 
ATOM     89  H13 SU3 d         -17.834  -5.527  13.447  0.00  0.00     0.028 H 
ATOM     90  H14 SU3 d         -17.934  -6.798  14.713  0.00  0.00     0.028 H 
ENDBRANCH  86  87
BRANCH  86  91
ATOM     91  CBZ SU3 d         -16.494  -6.974  11.989  0.00  0.00    -0.067 C 
ATOM     92  H46 SU3 d         -16.075  -7.720  11.297  0.00  0.00     0.028 H 
ATOM     93  H47 SU3 d         -15.736  -6.703  12.739  0.00  0.00     0.028 H 
ATOM     94  H48 SU3 d         -16.791  -6.077  11.426  0.00  0.00     0.028 H 
ENDBRANCH  86  91
BRANCH  86  95
ATOM     95  CCA SU3 d         -18.820  -7.827  11.655  0.00  0.00    -0.067 C 
ATOM     96  H49 SU3 d         -19.163  -6.871  11.231  0.00  0.00     0.028 H 
ATOM     97  H50 SU3 d         -19.664  -8.336  12.143  0.00  0.00     0.028 H 
ATOM     98  H51 SU3 d         -18.424  -8.464  10.850  0.00  0.00     0.028 H 
ENDBRANCH  86  95
ENDBRANCH   7  86
BRANCH  27  99
ATOM     99  CBX SU3 d         -21.562 -13.041  17.554  0.00  0.00    -0.067 C 
ATOM    100  H40 SU3 d         -22.411 -12.802  16.897  0.00  0.00     0.028 H 
ATOM    101  H41 SU3 d         -21.891 -13.010  18.604  0.00  0.00     0.028 H 
ATOM    102  H42 SU3 d         -21.186 -14.047  17.317  0.00  0.00     0.028 H 
ENDBRANCH  27  99
BRANCH  27 103
ATOM    103  CBY SU3 d         -20.563 -10.860  18.359  0.00  0.00    -0.067 C 
ATOM    104  H43 SU3 d         -21.617 -10.737  18.650  0.00  0.00     0.028 H 
ATOM    105  H44 SU3 d         -20.197  -9.928  17.905  0.00  0.00     0.028 H 
ATOM    106  H45 SU3 d         -19.962 -11.095  19.251  0.00  0.00     0.028 H 
ENDBRANCH  27 103
TORSDOF 13
ENDMDL
MODEL 2
REMARK VINA RESULT:      -7.8      1.760      3.089
REMARK  13 active torsions:
REMARK  status: ('A' for Active; 'I' for Inactive)
REMARK    1  A    between atoms: C_1  and  CA_4 
REMARK       I    between atoms: NAV_21  and  C_1 
REMARK    2  A    between atoms: CAH_9  and  CAL_13 
REMARK    3  A    between atoms: CAL_13  and  CAT_20 
REMARK    4  A    between atoms: CAL_13  and  CBZ_50 
REMARK    5  A    between atoms: CAL_13  and  CCA_51 
REMARK    6  A    between atoms: CAR_18  and  CAS_19 
REMARK    7  A    between atoms: CAZ_24  and  CAR_18 
REMARK    8  A    between atoms: CAX_22  and  NAV_21 
REMARK    9  A    between atoms: CAX_22  and  CAY_23 
REMARK       I    between atoms: CAY_23  and  NBK_35 
REMARK   10  A    between atoms: NBK_35  and  SBM_37 
REMARK   11  A    between atoms: SBM_37  and  CBN_38 
REMARK   12  A    between atoms: CBV_46  and  CBX_48 
REMARK   13  A    between atoms: CBV_46  and  CBY_49 
ROOT
ATOM      1  N   SU3 d         -15.194 -10.169  13.417  0.00  0.00    -0.334 N 
ATOM      2  CA  SU3 d         -13.792 -10.172  13.898  0.00  0.00     0.094 C 
ATOM      3  CB  SU3 d         -13.086 -11.114  12.943  0.00  0.00    -0.011 C 
ATOM      4  CG  SU3 d         -14.184 -12.136  12.596  0.00  0.00     0.067 C 
ATOM      5  CAF SU3 d         -16.134  -9.372  13.919  0.00  0.00     0.244 C 
ATOM      6  OAG SU3 d         -15.821  -8.534  14.775  0.00  0.00    -0.271 OA
ATOM      7  CAH SU3 d         -17.540  -9.376  13.333  0.00  0.00     0.098 C 
ATOM      8  NAI SU3 d         -18.449  -9.545  14.455  0.00  0.00    -0.323 N 
ATOM      9  CAJ SU3 d         -19.035 -10.702  14.691  0.00  0.00     0.361 C 
ATOM     10  OAK SU3 d         -19.819 -10.697  15.791  0.00  0.00    -0.303 OA
ATOM     11  OAM SU3 d         -18.924 -11.699  13.979  0.00  0.00    -0.238 OA
ATOM     12  CAO SU3 d         -13.661 -14.050  13.914  0.00  0.00     0.371 C 
ATOM     13  OAP SU3 d         -12.768 -14.350  13.118  0.00  0.00    -0.238 OA
ATOM     14  NAQ SU3 d         -13.853 -14.749  14.988  0.00  0.00    -0.278 N 
ATOM     15  CBB SU3 d         -13.180 -15.979  15.418  0.00  0.00     0.000 A 
ATOM     16  CBC SU3 d         -13.770 -16.300  16.758  0.00  0.00    -0.008 A 
ATOM     17  CBD SU3 d         -14.722 -15.337  17.084  0.00  0.00    -0.002 A 
ATOM     18  CBE SU3 d         -14.858 -14.324  15.971  0.00  0.00     0.001 A 
ATOM     19  CBF SU3 d         -13.489 -17.336  17.637  0.00  0.00    -0.071 A 
ATOM     20  CBG SU3 d         -14.169 -17.395  18.837  0.00  0.00    -0.082 A 
ATOM     21  CBH SU3 d         -15.127 -16.434  19.153  0.00  0.00    -0.076 A 
ATOM     22  CBI SU3 d         -15.427 -15.377  18.282  0.00  0.00    -0.046 A 
ATOM     23  CBJ SU3 d         -16.446 -14.279  18.665  0.00  0.00    -0.040 C 
ATOM     24  CBS SU3 d         -17.859 -14.675  18.983  0.00  0.00    -0.061 C 
ATOM     25  CBT SU3 d         -18.669 -13.375  19.001  0.00  0.00    -0.064 C 
ATOM     26  CBU SU3 d         -19.035 -12.919  17.583  0.00  0.00    -0.057 C 
ATOM     27  CBV SU3 d         -20.412 -12.267  17.519  0.00  0.00    -0.025 C 
ATOM     28  CBW SU3 d         -20.611 -11.852  16.091  0.00  0.00     0.037 C 
ATOM     29  CD1 SU3 d         -15.408 -11.249  12.413  0.00  0.00     0.023 C 
ATOM     30  OD2 SU3 d         -14.435 -12.962  13.745  0.00  0.00    -0.296 OA
ATOM     31  H1  SU3 d         -13.710 -10.529  14.935  0.00  0.00     0.088 H 
ATOM     32  H2  SU3 d         -12.230 -11.603  13.430  0.00  0.00     0.040 H 
ATOM     33  H3  SU3 d         -12.742 -10.582  12.044  0.00  0.00     0.040 H 
ATOM     34  H4  SU3 d         -13.944 -12.735  11.705  0.00  0.00     0.086 H 
ATOM     35  H5  SU3 d         -17.637 -10.241  12.661  0.00  0.00     0.088 H 
ATOM     36  H6  SU3 d         -18.634  -8.770  15.059  0.00  0.00     0.165 HD
ATOM     37  H19 SU3 d         -12.416 -16.538  14.880  0.00  0.00     0.113 H 
ATOM     38  H20 SU3 d         -15.540 -13.477  15.912  0.00  0.00     0.113 H 
ATOM     39  H21 SU3 d         -12.748 -18.086  17.386  0.00  0.00     0.084 H 
ATOM     40  H22 SU3 d         -13.956 -18.194  19.537  0.00  0.00     0.083 H 
ATOM     41  H23 SU3 d         -15.655 -16.505  20.098  0.00  0.00     0.084 H 
ATOM     42  H24 SU3 d         -16.491 -13.573  17.822  0.00  0.00     0.040 H 
ATOM     43  H25 SU3 d         -16.048 -13.765  19.551  0.00  0.00     0.040 H 
ATOM     44  H32 SU3 d         -17.906 -15.168  19.965  0.00  0.00     0.033 H 
ATOM     45  H33 SU3 d         -18.248 -15.357  18.212  0.00  0.00     0.033 H 
ATOM     46  H34 SU3 d         -18.071 -12.589  19.486  0.00  0.00     0.033 H 
ATOM     47  H35 SU3 d         -19.594 -13.538  19.574  0.00  0.00     0.033 H 
ATOM     48  H36 SU3 d         -19.028 -13.795  16.917  0.00  0.00     0.034 H 
ATOM     49  H37 SU3 d         -18.284 -12.192  17.241  0.00  0.00     0.034 H 
ATOM     50  H38 SU3 d         -20.314 -12.678  15.429  0.00  0.00     0.076 H 
ATOM     51  H39 SU3 d         -21.673 -11.615  15.928  0.00  0.00     0.076 H 
ATOM     52  H52 SU3 d         -15.450 -10.838  11.393  0.00  0.00     0.068 H 
ATOM     53  H53 SU3 d         -16.334 -11.805  12.623  0.00  0.00     0.068 H 
ENDROOT
BRANCH   2  54
ATOM     54  C   SU3 d         -13.281  -8.725  13.787  0.00  0.00     0.241 C 
ATOM     55  O   SU3 d         -12.954  -8.062  14.778  0.00  0.00    -0.271 OA
ATOM     56  NAV SU3 d         -13.309  -8.212  12.563  0.00  0.00    -0.341 N 
ATOM     57  H15 SU3 d         -13.811  -8.703  11.851  0.00  0.00     0.163 HD
BRANCH  56  58
ATOM     58  CAX SU3 d         -12.644  -6.968  12.211  0.00  0.00     0.119 A 
ATOM     59  CAZ SU3 d         -11.089  -7.091  12.272  0.00  0.00    -0.018 A 
ATOM     60  CBA SU3 d         -11.787  -7.028  10.936  0.00  0.00    -0.027 A 
ATOM     61  H16 SU3 d         -10.618  -8.019  12.628  0.00  0.00     0.044 H 
ATOM     62  H17 SU3 d         -11.682  -6.133  10.307  0.00  0.00     0.038 H 
ATOM     63  H18 SU3 d         -11.823  -7.923  10.296  0.00  0.00     0.038 H 
BRANCH  58  64
ATOM     64  CAY SU3 d         -13.362  -5.652  12.459  0.00  0.00     0.259 C 
ATOM     65  NBK SU3 d         -14.146  -5.606  13.501  0.00  0.00    -0.252 N 
ATOM     66  H26 SU3 d         -14.288  -6.398  14.094  0.00  0.00     0.181 HD
ATOM     67  OBL SU3 d         -13.192  -4.734  11.660  0.00  0.00    -0.270 OA
BRANCH  65  68
ATOM     68  SBM SU3 d         -14.859  -4.210  13.768  0.00  0.00     0.237 S 
ATOM     69  OBO SU3 d         -14.446  -3.187  12.781  0.00  0.00    -0.205 OA
ATOM     70  OBP SU3 d         -16.313  -4.319  13.900  0.00  0.00    -0.205 OA
BRANCH  68  71
ATOM     71  CBN SU3 d         -14.204  -3.687  15.350  0.00  0.00     0.063 A 
ATOM     72  CBQ SU3 d         -14.316  -4.726  16.472  0.00  0.00    -0.046 A 
ATOM     73  CBR SU3 d         -12.981  -4.465  15.778  0.00  0.00    -0.046 A 
ATOM     74  H28 SU3 d         -14.853  -5.669  16.298  0.00  0.00     0.035 H 
ATOM     75  H29 SU3 d         -14.471  -4.402  17.511  0.00  0.00     0.035 H 
ATOM     76  H30 SU3 d         -12.170  -3.957  16.322  0.00  0.00     0.035 H 
ATOM     77  H31 SU3 d         -12.553  -5.226  15.109  0.00  0.00     0.035 H 
ATOM     78  H27 SU3 d         -14.322  -2.607  15.528  0.00  0.00     0.066 H 
ENDBRANCH  68  71
ENDBRANCH  65  68
ENDBRANCH  58  64
BRANCH  59  79
ATOM     79  CAR SU3 d         -10.252  -5.880  12.669  0.00  0.00    -0.062 C 
ATOM     80  H7  SU3 d          -9.634  -5.576  11.811  0.00  0.00     0.033 H 
ATOM     81  H8  SU3 d         -10.925  -5.056  12.947  0.00  0.00     0.033 H 
BRANCH  79  82
ATOM     82  CAS SU3 d          -9.339  -6.198  13.850  0.00  0.00    -0.076 C 
ATOM     83  H9  SU3 d          -9.534  -7.223  14.199  0.00  0.00     0.027 H 
ATOM     84  H10 SU3 d          -9.537  -5.488  14.667  0.00  0.00     0.027 H 
ATOM     85  H11 SU3 d          -8.289  -6.111  13.536  0.00  0.00     0.027 H 
ENDBRANCH  79  82
ENDBRANCH  59  79
ENDBRANCH  56  58
ENDBRANCH   2  54
BRANCH   7  86
ATOM     86  CAL SU3 d         -17.871  -8.103  12.509  0.00  0.00    -0.022 C 
BRANCH  86  87
ATOM     87  CAT SU3 d         -18.447  -7.031  13.458  0.00  0.00    -0.067 C 
ATOM     88  H12 SU3 d         -19.279  -7.461  14.034  0.00  0.00     0.028 H 
ATOM     89  H13 SU3 d         -18.812  -6.178  12.867  0.00  0.00     0.028 H 
ATOM     90  H14 SU3 d         -17.660  -6.690  14.147  0.00  0.00     0.028 H 
ENDBRANCH  86  87
BRANCH  86  91
ATOM     91  CBZ SU3 d         -16.661  -7.513  11.796  0.00  0.00    -0.067 C 
ATOM     92  H46 SU3 d         -15.986  -8.324  11.485  0.00  0.00     0.028 H 
ATOM     93  H47 SU3 d         -16.129  -6.833  12.478  0.00  0.00     0.028 H 
ATOM     94  H48 SU3 d         -16.995  -6.954  10.908  0.00  0.00     0.028 H 
ENDBRANCH  86  91
BRANCH  86  95
ATOM     95  CCA SU3 d         -18.955  -8.454  11.476  0.00  0.00    -0.067 C 
ATOM     96  H49 SU3 d         -19.757  -7.702  11.517  0.00  0.00     0.028 H 
ATOM     97  H50 SU3 d         -19.370  -9.447  11.703  0.00  0.00     0.028 H 
ATOM     98  H51 SU3 d         -18.512  -8.463  10.469  0.00  0.00     0.028 H 
ENDBRANCH  86  95
ENDBRANCH   7  86
BRANCH  27  99
ATOM     99  CBX SU3 d         -21.521 -13.281  17.837  0.00  0.00    -0.067 C 
ATOM    100  H40 SU3 d         -21.765 -13.234  18.909  0.00  0.00     0.028 H 
ATOM    101  H41 SU3 d         -21.174 -14.294  17.584  0.00  0.00     0.028 H 
ATOM    102  H42 SU3 d         -22.417 -13.041  17.246  0.00  0.00     0.028 H 
ENDBRANCH  27  99
BRANCH  27 103
ATOM    103  CBY SU3 d         -20.497 -11.056  18.471  0.00  0.00    -0.067 C 
ATOM    104  H43 SU3 d         -21.167 -11.295  19.310  0.00  0.00     0.028 H 
ATOM    105  H44 SU3 d         -20.889 -10.186  17.925  0.00  0.00     0.028 H 
ATOM    106  H45 SU3 d         -19.493 -10.823  18.859  0.00  0.00     0.028 H 
ENDBRANCH  27 103
TORSDOF 13
ENDMDL
