REMARK  11 active torsions:
REMARK  status: ('A' for Active; 'I' for Inactive)
REMARK    1  A    between atoms: CAA_1  and  CAP_2 
REMARK    2  A    between atoms: CAP_2  and  CAQ_3 
REMARK    3  A    between atoms: CAQ_3  and  CAS_4 
REMARK    4  A    between atoms: CAS_4  and  CAV_5 
REMARK    5  A    between atoms: CAX_10  and  CAY_11 
REMARK    6  A    between atoms: CAW_16  and  CAT_17 
REMARK    7  A    between atoms: CAT_17  and  CAR_18 
REMARK    8  A    between atoms: CAR_18  and  CAU_19 
REMARK    9  A    between atoms: CAU_19  and  CAZ_20 
REMARK   10  A    between atoms: CAZ_20  and  PBA_21 
REMARK   11  A    between atoms: CAZ_20  and  SBB_25 
ROOT
ATOM      1  CAY B69 d          16.411  55.545  37.438  0.00  0.00    -0.026 A 
ATOM      2  CAO B69 d          17.074  54.924  38.492  0.00  0.00    -0.072 A 
ATOM      3  CAK B69 d          18.295  54.294  38.267  0.00  0.00    -0.076 A 
ATOM      4  CAN B69 d          16.962  55.514  36.163  0.00  0.00    -0.072 A 
ATOM      5  CAJ B69 d          18.183  54.886  35.939  0.00  0.00    -0.076 A 
ATOM      6  CAW B69 d          18.854  54.279  36.995  0.00  0.00    -0.058 A 
ATOM      7  H14 B69 d          16.641  54.931  39.486  0.00  0.00     0.084 H 
ATOM      8  H15 B69 d          18.812  53.812  39.089  0.00  0.00     0.084 H 
ATOM      9  H16 B69 d          16.437  55.982  35.338  0.00  0.00     0.084 H 
ATOM     10  H17 B69 d          18.611  54.870  34.943  0.00  0.00     0.084 H 
ENDROOT
BRANCH   1  11
ATOM     11  CAX B69 d          15.264  56.292  37.684  0.00  0.00    -0.026 A 
ATOM     12  CAM B69 d          14.290  56.465  36.706  0.00  0.00    -0.072 A 
ATOM     13  CAI B69 d          13.196  57.288  36.950  0.00  0.00    -0.076 A 
ATOM     14  H11 B69 d          14.384  55.958  35.753  0.00  0.00     0.084 H 
ATOM     15  CAV B69 d          13.059  57.934  38.175  0.00  0.00    -0.058 A 
ATOM     16  H10 B69 d          12.445  57.427  36.181  0.00  0.00     0.084 H 
ATOM     17  CAH B69 d          14.040  57.773  39.145  0.00  0.00    -0.076 A 
ATOM     18  CAL B69 d          15.135  56.952  38.901  0.00  0.00    -0.072 A 
ATOM     19  H12 B69 d          13.952  58.289  40.094  0.00  0.00     0.084 H 
ATOM     20  H13 B69 d          15.894  56.825  39.665  0.00  0.00     0.084 H 
BRANCH  15  21
ATOM     21  CAS B69 d          11.728  58.585  38.561  0.00  0.00    -0.041 C 
ATOM     22  H8  B69 d          10.920  57.903  38.259  0.00  0.00     0.040 H 
ATOM     23  H9  B69 d          11.717  58.705  39.654  0.00  0.00     0.040 H 
BRANCH  21  24
ATOM     24  CAQ B69 d          11.443  59.953  37.937  0.00  0.00    -0.062 C 
ATOM     25  H6  B69 d          12.136  60.702  38.347  0.00  0.00     0.033 H 
ATOM     26  H7  B69 d          11.566  59.898  36.845  0.00  0.00     0.033 H 
BRANCH  24  27
ATOM     27  CAP B69 d          10.000  60.337  38.280  0.00  0.00    -0.068 C 
ATOM     28  H4  B69 d           9.325  59.556  37.900  0.00  0.00     0.032 H 
ATOM     29  H5  B69 d           9.901  60.406  39.373  0.00  0.00     0.032 H 
BRANCH  27  30
ATOM     30  CAA B69 d           9.603  61.678  37.662  0.00  0.00    -0.077 C 
ATOM     31  H1  B69 d           8.563  61.913  37.933  0.00  0.00     0.027 H 
ATOM     32  H2  B69 d           9.692  61.618  36.567  0.00  0.00     0.027 H 
ATOM     33  H3  B69 d          10.268  62.468  38.041  0.00  0.00     0.027 H 
ENDBRANCH  27  30
ENDBRANCH  24  27
ENDBRANCH  21  24
ENDBRANCH  15  21
ENDBRANCH   1  11
BRANCH   6  34
ATOM     34  CAT B69 d          20.222  53.623  36.778  0.00  0.00    -0.041 C 
ATOM     35  H18 B69 d          20.890  53.906  37.605  0.00  0.00     0.040 H 
ATOM     36  H19 B69 d          20.643  53.981  35.827  0.00  0.00     0.040 H 
BRANCH  34  37
ATOM     37  CAR B69 d          20.111  52.098  36.729  0.00  0.00    -0.059 C 
ATOM     38  H20 B69 d          19.903  51.786  35.695  0.00  0.00     0.033 H 
ATOM     39  H21 B69 d          19.286  51.777  37.382  0.00  0.00     0.033 H 
BRANCH  37  40
ATOM     40  CAU B69 d          21.408  51.436  37.199  0.00  0.00    -0.034 C 
ATOM     41  H22 B69 d          21.249  50.349  37.248  0.00  0.00     0.036 H 
ATOM     42  H23 B69 d          21.653  51.817  38.202  0.00  0.00     0.036 H 
BRANCH  40  43
ATOM     43  CAZ B69 d          22.590  51.714  36.270  0.00  0.00     0.169 C 
ATOM     44  H24 B69 d          22.493  52.730  35.859  0.00  0.00     0.090 H 
BRANCH  43  45
ATOM     45  PBA B69 d          22.619  50.511  34.879  0.00  0.00     0.281 P 
ATOM     46  OAC B69 d          23.908  50.850  33.974  0.00  0.00    -0.639 OA
ATOM     47  OAD B69 d          22.882  49.069  35.543  0.00  0.00    -0.639 OA
ATOM     48  OAB B69 d          21.368  50.564  34.089  0.00  0.00    -0.639 OA
ENDBRANCH  43  45
BRANCH  43  49
ATOM     49  SBB B69 d          24.143  51.600  37.232  0.00  0.00     0.119 S 
ATOM     50  OAG B69 d          25.246  51.926  36.383  0.00  0.00    -0.594 OA
ATOM     51  OAF B69 d          24.302  50.204  37.755  0.00  0.00    -0.594 OA
ATOM     52  OAE B69 d          24.080  52.561  38.384  0.00  0.00    -0.594 OA
ENDBRANCH  43  49
ENDBRANCH  40  43
ENDBRANCH  37  40
ENDBRANCH  34  37
ENDBRANCH   6  34
TORSDOF 11
