MODEL 1
REMARK VINA RESULT:      -9.9      0.000      0.000
REMARK  11 active torsions:
REMARK  status: ('A' for Active; 'I' for Inactive)
REMARK    1  A    between atoms: CAA_1  and  CAP_2 
REMARK    2  A    between atoms: CAP_2  and  CAQ_3 
REMARK    3  A    between atoms: CAQ_3  and  CAS_4 
REMARK    4  A    between atoms: CAS_4  and  CAV_5 
REMARK    5  A    between atoms: CAX_10  and  CAY_11 
REMARK    6  A    between atoms: CAW_16  and  CAT_17 
REMARK    7  A    between atoms: CAT_17  and  CAR_18 
REMARK    8  A    between atoms: CAR_18  and  CAU_19 
REMARK    9  A    between atoms: CAU_19  and  CAZ_20 
REMARK   10  A    between atoms: CAZ_20  and  PBA_21 
REMARK   11  A    between atoms: CAZ_20  and  SBB_25 
ROOT
ATOM      1  CAY B69 d          14.224  56.779  37.823  0.00  0.00    -0.026 A 
ATOM      2  CAO B69 d          15.001  56.293  38.869  0.00  0.00    -0.072 A 
ATOM      3  CAK B69 d          15.890  55.246  38.643  0.00  0.00    -0.076 A 
ATOM      4  CAN B69 d          14.325  56.202  36.563  0.00  0.00    -0.072 A 
ATOM      5  CAJ B69 d          15.214  55.157  36.337  0.00  0.00    -0.076 A 
ATOM      6  CAW B69 d          16.003  54.681  37.379  0.00  0.00    -0.058 A 
ATOM      7  H14 B69 d          14.914  56.729  39.858  0.00  0.00     0.084 H 
ATOM      8  H15 B69 d          16.496  54.868  39.459  0.00  0.00     0.084 H 
ATOM      9  H16 B69 d          13.706  56.568  35.751  0.00  0.00     0.084 H 
ATOM     10  H17 B69 d          15.293  54.714  35.351  0.00  0.00     0.084 H 
ENDROOT
BRANCH   1  11
ATOM     11  CAX B69 d          13.439  57.912  38.010  0.00  0.00    -0.026 A 
ATOM     12  CAM B69 d          12.499  58.305  37.062  0.00  0.00    -0.072 A 
ATOM     13  CAI B69 d          11.789  59.488  37.234  0.00  0.00    -0.076 A 
ATOM     14  H11 B69 d          12.319  57.688  36.190  0.00  0.00     0.084 H 
ATOM     15  CAV B69 d          12.003  60.282  38.357  0.00  0.00    -0.058 A 
ATOM     16  H10 B69 d          11.065  59.795  36.488  0.00  0.00     0.084 H 
ATOM     17  CAH B69 d          12.953  59.897  39.294  0.00  0.00    -0.076 A 
ATOM     18  CAL B69 d          13.664  58.715  39.122  0.00  0.00    -0.072 A 
ATOM     19  H12 B69 d          13.141  60.519  40.161  0.00  0.00     0.084 H 
ATOM     20  H13 B69 d          14.399  58.416  39.861  0.00  0.00     0.084 H 
BRANCH  15  21
ATOM     21  CAS B69 d          11.026  61.409  38.705  0.00  0.00    -0.041 C 
ATOM     22  H8  B69 d          10.681  61.248  39.736  0.00  0.00     0.040 H 
ATOM     23  H9  B69 d          11.575  62.360  38.646  0.00  0.00     0.040 H 
BRANCH  21  24
ATOM     24  CAQ B69 d           9.790  61.526  37.811  0.00  0.00    -0.062 C 
ATOM     25  H6  B69 d           9.633  62.577  37.527  0.00  0.00     0.033 H 
ATOM     26  H7  B69 d           9.926  60.917  36.904  0.00  0.00     0.033 H 
BRANCH  24  27
ATOM     27  CAP B69 d           8.583  61.016  38.605  0.00  0.00    -0.068 C 
ATOM     28  H4  B69 d           8.747  61.223  39.672  0.00  0.00     0.032 H 
ATOM     29  H5  B69 d           7.683  61.547  38.263  0.00  0.00     0.032 H 
BRANCH  27  30
ATOM     30  CAA B69 d           8.370  59.513  38.420  0.00  0.00    -0.077 C 
ATOM     31  H1  B69 d           7.338  59.327  38.089  0.00  0.00     0.027 H 
ATOM     32  H2  B69 d           8.548  58.997  39.375  0.00  0.00     0.027 H 
ATOM     33  H3  B69 d           9.072  59.134  37.662  0.00  0.00     0.027 H 
ENDBRANCH  27  30
ENDBRANCH  24  27
ENDBRANCH  21  24
ENDBRANCH  15  21
ENDBRANCH   1  11
BRANCH   6  34
ATOM     34  CAT B69 d          17.023  53.562  37.139  0.00  0.00    -0.041 C 
ATOM     35  H18 B69 d          17.890  53.976  36.605  0.00  0.00     0.040 H 
ATOM     36  H19 B69 d          16.555  52.777  36.527  0.00  0.00     0.040 H 
BRANCH  34  37
ATOM     37  CAR B69 d          17.499  52.946  38.456  0.00  0.00    -0.059 C 
ATOM     38  H20 B69 d          16.788  52.166  38.766  0.00  0.00     0.033 H 
ATOM     39  H21 B69 d          17.540  53.731  39.226  0.00  0.00     0.033 H 
BRANCH  37  40
ATOM     40  CAU B69 d          18.888  52.322  38.302  0.00  0.00    -0.034 C 
ATOM     41  H22 B69 d          18.788  51.228  38.348  0.00  0.00     0.036 H 
ATOM     42  H23 B69 d          19.521  52.668  39.133  0.00  0.00     0.036 H 
BRANCH  40  43
ATOM     43  CAZ B69 d          19.566  52.695  36.984  0.00  0.00     0.169 C 
ATOM     44  H24 B69 d          18.802  53.047  36.274  0.00  0.00     0.090 H 
BRANCH  43  45
ATOM     45  PBA B69 d          20.423  51.238  36.260  0.00  0.00     0.281 P 
ATOM     46  OAC B69 d          19.292  50.273  35.637  0.00  0.00    -0.639 OA
ATOM     47  OAD B69 d          21.289  51.798  35.025  0.00  0.00    -0.639 OA
ATOM     48  OAB B69 d          21.245  50.534  37.270  0.00  0.00    -0.639 OA
ENDBRANCH  43  45
BRANCH  43  49
ATOM     49  SBB B69 d          20.767  54.041  37.292  0.00  0.00     0.119 S 
ATOM     50  OAG B69 d          20.330  54.813  38.413  0.00  0.00    -0.594 OA
ATOM     51  OAF B69 d          20.855  54.916  36.078  0.00  0.00    -0.594 OA
ATOM     52  OAE B69 d          22.115  53.443  37.575  0.00  0.00    -0.594 OA
ENDBRANCH  43  49
ENDBRANCH  40  43
ENDBRANCH  37  40
ENDBRANCH  34  37
ENDBRANCH   6  34
TORSDOF 11
ENDMDL
MODEL 2
REMARK VINA RESULT:      -9.7      0.987      2.445
REMARK  11 active torsions:
REMARK  status: ('A' for Active; 'I' for Inactive)
REMARK    1  A    between atoms: CAA_1  and  CAP_2 
REMARK    2  A    between atoms: CAP_2  and  CAQ_3 
REMARK    3  A    between atoms: CAQ_3  and  CAS_4 
REMARK    4  A    between atoms: CAS_4  and  CAV_5 
REMARK    5  A    between atoms: CAX_10  and  CAY_11 
REMARK    6  A    between atoms: CAW_16  and  CAT_17 
REMARK    7  A    between atoms: CAT_17  and  CAR_18 
REMARK    8  A    between atoms: CAR_18  and  CAU_19 
REMARK    9  A    between atoms: CAU_19  and  CAZ_20 
REMARK   10  A    between atoms: CAZ_20  and  PBA_21 
REMARK   11  A    between atoms: CAZ_20  and  SBB_25 
ROOT
ATOM      1  CAY B69 d          14.676  56.682  38.035  0.00  0.00    -0.026 A 
ATOM      2  CAO B69 d          14.737  55.949  36.854  0.00  0.00    -0.072 A 
ATOM      3  CAK B69 d          15.484  54.775  36.806  0.00  0.00    -0.076 A 
ATOM      4  CAN B69 d          15.378  56.249  39.153  0.00  0.00    -0.072 A 
ATOM      5  CAJ B69 d          16.122  55.074  39.105  0.00  0.00    -0.076 A 
ATOM      6  CAW B69 d          16.171  54.332  37.930  0.00  0.00    -0.058 A 
ATOM      7  H14 B69 d          14.205  56.291  35.974  0.00  0.00     0.084 H 
ATOM      8  H15 B69 d          15.529  54.203  35.886  0.00  0.00     0.084 H 
ATOM      9  H16 B69 d          15.346  56.829  40.068  0.00  0.00     0.084 H 
ATOM     10  H17 B69 d          16.663  54.738  39.982  0.00  0.00     0.084 H 
ENDROOT
BRANCH   1  11
ATOM     11  CAX B69 d          13.824  57.777  38.129  0.00  0.00    -0.026 A 
ATOM     12  CAM B69 d          12.872  58.038  37.148  0.00  0.00    -0.072 A 
ATOM     13  CAI B69 d          12.092  59.187  37.223  0.00  0.00    -0.076 A 
ATOM     14  H11 B69 d          12.738  57.345  36.326  0.00  0.00     0.084 H 
ATOM     15  CAV B69 d          12.247  60.077  38.281  0.00  0.00    -0.058 A 
ATOM     16  H10 B69 d          11.359  59.391  36.451  0.00  0.00     0.084 H 
ATOM     17  CAH B69 d          13.209  59.824  39.251  0.00  0.00    -0.076 A 
ATOM     18  CAL B69 d          13.990  58.676  39.176  0.00  0.00    -0.072 A 
ATOM     19  H12 B69 d          13.351  60.522  40.067  0.00  0.00     0.084 H 
ATOM     20  H13 B69 d          14.734  58.480  39.940  0.00  0.00     0.084 H 
BRANCH  15  21
ATOM     21  CAS B69 d          11.202  61.167  38.534  0.00  0.00    -0.041 C 
ATOM     22  H8  B69 d          10.769  60.993  39.530  0.00  0.00     0.040 H 
ATOM     23  H9  B69 d          11.719  62.138  38.523  0.00  0.00     0.040 H 
BRANCH  21  24
ATOM     24  CAQ B69 d          10.050  61.239  37.530  0.00  0.00    -0.062 C 
ATOM     25  H6  B69 d           9.988  62.252  37.105  0.00  0.00     0.033 H 
ATOM     26  H7  B69 d          10.213  60.511  36.721  0.00  0.00     0.033 H 
BRANCH  24  27
ATOM     27  CAP B69 d           8.753  60.907  38.274  0.00  0.00    -0.068 C 
ATOM     28  H4  B69 d           8.756  61.429  39.243  0.00  0.00     0.032 H 
ATOM     29  H5  B69 d           7.899  61.256  37.674  0.00  0.00     0.032 H 
BRANCH  27  30
ATOM     30  CAA B69 d           8.603  59.406  38.521  0.00  0.00    -0.077 C 
ATOM     31  H1  B69 d           7.549  59.116  38.394  0.00  0.00     0.027 H 
ATOM     32  H2  B69 d           8.928  59.168  39.546  0.00  0.00     0.027 H 
ATOM     33  H3  B69 d           9.225  58.852  37.802  0.00  0.00     0.027 H 
ENDBRANCH  27  30
ENDBRANCH  24  27
ENDBRANCH  21  24
ENDBRANCH  15  21
ENDBRANCH   1  11
BRANCH   6  34
ATOM     34  CAT B69 d          16.947  53.012  37.871  0.00  0.00    -0.041 C 
ATOM     35  H18 B69 d          16.407  52.253  38.457  0.00  0.00     0.040 H 
ATOM     36  H19 B69 d          17.947  53.166  38.301  0.00  0.00     0.040 H 
BRANCH  34  37
ATOM     37  CAR B69 d          17.096  52.513  36.432  0.00  0.00    -0.059 C 
ATOM     38  H20 B69 d          16.347  53.012  35.800  0.00  0.00     0.033 H 
ATOM     39  H21 B69 d          16.930  51.426  36.410  0.00  0.00     0.033 H 
BRANCH  37  40
ATOM     40  CAU B69 d          18.493  52.818  35.886  0.00  0.00    -0.034 C 
ATOM     41  H22 B69 d          18.590  53.905  35.759  0.00  0.00     0.036 H 
ATOM     42  H23 B69 d          18.604  52.322  34.910  0.00  0.00     0.036 H 
BRANCH  40  43
ATOM     43  CAZ B69 d          19.612  52.334  36.809  0.00  0.00     0.169 C 
ATOM     44  H24 B69 d          19.168  51.925  37.729  0.00  0.00     0.090 H 
BRANCH  43  45
ATOM     45  PBA B69 d          20.731  53.723  37.256  0.00  0.00     0.281 P 
ATOM     46  OAC B69 d          20.756  54.743  36.010  0.00  0.00    -0.639 OA
ATOM     47  OAD B69 d          20.017  54.495  38.475  0.00  0.00    -0.639 OA
ATOM     48  OAB B69 d          22.089  53.240  37.594  0.00  0.00    -0.639 OA
ENDBRANCH  43  45
BRANCH  43  49
ATOM     49  SBB B69 d          20.556  51.016  35.959  0.00  0.00     0.119 S 
ATOM     50  OAG B69 d          21.436  51.611  35.002  0.00  0.00    -0.594 OA
ATOM     51  OAF B69 d          19.602  50.091  35.264  0.00  0.00    -0.594 OA
ATOM     52  OAE B69 d          21.348  50.244  36.975  0.00  0.00    -0.594 OA
ENDBRANCH  43  49
ENDBRANCH  40  43
ENDBRANCH  37  40
ENDBRANCH  34  37
ENDBRANCH   6  34
TORSDOF 11
ENDMDL
MODEL 3
REMARK VINA RESULT:      -9.6      1.168      2.350
REMARK  11 active torsions:
REMARK  status: ('A' for Active; 'I' for Inactive)
REMARK    1  A    between atoms: CAA_1  and  CAP_2 
REMARK    2  A    between atoms: CAP_2  and  CAQ_3 
REMARK    3  A    between atoms: CAQ_3  and  CAS_4 
REMARK    4  A    between atoms: CAS_4  and  CAV_5 
REMARK    5  A    between atoms: CAX_10  and  CAY_11 
REMARK    6  A    between atoms: CAW_16  and  CAT_17 
REMARK    7  A    between atoms: CAT_17  and  CAR_18 
REMARK    8  A    between atoms: CAR_18  and  CAU_19 
REMARK    9  A    between atoms: CAU_19  and  CAZ_20 
REMARK   10  A    between atoms: CAZ_20  and  PBA_21 
REMARK   11  A    between atoms: CAZ_20  and  SBB_25 
ROOT
ATOM      1  CAY B69 d          15.347  55.465  37.892  0.00  0.00    -0.026 A 
ATOM      2  CAO B69 d          15.569  55.046  36.584  0.00  0.00    -0.072 A 
ATOM      3  CAK B69 d          16.090  53.778  36.341  0.00  0.00    -0.076 A 
ATOM      4  CAN B69 d          15.668  54.622  38.949  0.00  0.00    -0.072 A 
ATOM      5  CAJ B69 d          16.188  53.355  38.706  0.00  0.00    -0.076 A 
ATOM      6  CAW B69 d          16.395  52.929  37.398  0.00  0.00    -0.058 A 
ATOM      7  H14 B69 d          15.335  55.705  35.755  0.00  0.00     0.084 H 
ATOM      8  H15 B69 d          16.261  53.452  35.321  0.00  0.00     0.084 H 
ATOM      9  H16 B69 d          15.513  54.955  39.969  0.00  0.00     0.084 H 
ATOM     10  H17 B69 d          16.431  52.699  39.535  0.00  0.00     0.084 H 
ENDROOT
BRANCH   1  11
ATOM     11  CAX B69 d          14.700  56.671  38.134  0.00  0.00    -0.026 A 
ATOM     12  CAM B69 d          15.042  57.471  39.219  0.00  0.00    -0.072 A 
ATOM     13  CAI B69 d          14.320  58.629  39.487  0.00  0.00    -0.076 A 
ATOM     14  H11 B69 d          15.873  57.192  39.857  0.00  0.00     0.084 H 
ATOM     15  CAV B69 d          13.260  59.004  38.668  0.00  0.00    -0.058 A 
ATOM     16  H10 B69 d          14.585  59.243  40.340  0.00  0.00     0.084 H 
ATOM     17  CAH B69 d          12.908  58.196  37.593  0.00  0.00    -0.076 A 
ATOM     18  CAL B69 d          13.629  57.037  37.326  0.00  0.00    -0.072 A 
ATOM     19  H12 B69 d          12.071  58.470  36.963  0.00  0.00     0.084 H 
ATOM     20  H13 B69 d          13.354  56.415  36.482  0.00  0.00     0.084 H 
BRANCH  15  21
ATOM     21  CAS B69 d          12.664  60.411  38.769  0.00  0.00    -0.041 C 
ATOM     22  H8  B69 d          13.355  61.026  39.363  0.00  0.00     0.040 H 
ATOM     23  H9  B69 d          12.593  60.820  37.751  0.00  0.00     0.040 H 
BRANCH  21  24
ATOM     24  CAQ B69 d          11.279  60.510  39.411  0.00  0.00    -0.062 C 
ATOM     25  H6  B69 d          10.749  59.552  39.305  0.00  0.00     0.033 H 
ATOM     26  H7  B69 d          11.379  60.758  40.478  0.00  0.00     0.033 H 
BRANCH  24  27
ATOM     27  CAP B69 d          10.502  61.616  38.690  0.00  0.00    -0.068 C 
ATOM     28  H4  B69 d          10.116  62.324  39.438  0.00  0.00     0.032 H 
ATOM     29  H5  B69 d          11.185  62.142  38.007  0.00  0.00     0.032 H 
BRANCH  27  30
ATOM     30  CAA B69 d           9.329  61.058  37.884  0.00  0.00    -0.077 C 
ATOM     31  H1  B69 d           9.304  61.536  36.893  0.00  0.00     0.027 H 
ATOM     32  H2  B69 d           8.387  61.265  38.415  0.00  0.00     0.027 H 
ATOM     33  H3  B69 d           9.450  59.971  37.763  0.00  0.00     0.027 H 
ENDBRANCH  27  30
ENDBRANCH  24  27
ENDBRANCH  21  24
ENDBRANCH  15  21
ENDBRANCH   1  11
BRANCH   6  34
ATOM     34  CAT B69 d          16.922  51.520  37.109  0.00  0.00    -0.041 C 
ATOM     35  H18 B69 d          16.140  50.945  36.591  0.00  0.00     0.040 H 
ATOM     36  H19 B69 d          17.169  51.028  38.061  0.00  0.00     0.040 H 
BRANCH  34  37
ATOM     37  CAR B69 d          18.174  51.559  36.231  0.00  0.00    -0.059 C 
ATOM     38  H20 B69 d          18.126  52.442  35.576  0.00  0.00     0.033 H 
ATOM     39  H21 B69 d          18.209  50.648  35.615  0.00  0.00     0.033 H 
BRANCH  37  40
ATOM     40  CAU B69 d          19.442  51.637  37.083  0.00  0.00    -0.034 C 
ATOM     41  H22 B69 d          19.790  50.614  37.288  0.00  0.00     0.036 H 
ATOM     42  H23 B69 d          19.197  52.139  38.031  0.00  0.00     0.036 H 
BRANCH  40  43
ATOM     43  CAZ B69 d          20.573  52.408  36.401  0.00  0.00     0.169 C 
ATOM     44  H24 B69 d          20.299  52.593  35.351  0.00  0.00     0.090 H 
BRANCH  43  45
ATOM     45  PBA B69 d          22.137  51.441  36.445  0.00  0.00     0.281 P 
ATOM     46  OAC B69 d          21.849  50.096  37.284  0.00  0.00    -0.639 OA
ATOM     47  OAD B69 d          22.425  50.991  34.928  0.00  0.00    -0.639 OA
ATOM     48  OAB B69 d          23.244  52.227  37.035  0.00  0.00    -0.639 OA
ENDBRANCH  43  45
BRANCH  43  49
ATOM     49  SBB B69 d          20.800  54.011  37.255  0.00  0.00     0.119 S 
ATOM     50  OAG B69 d          20.853  55.058  36.283  0.00  0.00    -0.594 OA
ATOM     51  OAF B69 d          22.079  53.980  38.036  0.00  0.00    -0.594 OA
ATOM     52  OAE B69 d          19.648  54.237  38.192  0.00  0.00    -0.594 OA
ENDBRANCH  43  49
ENDBRANCH  40  43
ENDBRANCH  37  40
ENDBRANCH  34  37
ENDBRANCH   6  34
TORSDOF 11
ENDMDL
MODEL 4
REMARK VINA RESULT:      -7.9      1.173      2.039
REMARK  11 active torsions:
REMARK  status: ('A' for Active; 'I' for Inactive)
REMARK    1  A    between atoms: CAA_1  and  CAP_2 
REMARK    2  A    between atoms: CAP_2  and  CAQ_3 
REMARK    3  A    between atoms: CAQ_3  and  CAS_4 
REMARK    4  A    between atoms: CAS_4  and  CAV_5 
REMARK    5  A    between atoms: CAX_10  and  CAY_11 
REMARK    6  A    between atoms: CAW_16  and  CAT_17 
REMARK    7  A    between atoms: CAT_17  and  CAR_18 
REMARK    8  A    between atoms: CAR_18  and  CAU_19 
REMARK    9  A    between atoms: CAU_19  and  CAZ_20 
REMARK   10  A    between atoms: CAZ_20  and  PBA_21 
REMARK   11  A    between atoms: CAZ_20  and  SBB_25 
ROOT
ATOM      1  CAY B69 d          14.056  57.722  38.183  0.00  0.00    -0.026 A 
ATOM      2  CAO B69 d          14.313  56.853  37.127  0.00  0.00    -0.072 A 
ATOM      3  CAK B69 d          15.167  55.769  37.314  0.00  0.00    -0.076 A 
ATOM      4  CAN B69 d          14.670  57.513  39.412  0.00  0.00    -0.072 A 
ATOM      5  CAJ B69 d          15.521  56.429  39.599  0.00  0.00    -0.076 A 
ATOM      6  CAW B69 d          15.766  55.551  38.548  0.00  0.00    -0.058 A 
ATOM      7  H14 B69 d          13.850  57.020  36.161  0.00  0.00     0.084 H 
ATOM      8  H15 B69 d          15.365  55.091  36.491  0.00  0.00     0.084 H 
ATOM      9  H16 B69 d          14.485  58.200  40.230  0.00  0.00     0.084 H 
ATOM     10  H17 B69 d          15.993  56.268  40.562  0.00  0.00     0.084 H 
ENDROOT
BRANCH   1  11
ATOM     11  CAX B69 d          13.101  58.722  38.042  0.00  0.00    -0.026 A 
ATOM     12  CAM B69 d          12.400  58.890  36.852  0.00  0.00    -0.072 A 
ATOM     13  CAI B69 d          11.513  59.952  36.709  0.00  0.00    -0.076 A 
ATOM     14  H11 B69 d          12.545  58.192  36.035  0.00  0.00     0.084 H 
ATOM     15  CAV B69 d          11.310  60.846  37.755  0.00  0.00    -0.058 A 
ATOM     16  H10 B69 d          10.977  60.083  35.776  0.00  0.00     0.084 H 
ATOM     17  CAH B69 d          12.022  60.687  38.937  0.00  0.00    -0.076 A 
ATOM     18  CAL B69 d          12.910  59.627  39.080  0.00  0.00    -0.072 A 
ATOM     19  H12 B69 d          11.885  61.391  39.750  0.00  0.00     0.084 H 
ATOM     20  H13 B69 d          13.457  59.504  40.008  0.00  0.00     0.084 H 
BRANCH  15  21
ATOM     21  CAS B69 d          10.129  61.820  37.721  0.00  0.00    -0.041 C 
ATOM     22  H8  B69 d          10.492  62.801  38.062  0.00  0.00     0.040 H 
ATOM     23  H9  B69 d           9.788  61.898  36.679  0.00  0.00     0.040 H 
BRANCH  21  24
ATOM     24  CAQ B69 d           8.922  61.443  38.582  0.00  0.00    -0.062 C 
ATOM     25  H6  B69 d           9.230  61.341  39.633  0.00  0.00     0.033 H 
ATOM     26  H7  B69 d           8.148  62.221  38.500  0.00  0.00     0.033 H 
BRANCH  24  27
ATOM     27  CAP B69 d           8.374  60.108  38.069  0.00  0.00    -0.068 C 
ATOM     28  H4  B69 d           7.275  60.153  38.065  0.00  0.00     0.032 H 
ATOM     29  H5  B69 d           8.738  59.945  37.044  0.00  0.00     0.032 H 
BRANCH  27  30
ATOM     30  CAA B69 d           8.818  58.934  38.943  0.00  0.00    -0.077 C 
ATOM     31  H1  B69 d           9.012  58.057  38.308  0.00  0.00     0.027 H 
ATOM     32  H2  B69 d           8.025  58.695  39.666  0.00  0.00     0.027 H 
ATOM     33  H3  B69 d           9.737  59.206  39.483  0.00  0.00     0.027 H 
ENDBRANCH  27  30
ENDBRANCH  24  27
ENDBRANCH  21  24
ENDBRANCH  15  21
ENDBRANCH   1  11
BRANCH   6  34
ATOM     34  CAT B69 d          16.663  54.325  38.747  0.00  0.00    -0.041 C 
ATOM     35  H18 B69 d          16.316  53.767  39.630  0.00  0.00     0.040 H 
ATOM     36  H19 B69 d          17.698  54.661  38.908  0.00  0.00     0.040 H 
BRANCH  34  37
ATOM     37  CAR B69 d          16.626  53.399  37.530  0.00  0.00    -0.059 C 
ATOM     38  H20 B69 d          15.586  53.303  37.183  0.00  0.00     0.033 H 
ATOM     39  H21 B69 d          17.010  52.410  37.819  0.00  0.00     0.033 H 
BRANCH  37  40
ATOM     40  CAU B69 d          17.482  53.955  36.390  0.00  0.00    -0.034 C 
ATOM     41  H22 B69 d          17.607  55.037  36.540  0.00  0.00     0.036 H 
ATOM     42  H23 B69 d          16.960  53.774  35.438  0.00  0.00     0.036 H 
BRANCH  40  43
ATOM     43  CAZ B69 d          18.867  53.310  36.315  0.00  0.00     0.169 C 
ATOM     44  H24 B69 d          19.169  53.229  35.260  0.00  0.00     0.090 H 
BRANCH  43  45
ATOM     45  PBA B69 d          18.840  51.627  37.057  0.00  0.00     0.281 P 
ATOM     46  OAC B69 d          18.723  51.805  38.654  0.00  0.00    -0.639 OA
ATOM     47  OAD B69 d          17.469  50.945  36.562  0.00  0.00    -0.639 OA
ATOM     48  OAB B69 d          20.041  50.849  36.680  0.00  0.00    -0.639 OA
ENDBRANCH  43  45
BRANCH  43  49
ATOM     49  SBB B69 d          20.065  54.370  37.204  0.00  0.00     0.119 S 
ATOM     50  OAG B69 d          21.390  53.895  36.951  0.00  0.00    -0.594 OA
ATOM     51  OAF B69 d          19.781  54.315  38.675  0.00  0.00    -0.594 OA
ATOM     52  OAE B69 d          19.925  55.784  36.721  0.00  0.00    -0.594 OA
ENDBRANCH  43  49
ENDBRANCH  40  43
ENDBRANCH  37  40
ENDBRANCH  34  37
ENDBRANCH   6  34
TORSDOF 11
ENDMDL
MODEL 5
REMARK VINA RESULT:      -7.2      5.714     10.626
REMARK  11 active torsions:
REMARK  status: ('A' for Active; 'I' for Inactive)
REMARK    1  A    between atoms: CAA_1  and  CAP_2 
REMARK    2  A    between atoms: CAP_2  and  CAQ_3 
REMARK    3  A    between atoms: CAQ_3  and  CAS_4 
REMARK    4  A    between atoms: CAS_4  and  CAV_5 
REMARK    5  A    between atoms: CAX_10  and  CAY_11 
REMARK    6  A    between atoms: CAW_16  and  CAT_17 
REMARK    7  A    between atoms: CAT_17  and  CAR_18 
REMARK    8  A    between atoms: CAR_18  and  CAU_19 
REMARK    9  A    between atoms: CAU_19  and  CAZ_20 
REMARK   10  A    between atoms: CAZ_20  and  PBA_21 
REMARK   11  A    between atoms: CAZ_20  and  SBB_25 
ROOT
ATOM      1  CAY B69 d          17.621  53.886  37.422  0.00  0.00    -0.026 A 
ATOM      2  CAO B69 d          17.475  55.240  37.138  0.00  0.00    -0.072 A 
ATOM      3  CAK B69 d          16.552  56.001  37.849  0.00  0.00    -0.076 A 
ATOM      4  CAN B69 d          16.829  53.297  38.400  0.00  0.00    -0.072 A 
ATOM      5  CAJ B69 d          15.908  54.059  39.112  0.00  0.00    -0.076 A 
ATOM      6  CAW B69 d          15.773  55.416  38.840  0.00  0.00    -0.058 A 
ATOM      7  H14 B69 d          18.079  55.701  36.365  0.00  0.00     0.084 H 
ATOM      8  H15 B69 d          16.440  57.057  37.629  0.00  0.00     0.084 H 
ATOM      9  H16 B69 d          16.929  52.238  38.609  0.00  0.00     0.084 H 
ATOM     10  H17 B69 d          15.296  53.595  39.878  0.00  0.00     0.084 H 
ENDROOT
BRANCH   1  11
ATOM     11  CAX B69 d          18.635  53.154  36.813  0.00  0.00    -0.026 A 
ATOM     12  CAM B69 d          18.433  51.841  36.403  0.00  0.00    -0.072 A 
ATOM     13  CAI B69 d          19.489  51.105  35.876  0.00  0.00    -0.076 A 
ATOM     14  H11 B69 d          17.452  51.390  36.494  0.00  0.00     0.084 H 
ATOM     15  CAV B69 d          20.750  51.678  35.742  0.00  0.00    -0.058 A 
ATOM     16  H10 B69 d          19.329  50.078  35.567  0.00  0.00     0.084 H 
ATOM     17  CAH B69 d          20.954  52.985  36.166  0.00  0.00    -0.076 A 
ATOM     18  CAL B69 d          19.899  53.720  36.695  0.00  0.00    -0.072 A 
ATOM     19  H12 B69 d          21.938  53.432  36.085  0.00  0.00     0.084 H 
ATOM     20  H13 B69 d          20.064  54.742  37.018  0.00  0.00     0.084 H 
BRANCH  15  21
ATOM     21  CAS B69 d          21.825  50.993  34.894  0.00  0.00    -0.041 C 
ATOM     22  H8  B69 d          21.370  50.719  33.931  0.00  0.00     0.040 H 
ATOM     23  H9  B69 d          22.633  51.719  34.725  0.00  0.00     0.040 H 
BRANCH  21  24
ATOM     24  CAQ B69 d          22.449  49.730  35.492  0.00  0.00    -0.062 C 
ATOM     25  H6  B69 d          21.690  48.937  35.566  0.00  0.00     0.033 H 
ATOM     26  H7  B69 d          23.278  49.386  34.857  0.00  0.00     0.033 H 
BRANCH  24  27
ATOM     27  CAP B69 d          22.973  50.078  36.889  0.00  0.00    -0.068 C 
ATOM     28  H4  B69 d          22.182  50.603  37.445  0.00  0.00     0.032 H 
ATOM     29  H5  B69 d          23.232  49.147  37.414  0.00  0.00     0.032 H 
BRANCH  27  30
ATOM     30  CAA B69 d          24.212  50.972  36.828  0.00  0.00    -0.077 C 
ATOM     31  H1  B69 d          23.940  51.996  37.124  0.00  0.00     0.027 H 
ATOM     32  H2  B69 d          24.608  50.980  35.802  0.00  0.00     0.027 H 
ATOM     33  H3  B69 d          24.979  50.583  37.514  0.00  0.00     0.027 H 
ENDBRANCH  27  30
ENDBRANCH  24  27
ENDBRANCH  21  24
ENDBRANCH  15  21
ENDBRANCH   1  11
BRANCH   6  34
ATOM     34  CAT B69 d          14.797  56.281  39.645  0.00  0.00    -0.041 C 
ATOM     35  H18 B69 d          14.975  56.116  40.718  0.00  0.00     0.040 H 
ATOM     36  H19 B69 d          13.768  55.987  39.394  0.00  0.00     0.040 H 
BRANCH  34  37
ATOM     37  CAR B69 d          14.979  57.768  39.334  0.00  0.00    -0.059 C 
ATOM     38  H20 B69 d          15.284  57.880  38.284  0.00  0.00     0.033 H 
ATOM     39  H21 B69 d          15.761  58.179  39.990  0.00  0.00     0.033 H 
BRANCH  37  40
ATOM     40  CAU B69 d          13.678  58.541  39.562  0.00  0.00    -0.034 C 
ATOM     41  H22 B69 d          13.859  59.315  40.322  0.00  0.00     0.036 H 
ATOM     42  H23 B69 d          12.912  57.840  39.926  0.00  0.00     0.036 H 
BRANCH  40  43
ATOM     43  CAZ B69 d          13.157  59.217  38.293  0.00  0.00     0.169 C 
ATOM     44  H24 B69 d          13.961  59.824  37.853  0.00  0.00     0.090 H 
BRANCH  43  45
ATOM     45  PBA B69 d          11.730  60.311  38.681  0.00  0.00     0.281 P 
ATOM     46  OAC B69 d          10.820  59.551  39.772  0.00  0.00    -0.639 OA
ATOM     47  OAD B69 d          12.348  61.606  39.410  0.00  0.00    -0.639 OA
ATOM     48  OAB B69 d          10.957  60.647  37.464  0.00  0.00    -0.639 OA
ENDBRANCH  43  45
BRANCH  43  49
ATOM     49  SBB B69 d          12.652  57.927  37.096  0.00  0.00     0.119 S 
ATOM     50  OAG B69 d          11.889  56.928  37.776  0.00  0.00    -0.594 OA
ATOM     51  OAF B69 d          13.875  57.306  36.491  0.00  0.00    -0.594 OA
ATOM     52  OAE B69 d          11.824  58.558  36.014  0.00  0.00    -0.594 OA
ENDBRANCH  43  49
ENDBRANCH  40  43
ENDBRANCH  37  40
ENDBRANCH  34  37
ENDBRANCH   6  34
TORSDOF 11
ENDMDL
MODEL 6
REMARK VINA RESULT:      -7.1      6.120     10.492
REMARK  11 active torsions:
REMARK  status: ('A' for Active; 'I' for Inactive)
REMARK    1  A    between atoms: CAA_1  and  CAP_2 
REMARK    2  A    between atoms: CAP_2  and  CAQ_3 
REMARK    3  A    between atoms: CAQ_3  and  CAS_4 
REMARK    4  A    between atoms: CAS_4  and  CAV_5 
REMARK    5  A    between atoms: CAX_10  and  CAY_11 
REMARK    6  A    between atoms: CAW_16  and  CAT_17 
REMARK    7  A    between atoms: CAT_17  and  CAR_18 
REMARK    8  A    between atoms: CAR_18  and  CAU_19 
REMARK    9  A    between atoms: CAU_19  and  CAZ_20 
REMARK   10  A    between atoms: CAZ_20  and  PBA_21 
REMARK   11  A    between atoms: CAZ_20  and  SBB_25 
ROOT
ATOM      1  CAY B69 d          17.209  54.980  37.038  0.00  0.00    -0.026 A 
ATOM      2  CAO B69 d          16.416  55.034  38.181  0.00  0.00    -0.072 A 
ATOM      3  CAK B69 d          15.177  55.667  38.134  0.00  0.00    -0.076 A 
ATOM      4  CAN B69 d          16.768  55.577  35.864  0.00  0.00    -0.072 A 
ATOM      5  CAJ B69 d          15.529  56.208  35.818  0.00  0.00    -0.076 A 
ATOM      6  CAW B69 d          14.729  56.248  36.955  0.00  0.00    -0.058 A 
ATOM      7  H14 B69 d          16.762  54.584  39.104  0.00  0.00     0.084 H 
ATOM      8  H15 B69 d          14.559  55.707  39.024  0.00  0.00     0.084 H 
ATOM      9  H16 B69 d          17.393  55.551  34.979  0.00  0.00     0.084 H 
ATOM     10  H17 B69 d          15.187  56.668  34.897  0.00  0.00     0.084 H 
ENDROOT
BRANCH   1  11
ATOM     11  CAX B69 d          18.381  54.231  37.042  0.00  0.00    -0.026 A 
ATOM     12  CAM B69 d          18.407  52.932  37.538  0.00  0.00    -0.072 A 
ATOM     13  CAI B69 d          19.610  52.238  37.610  0.00  0.00    -0.076 A 
ATOM     14  H11 B69 d          17.490  52.460  37.868  0.00  0.00     0.084 H 
ATOM     15  CAV B69 d          20.793  52.830  37.177  0.00  0.00    -0.058 A 
ATOM     16  H10 B69 d          19.627  51.229  38.006  0.00  0.00     0.084 H 
ATOM     17  CAH B69 d          20.768  54.133  36.697  0.00  0.00    -0.076 A 
ATOM     18  CAL B69 d          19.566  54.828  36.626  0.00  0.00    -0.072 A 
ATOM     19  H12 B69 d          21.687  54.610  36.377  0.00  0.00     0.084 H 
ATOM     20  H13 B69 d          19.552  55.843  36.244  0.00  0.00     0.084 H 
BRANCH  15  21
ATOM     21  CAS B69 d          22.050  51.982  36.967  0.00  0.00    -0.041 C 
ATOM     22  H8  B69 d          22.709  52.524  36.273  0.00  0.00     0.040 H 
ATOM     23  H9  B69 d          22.551  51.877  37.941  0.00  0.00     0.040 H 
BRANCH  21  24
ATOM     24  CAQ B69 d          21.828  50.578  36.401  0.00  0.00    -0.062 C 
ATOM     25  H6  B69 d          22.741  49.978  36.521  0.00  0.00     0.033 H 
ATOM     26  H7  B69 d          20.996  50.090  36.931  0.00  0.00     0.033 H 
BRANCH  24  27
ATOM     27  CAP B69 d          21.488  50.717  34.914  0.00  0.00    -0.068 C 
ATOM     28  H4  B69 d          21.445  51.786  34.658  0.00  0.00     0.032 H 
ATOM     29  H5  B69 d          22.277  50.230  34.322  0.00  0.00     0.032 H 
BRANCH  27  30
ATOM     30  CAA B69 d          20.144  50.073  34.572  0.00  0.00    -0.077 C 
ATOM     31  H1  B69 d          20.116  49.049  34.974  0.00  0.00     0.027 H 
ATOM     32  H2  B69 d          20.020  50.041  33.479  0.00  0.00     0.027 H 
ATOM     33  H3  B69 d          19.330  50.664  35.016  0.00  0.00     0.027 H 
ENDBRANCH  27  30
ENDBRANCH  24  27
ENDBRANCH  21  24
ENDBRANCH  15  21
ENDBRANCH   1  11
BRANCH   6  34
ATOM     34  CAT B69 d          13.341  56.898  36.911  0.00  0.00    -0.041 C 
ATOM     35  H18 B69 d          12.620  56.173  36.505  0.00  0.00     0.040 H 
ATOM     36  H19 B69 d          13.381  57.782  36.259  0.00  0.00     0.040 H 
BRANCH  34  37
ATOM     37  CAR B69 d          12.880  57.329  38.305  0.00  0.00    -0.059 C 
ATOM     38  H20 B69 d          13.602  58.049  38.715  0.00  0.00     0.033 H 
ATOM     39  H21 B69 d          12.833  56.444  38.957  0.00  0.00     0.033 H 
BRANCH  37  40
ATOM     40  CAU B69 d          11.498  57.983  38.250  0.00  0.00    -0.034 C 
ATOM     41  H22 B69 d          10.777  57.322  38.752  0.00  0.00     0.036 H 
ATOM     42  H23 B69 d          11.210  58.106  37.195  0.00  0.00     0.036 H 
BRANCH  40  43
ATOM     43  CAZ B69 d          11.459  59.352  38.929  0.00  0.00     0.169 C 
ATOM     44  H24 B69 d          11.296  59.214  40.008  0.00  0.00     0.090 H 
BRANCH  43  45
ATOM     45  PBA B69 d          10.091  60.376  38.248  0.00  0.00     0.281 P 
ATOM     46  OAC B69 d          10.398  60.615  36.685  0.00  0.00    -0.639 OA
ATOM     47  OAD B69 d           8.769  59.461  38.328  0.00  0.00    -0.639 OA
ATOM     48  OAB B69 d           9.954  61.655  38.980  0.00  0.00    -0.639 OA
ENDBRANCH  43  45
BRANCH  43  49
ATOM     49  SBB B69 d          13.064  60.193  38.665  0.00  0.00     0.119 S 
ATOM     50  OAG B69 d          13.348  60.234  37.265  0.00  0.00    -0.594 OA
ATOM     51  OAF B69 d          14.144  59.437  39.379  0.00  0.00    -0.594 OA
ATOM     52  OAE B69 d          12.984  61.589  39.214  0.00  0.00    -0.594 OA
ENDBRANCH  43  49
ENDBRANCH  40  43
ENDBRANCH  37  40
ENDBRANCH  34  37
ENDBRANCH   6  34
TORSDOF 11
ENDMDL
