MODEL 1
REMARK VINA RESULT:      -7.7      0.000      0.000
REMARK  16 active torsions:
REMARK  status: ('A' for Active; 'I' for Inactive)
REMARK    1  A    between atoms: PA_1  and  O5_4 
REMARK    2  A    between atoms: O3A_8  and  PA_1 
REMARK    3  A    between atoms: O5_4  and  C5_23 
REMARK    4  A    between atoms: PB_5  and  O3A_8 
REMARK    5  A    between atoms: O3_38  and  PB_5 
REMARK    6  A    between atoms: O3_30  and  PG_9 
REMARK    7  A    between atoms: C1_26  and  N9A_13 
REMARK    8  A    between atoms: C5_23  and  C4_24 
REMARK    9  A    between atoms: C2_27  and  O2_28 
REMARK   10  A    between atoms: C3_29  and  O3_30 
REMARK   11  A    between atoms: C5_32  and  O5_31 
REMARK   12  A    between atoms: O5_31  and  PD_39 
REMARK   13  A    between atoms: C4_33  and  C5_32 
REMARK   14  A    between atoms: C1_35  and  N1T_43 
REMARK   15  A    between atoms: C3_37  and  O3_38 
REMARK   16  A    between atoms: C5T_50  and  CM5_51 
ROOT
ATOM      1  PA  PAX d         -30.292 -29.382  17.267  0.00  0.00     0.417 P 
ATOM      2  O1A PAX d         -31.462 -30.161  17.874  0.00  0.00    -0.624 OA
ATOM      3  O2A PAX d         -30.403 -29.042  15.777  0.00  0.00    -0.624 OA
ENDROOT
BRANCH   1   4
ATOM      4  O5  PAX d         -30.030 -28.027  18.064  0.00  0.00    -0.287 OA
BRANCH   4   5
ATOM      5  C5  PAX d         -30.996 -27.506  18.950  0.00  0.00     0.058 C 
ATOM      6  H5  PAX d         -30.548 -27.378  19.947  0.00  0.00     0.079 H 
ATOM      7  H6  PAX d         -31.845 -28.202  19.017  0.00  0.00     0.079 H 
BRANCH   5   8
ATOM      8  C4  PAX d         -31.474 -26.182  18.445  0.00  0.00     0.090 C 
ATOM      9  O4  PAX d         -30.363 -25.433  17.849  0.00  0.00    -0.353 OA
ATOM     10  C1  PAX d         -30.875 -24.670  16.779  0.00  0.00     0.140 C 
ATOM     11  C2  PAX d         -31.874 -25.649  16.133  0.00  0.00     0.106 C 
ATOM     12  H8  PAX d         -31.444 -23.814  17.170  0.00  0.00     0.122 H 
ATOM     13  C3  PAX d         -32.546 -26.288  17.358  0.00  0.00     0.107 C 
ATOM     14  H9  PAX d         -31.324 -26.422  15.576  0.00  0.00     0.093 H 
ATOM     15  H11 PAX d         -32.839 -27.329  17.159  0.00  0.00     0.092 H 
ATOM     16  H7  PAX d         -31.885 -25.619  19.296  0.00  0.00     0.090 H 
BRANCH  10  17
ATOM     17  N9A PAX d         -29.766 -24.097  15.955  0.00  0.00    -0.294 N 
ATOM     18  C4A PAX d         -28.965 -24.672  14.975  0.00  0.00     0.167 A 
ATOM     19  N3A PAX d         -29.001 -25.959  14.507  0.00  0.00    -0.222 NA
ATOM     20  C5A PAX d         -28.094 -23.646  14.546  0.00  0.00     0.149 A 
ATOM     21  C2A PAX d         -28.062 -26.178  13.534  0.00  0.00     0.091 A 
ATOM     22  N1A PAX d         -27.157 -25.284  13.023  0.00  0.00    -0.222 NA
ATOM     23  H1  PAX d         -28.032 -27.178  13.118  0.00  0.00     0.146 H 
ATOM     24  C6A PAX d         -27.148 -23.996  13.514  0.00  0.00     0.155 A 
ATOM     25  N6A PAX d         -26.266 -23.140  13.006  0.00  0.00    -0.382 N 
ATOM     26  H2  PAX d         -26.233 -22.170  13.350  0.00  0.00     0.157 HD
ATOM     27  H3  PAX d         -25.617 -23.447  12.267  0.00  0.00     0.157 HD
ATOM     28  N7A PAX d         -28.342 -22.471  15.239  0.00  0.00    -0.236 NA
ATOM     29  C8A PAX d         -29.331 -22.785  16.052  0.00  0.00     0.071 A 
ATOM     30  H4  PAX d         -29.771 -22.070  16.745  0.00  0.00     0.144 H 
ENDBRANCH  10  17
BRANCH  11  31
ATOM     31  O2  PAX d         -32.768 -25.031  15.218  0.00  0.00    -0.388 OA
ATOM     32  H10 PAX d         -33.274 -24.366  15.671  0.00  0.00     0.210 HD
ENDBRANCH  11  31
BRANCH  13  33
ATOM     33  O3  PAX d         -33.671 -25.521  17.799  0.00  0.00    -0.272 OA
BRANCH  33  34
ATOM     34  PG  PAX d         -34.976 -26.209  18.505  0.00  0.00     0.422 P 
ATOM     35  O1G PAX d         -34.694 -26.238  20.006  0.00  0.00    -0.617 OA
ATOM     36  O2G PAX d         -36.153 -25.320  18.126  0.00  0.00    -0.617 OA
ATOM     37  O3G PAX d         -35.146 -27.632  17.943  0.00  0.00    -0.617 OA
ENDBRANCH  33  34
ENDBRANCH  13  33
ENDBRANCH   5   8
ENDBRANCH   4   5
ENDBRANCH   1   4
BRANCH   1  38
ATOM     38  O3A PAX d         -28.931 -30.154  17.525  0.00  0.00    -0.180 OA
BRANCH  38  39
ATOM     39  PB  PAX d         -28.189 -30.657  18.825  0.00  0.00     0.418 P 
ATOM     40  O1B PAX d         -27.099 -29.717  19.146  0.00  0.00    -0.624 OA
ATOM     41  O2B PAX d         -29.216 -30.936  19.854  0.00  0.00    -0.624 OA
BRANCH  39  42
ATOM     42  O3  PAX d         -27.643 -32.125  18.383  0.00  0.00    -0.281 OA
BRANCH  42  43
ATOM     43  C3  PAX d         -26.921 -32.319  17.165  0.00  0.00     0.081 C 
ATOM     44  C4  PAX d         -27.091 -33.770  16.702  0.00  0.00     0.087 C 
ATOM     45  O4  PAX d         -25.827 -34.439  16.964  0.00  0.00    -0.356 OA
ATOM     46  H14 PAX d         -27.886 -34.241  17.298  0.00  0.00     0.090 H 
ATOM     47  C1  PAX d         -25.005 -33.601  17.751  0.00  0.00     0.116 C 
ATOM     48  C2  PAX d         -25.430 -32.176  17.419  0.00  0.00     0.003 C 
ATOM     49  H15 PAX d         -25.174 -33.798  18.820  0.00  0.00     0.118 H 
ATOM     50  H16 PAX d         -24.909 -31.807  16.523  0.00  0.00     0.043 H 
ATOM     51  H17 PAX d         -25.235 -31.498  18.263  0.00  0.00     0.043 H 
ATOM     52  H18 PAX d         -27.266 -31.608  16.399  0.00  0.00     0.088 H 
BRANCH  44  53
ATOM     53  C5  PAX d         -27.461 -33.901  15.233  0.00  0.00     0.059 C 
ATOM     54  H12 PAX d         -28.167 -34.737  15.112  0.00  0.00     0.079 H 
ATOM     55  H13 PAX d         -27.937 -32.968  14.896  0.00  0.00     0.079 H 
BRANCH  53  56
ATOM     56  O5  PAX d         -26.284 -34.152  14.426  0.00  0.00    -0.280 OA
BRANCH  56  57
ATOM     57  PD  PAX d         -25.959 -33.297  13.057  0.00  0.00     0.422 P 
ATOM     58  O1D PAX d         -24.980 -34.177  12.256  0.00  0.00    -0.617 OA
ATOM     59  O2D PAX d         -25.326 -31.964  13.515  0.00  0.00    -0.617 OA
ATOM     60  O3D PAX d         -27.307 -33.108  12.340  0.00  0.00    -0.617 OA
ENDBRANCH  56  57
ENDBRANCH  53  56
ENDBRANCH  44  53
BRANCH  47  61
ATOM     61  N1T PAX d         -23.561 -33.860  17.431  0.00  0.00    -0.282 N 
ATOM     62  C6T PAX d         -23.103 -34.002  16.096  0.00  0.00    -0.002 A 
ATOM     63  C5T PAX d         -21.807 -34.233  15.781  0.00  0.00     0.022 A 
ATOM     64  H19 PAX d         -23.828 -33.920  15.287  0.00  0.00     0.113 H 
ATOM     65  C4T PAX d         -20.822 -34.341  16.863  0.00  0.00     0.256 A 
ATOM     66  N3T PAX d         -21.338 -34.196  18.166  0.00  0.00    -0.275 N 
ATOM     67  O4T PAX d         -19.612 -34.534  16.726  0.00  0.00    -0.267 OA
ATOM     68  C2T PAX d         -22.664 -33.959  18.522  0.00  0.00     0.331 A 
ATOM     69  H20 PAX d         -20.681 -34.271  18.916  0.00  0.00     0.173 HD
ATOM     70  O2T PAX d         -23.008 -33.847  19.676  0.00  0.00    -0.246 OA
BRANCH  63  71
ATOM     71  CM5 PAX d         -21.398 -34.365  14.349  0.00  0.00    -0.045 C 
ATOM     72  H21 PAX d         -22.281 -34.253  13.703  0.00  0.00     0.033 H 
ATOM     73  H22 PAX d         -20.949 -35.356  14.186  0.00  0.00     0.033 H 
ATOM     74  H23 PAX d         -20.663 -33.585  14.103  0.00  0.00     0.033 H 
ENDBRANCH  63  71
ENDBRANCH  47  61
ENDBRANCH  42  43
ENDBRANCH  39  42
ENDBRANCH  38  39
ENDBRANCH   1  38
TORSDOF 16
ENDMDL
