MODEL 1
REMARK VINA RESULT:      -7.0      0.000      0.000
REMARK  16 active torsions:
REMARK  status: ('A' for Active; 'I' for Inactive)
REMARK    1  A    between atoms: PA_1  and  O5_4 
REMARK    2  A    between atoms: O3A_8  and  PA_1 
REMARK    3  A    between atoms: O5_4  and  C5_23 
REMARK    4  A    between atoms: PB_5  and  O3A_8 
REMARK    5  A    between atoms: O3_38  and  PB_5 
REMARK    6  A    between atoms: O3_30  and  PG_9 
REMARK    7  A    between atoms: C1_26  and  N9A_13 
REMARK    8  A    between atoms: C5_23  and  C4_24 
REMARK    9  A    between atoms: C2_27  and  O2_28 
REMARK   10  A    between atoms: C3_29  and  O3_30 
REMARK   11  A    between atoms: C5_32  and  O5_31 
REMARK   12  A    between atoms: O5_31  and  PD_39 
REMARK   13  A    between atoms: C4_33  and  C5_32 
REMARK   14  A    between atoms: C1_35  and  N1T_43 
REMARK   15  A    between atoms: C3_37  and  O3_38 
REMARK   16  A    between atoms: C5T_50  and  CM5_51 
ROOT
ATOM      1  PA  PAX d         -30.140 -31.054  18.169  0.00  0.00     0.417 P 
ATOM      2  O1A PAX d         -30.683 -32.001  19.242  0.00  0.00    -0.624 OA
ATOM      3  O2A PAX d         -29.491 -29.759  18.671  0.00  0.00    -0.624 OA
ENDROOT
BRANCH   1   4
ATOM      4  O5  PAX d         -29.091 -31.797  17.225  0.00  0.00    -0.287 OA
BRANCH   4   5
ATOM      5  C5  PAX d         -27.708 -31.750  17.496  0.00  0.00     0.058 C 
ATOM      6  H5  PAX d         -27.517 -32.165  18.497  0.00  0.00     0.079 H 
ATOM      7  H6  PAX d         -27.363 -30.706  17.459  0.00  0.00     0.079 H 
BRANCH   5   8
ATOM      8  C4  PAX d         -26.972 -32.556  16.473  0.00  0.00     0.090 C 
ATOM      9  O4  PAX d         -25.544 -32.611  16.800  0.00  0.00    -0.353 OA
ATOM     10  C1  PAX d         -25.050 -33.866  16.388  0.00  0.00     0.140 C 
ATOM     11  C2  PAX d         -26.200 -34.812  16.788  0.00  0.00     0.106 C 
ATOM     12  H8  PAX d         -24.957 -33.889  15.293  0.00  0.00     0.122 H 
ATOM     13  C3  PAX d         -27.443 -34.008  16.377  0.00  0.00     0.107 C 
ATOM     14  H9  PAX d         -26.200 -34.951  17.878  0.00  0.00     0.093 H 
ATOM     15  H11 PAX d         -28.294 -34.217  17.042  0.00  0.00     0.092 H 
ATOM     16  H7  PAX d         -27.108 -32.072  15.494  0.00  0.00     0.090 H 
BRANCH  10  17
ATOM     17  N9A PAX d         -23.677 -34.104  16.933  0.00  0.00    -0.294 N 
ATOM     18  C4A PAX d         -22.448 -34.216  16.294  0.00  0.00     0.167 A 
ATOM     19  N3A PAX d         -22.185 -34.130  14.952  0.00  0.00    -0.222 NA
ATOM     20  C5A PAX d         -21.504 -34.434  17.323  0.00  0.00     0.149 A 
ATOM     21  C2A PAX d         -20.853 -34.287  14.679  0.00  0.00     0.091 A 
ATOM     22  N1A PAX d         -19.832 -34.505  15.568  0.00  0.00    -0.222 NA
ATOM     23  H1  PAX d         -20.571 -34.233  13.633  0.00  0.00     0.146 H 
ATOM     24  C6A PAX d         -20.129 -34.584  16.912  0.00  0.00     0.155 A 
ATOM     25  N6A PAX d         -19.128 -34.791  17.761  0.00  0.00    -0.382 N 
ATOM     26  H2  PAX d         -19.314 -34.855  18.772  0.00  0.00     0.157 HD
ATOM     27  H3  PAX d         -18.164 -34.888  17.409  0.00  0.00     0.157 HD
ATOM     28  N7A PAX d         -22.126 -34.459  18.561  0.00  0.00    -0.236 NA
ATOM     29  C8A PAX d         -23.399 -34.261  18.281  0.00  0.00     0.071 A 
ATOM     30  H4  PAX d         -24.170 -34.224  19.049  0.00  0.00     0.144 H 
ENDBRANCH  10  17
BRANCH  11  31
ATOM     31  O2  PAX d         -26.105 -36.103  16.201  0.00  0.00    -0.388 OA
ATOM     32  H10 PAX d         -25.191 -36.317  16.054  0.00  0.00     0.210 HD
ENDBRANCH  11  31
BRANCH  13  33
ATOM     33  O3  PAX d         -27.796 -34.247  15.012  0.00  0.00    -0.272 OA
BRANCH  33  34
ATOM     34  PG  PAX d         -29.335 -34.549  14.545  0.00  0.00     0.422 P 
ATOM     35  O1G PAX d         -30.212 -34.342  15.778  0.00  0.00    -0.617 OA
ATOM     36  O2G PAX d         -29.618 -33.557  13.425  0.00  0.00    -0.617 OA
ATOM     37  O3G PAX d         -29.419 -36.001  14.040  0.00  0.00    -0.617 OA
ENDBRANCH  33  34
ENDBRANCH  13  33
ENDBRANCH   5   8
ENDBRANCH   4   5
ENDBRANCH   1   4
BRANCH   1  38
ATOM     38  O3A PAX d         -31.282 -30.695  17.130  0.00  0.00    -0.180 OA
BRANCH  38  39
ATOM     39  PB  PAX d         -31.353 -30.656  15.553  0.00  0.00     0.418 P 
ATOM     40  O1B PAX d         -29.981 -30.589  15.016  0.00  0.00    -0.624 OA
ATOM     41  O2B PAX d         -32.239 -31.758  15.112  0.00  0.00    -0.624 OA
BRANCH  39  42
ATOM     42  O3  PAX d         -32.208 -29.302  15.264  0.00  0.00    -0.281 OA
BRANCH  42  43
ATOM     43  C3  PAX d         -31.833 -28.045  15.831  0.00  0.00     0.081 C 
ATOM     44  C4  PAX d         -32.564 -26.919  15.092  0.00  0.00     0.087 C 
ATOM     45  O4  PAX d         -31.574 -26.261  14.254  0.00  0.00    -0.356 OA
ATOM     46  H14 PAX d         -33.346 -27.361  14.457  0.00  0.00     0.090 H 
ATOM     47  C1  PAX d         -30.387 -27.029  14.238  0.00  0.00     0.116 C 
ATOM     48  C2  PAX d         -30.361 -27.777  15.565  0.00  0.00     0.003 C 
ATOM     49  H15 PAX d         -30.411 -27.749  13.407  0.00  0.00     0.118 H 
ATOM     50  H16 PAX d         -29.921 -27.156  16.361  0.00  0.00     0.043 H 
ATOM     51  H17 PAX d         -29.796 -28.717  15.479  0.00  0.00     0.043 H 
ATOM     52  H18 PAX d         -32.054 -28.031  16.908  0.00  0.00     0.088 H 
BRANCH  44  53
ATOM     53  C5  PAX d         -33.222 -25.909  16.020  0.00  0.00     0.059 C 
ATOM     54  H12 PAX d         -33.321 -24.947  15.494  0.00  0.00     0.079 H 
ATOM     55  H13 PAX d         -34.220 -26.276  16.302  0.00  0.00     0.079 H 
BRANCH  53  56
ATOM     56  O5  PAX d         -32.430 -25.718  17.217  0.00  0.00    -0.280 OA
BRANCH  56  57
ATOM     57  PD  PAX d         -32.611 -24.403  18.190  0.00  0.00     0.422 P 
ATOM     58  O1D PAX d         -32.065 -23.217  17.371  0.00  0.00    -0.617 OA
ATOM     59  O2D PAX d         -31.781 -24.683  19.464  0.00  0.00    -0.617 OA
ATOM     60  O3D PAX d         -34.120 -24.282  18.471  0.00  0.00    -0.617 OA
ENDBRANCH  56  57
ENDBRANCH  53  56
ENDBRANCH  44  53
BRANCH  47  61
ATOM     61  N1T PAX d         -29.201 -26.125  14.064  0.00  0.00    -0.282 N 
ATOM     62  C6T PAX d         -29.136 -24.846  14.675  0.00  0.00    -0.002 A 
ATOM     63  C5T PAX d         -28.078 -24.015  14.535  0.00  0.00     0.022 A 
ATOM     64  H19 PAX d         -29.978 -24.519  15.284  0.00  0.00     0.113 H 
ATOM     65  C4T PAX d         -26.937 -24.447  13.719  0.00  0.00     0.256 A 
ATOM     66  N3T PAX d         -27.062 -25.723  13.136  0.00  0.00    -0.275 N 
ATOM     67  O4T PAX d         -25.905 -23.804  13.517  0.00  0.00    -0.267 OA
ATOM     68  C2T PAX d         -28.137 -26.601  13.259  0.00  0.00     0.331 A 
ATOM     69  H20 PAX d         -26.296 -26.032  12.573  0.00  0.00     0.173 HD
ATOM     70  O2T PAX d         -28.148 -27.682  12.718  0.00  0.00    -0.246 OA
BRANCH  63  71
ATOM     71  CM5 PAX d         -28.079 -22.682  15.215  0.00  0.00    -0.045 C 
ATOM     72  H21 PAX d         -28.025 -22.826  16.304  0.00  0.00     0.033 H 
ATOM     73  H22 PAX d         -29.004 -22.143  14.962  0.00  0.00     0.033 H 
ATOM     74  H23 PAX d         -27.210 -22.098  14.879  0.00  0.00     0.033 H 
ENDBRANCH  63  71
ENDBRANCH  47  61
ENDBRANCH  42  43
ENDBRANCH  39  42
ENDBRANCH  38  39
ENDBRANCH   1  38
TORSDOF 16
ENDMDL
MODEL 2
REMARK VINA RESULT:      -6.5      2.989      9.483
REMARK  16 active torsions:
REMARK  status: ('A' for Active; 'I' for Inactive)
REMARK    1  A    between atoms: PA_1  and  O5_4 
REMARK    2  A    between atoms: O3A_8  and  PA_1 
REMARK    3  A    between atoms: O5_4  and  C5_23 
REMARK    4  A    between atoms: PB_5  and  O3A_8 
REMARK    5  A    between atoms: O3_38  and  PB_5 
REMARK    6  A    between atoms: O3_30  and  PG_9 
REMARK    7  A    between atoms: C1_26  and  N9A_13 
REMARK    8  A    between atoms: C5_23  and  C4_24 
REMARK    9  A    between atoms: C2_27  and  O2_28 
REMARK   10  A    between atoms: C3_29  and  O3_30 
REMARK   11  A    between atoms: C5_32  and  O5_31 
REMARK   12  A    between atoms: O5_31  and  PD_39 
REMARK   13  A    between atoms: C4_33  and  C5_32 
REMARK   14  A    between atoms: C1_35  and  N1T_43 
REMARK   15  A    between atoms: C3_37  and  O3_38 
REMARK   16  A    between atoms: C5T_50  and  CM5_51 
ROOT
ATOM      1  PA  PAX d         -30.708 -28.076  18.279  0.00  0.00     0.417 P 
ATOM      2  O1A PAX d         -29.888 -28.318  17.009  0.00  0.00    -0.624 OA
ATOM      3  O2A PAX d         -30.157 -28.690  19.570  0.00  0.00    -0.624 OA
ENDROOT
BRANCH   1   4
ATOM      4  O5  PAX d         -30.930 -26.518  18.529  0.00  0.00    -0.287 OA
BRANCH   4   5
ATOM      5  C5  PAX d         -32.189 -25.919  18.319  0.00  0.00     0.058 C 
ATOM      6  H5  PAX d         -32.389 -25.193  19.122  0.00  0.00     0.079 H 
ATOM      7  H6  PAX d         -32.969 -26.694  18.322  0.00  0.00     0.079 H 
BRANCH   5   8
ATOM      8  C4  PAX d         -32.192 -25.214  16.999  0.00  0.00     0.090 C 
ATOM      9  O4  PAX d         -30.846 -25.217  16.417  0.00  0.00    -0.353 OA
ATOM     10  C1  PAX d         -30.976 -25.295  15.015  0.00  0.00     0.140 C 
ATOM     11  C2  PAX d         -32.133 -26.302  14.854  0.00  0.00     0.106 C 
ATOM     12  H8  PAX d         -31.312 -24.326  14.618  0.00  0.00     0.122 H 
ATOM     13  C3  PAX d         -33.107 -25.861  15.957  0.00  0.00     0.107 C 
ATOM     14  H9  PAX d         -31.770 -27.317  15.073  0.00  0.00     0.093 H 
ATOM     15  H11 PAX d         -33.667 -26.716  16.365  0.00  0.00     0.092 H 
ATOM     16  H7  PAX d         -32.520 -24.177  17.165  0.00  0.00     0.090 H 
BRANCH  10  17
ATOM     17  N9A PAX d         -29.657 -25.580  14.372  0.00  0.00    -0.294 N 
ATOM     18  C4A PAX d         -28.556 -24.762  14.143  0.00  0.00     0.167 A 
ATOM     19  N3A PAX d         -28.410 -23.439  14.466  0.00  0.00    -0.222 NA
ATOM     20  C5A PAX d         -27.600 -25.582  13.503  0.00  0.00     0.149 A 
ATOM     21  C2A PAX d         -27.186 -22.951  14.091  0.00  0.00     0.091 A 
ATOM     22  N1A PAX d         -26.169 -23.625  13.466  0.00  0.00    -0.222 NA
ATOM     23  H1  PAX d         -27.000 -21.907  14.315  0.00  0.00     0.146 H 
ATOM     24  C6A PAX d         -26.347 -24.956  13.155  0.00  0.00     0.155 A 
ATOM     25  N6A PAX d         -25.350 -25.596  12.553  0.00  0.00    -0.382 N 
ATOM     26  H2  PAX d         -25.450 -26.591  12.307  0.00  0.00     0.157 HD
ATOM     27  H3  PAX d         -24.476 -25.097  12.331  0.00  0.00     0.157 HD
ATOM     28  N7A PAX d         -28.090 -26.868  13.336  0.00  0.00    -0.236 NA
ATOM     29  C8A PAX d         -29.298 -26.818  13.861  0.00  0.00     0.071 A 
ATOM     30  H4  PAX d         -29.962 -27.680  13.892  0.00  0.00     0.144 H 
ENDBRANCH  10  17
BRANCH  11  31
ATOM     31  O2  PAX d         -32.687 -26.328  13.545  0.00  0.00    -0.388 OA
ATOM     32  H10 PAX d         -32.118 -26.828  12.971  0.00  0.00     0.210 HD
ENDBRANCH  11  31
BRANCH  13  33
ATOM     33  O3  PAX d         -34.002 -24.846  15.493  0.00  0.00    -0.272 OA
BRANCH  33  34
ATOM     34  PG  PAX d         -34.971 -24.004  16.506  0.00  0.00     0.422 P 
ATOM     35  O1G PAX d         -36.002 -23.293  15.631  0.00  0.00    -0.617 OA
ATOM     36  O2G PAX d         -35.579 -25.042  17.439  0.00  0.00    -0.617 OA
ATOM     37  O3G PAX d         -34.108 -22.991  17.282  0.00  0.00    -0.617 OA
ENDBRANCH  33  34
ENDBRANCH  13  33
ENDBRANCH   5   8
ENDBRANCH   4   5
ENDBRANCH   1   4
BRANCH   1  38
ATOM     38  O3A PAX d         -32.201 -28.565  18.065  0.00  0.00    -0.180 OA
BRANCH  38  39
ATOM     39  PB  PAX d         -32.850 -29.829  17.377  0.00  0.00     0.418 P 
ATOM     40  O1B PAX d         -34.205 -30.027  17.925  0.00  0.00    -0.624 OA
ATOM     41  O2B PAX d         -32.687 -29.683  15.913  0.00  0.00    -0.624 OA
BRANCH  39  42
ATOM     42  O3  PAX d         -31.827 -31.027  17.786  0.00  0.00    -0.281 OA
BRANCH  42  43
ATOM     43  C3  PAX d         -31.120 -31.776  16.795  0.00  0.00     0.081 C 
ATOM     44  C4  PAX d         -31.347 -33.273  17.037  0.00  0.00     0.087 C 
ATOM     45  O4  PAX d         -30.107 -33.796  17.588  0.00  0.00    -0.356 OA
ATOM     46  H14 PAX d         -32.155 -33.395  17.773  0.00  0.00     0.090 H 
ATOM     47  C1  PAX d         -29.250 -32.723  17.920  0.00  0.00     0.116 C 
ATOM     48  C2  PAX d         -29.623 -31.588  16.975  0.00  0.00     0.003 C 
ATOM     49  H15 PAX d         -29.419 -32.409  18.961  0.00  0.00     0.118 H 
ATOM     50  H16 PAX d         -29.094 -31.683  16.015  0.00  0.00     0.043 H 
ATOM     51  H17 PAX d         -29.398 -30.609  17.423  0.00  0.00     0.043 H 
ATOM     52  H18 PAX d         -31.443 -31.478  15.787  0.00  0.00     0.088 H 
BRANCH  44  53
ATOM     53  C5  PAX d         -31.730 -34.041  15.782  0.00  0.00     0.059 C 
ATOM     54  H12 PAX d         -31.530 -33.414  14.900  0.00  0.00     0.079 H 
ATOM     55  H13 PAX d         -31.128 -34.960  15.723  0.00  0.00     0.079 H 
BRANCH  53  56
ATOM     56  O5  PAX d         -33.135 -34.395  15.804  0.00  0.00    -0.280 OA
BRANCH  56  57
ATOM     57  PD  PAX d         -34.244 -33.651  14.841  0.00  0.00     0.422 P 
ATOM     58  O1D PAX d         -33.476 -33.273  13.560  0.00  0.00    -0.617 OA
ATOM     59  O2D PAX d         -34.745 -32.417  15.624  0.00  0.00    -0.617 OA
ATOM     60  O3D PAX d         -35.350 -34.689  14.581  0.00  0.00    -0.617 OA
ENDBRANCH  56  57
ENDBRANCH  53  56
ENDBRANCH  44  53
BRANCH  47  61
ATOM     61  N1T PAX d         -27.818 -33.150  17.769  0.00  0.00    -0.282 N 
ATOM     62  C6T PAX d         -27.158 -33.126  16.514  0.00  0.00    -0.002 A 
ATOM     63  C5T PAX d         -25.868 -33.504  16.352  0.00  0.00     0.022 A 
ATOM     64  H19 PAX d         -27.714 -32.789  15.641  0.00  0.00     0.113 H 
ATOM     65  C4T PAX d         -25.108 -33.958  17.522  0.00  0.00     0.256 A 
ATOM     66  N3T PAX d         -25.820 -33.964  18.738  0.00  0.00    -0.275 N 
ATOM     67  O4T PAX d         -23.928 -34.316  17.527  0.00  0.00    -0.267 OA
ATOM     68  C2T PAX d         -27.145 -33.583  18.937  0.00  0.00     0.331 A 
ATOM     69  H20 PAX d         -25.319 -34.275  19.546  0.00  0.00     0.173 HD
ATOM     70  O2T PAX d         -27.667 -33.622  20.028  0.00  0.00    -0.246 OA
BRANCH  63  71
ATOM     71  CM5 PAX d         -25.237 -33.446  14.997  0.00  0.00    -0.045 C 
ATOM     72  H21 PAX d         -25.947 -33.820  14.246  0.00  0.00     0.033 H 
ATOM     73  H22 PAX d         -24.331 -34.071  14.988  0.00  0.00     0.033 H 
ATOM     74  H23 PAX d         -24.968 -32.406  14.762  0.00  0.00     0.033 H 
ENDBRANCH  63  71
ENDBRANCH  47  61
ENDBRANCH  42  43
ENDBRANCH  39  42
ENDBRANCH  38  39
ENDBRANCH   1  38
TORSDOF 16
ENDMDL
MODEL 3
REMARK VINA RESULT:      -5.9      1.488      1.796
REMARK  16 active torsions:
REMARK  status: ('A' for Active; 'I' for Inactive)
REMARK    1  A    between atoms: PA_1  and  O5_4 
REMARK    2  A    between atoms: O3A_8  and  PA_1 
REMARK    3  A    between atoms: O5_4  and  C5_23 
REMARK    4  A    between atoms: PB_5  and  O3A_8 
REMARK    5  A    between atoms: O3_38  and  PB_5 
REMARK    6  A    between atoms: O3_30  and  PG_9 
REMARK    7  A    between atoms: C1_26  and  N9A_13 
REMARK    8  A    between atoms: C5_23  and  C4_24 
REMARK    9  A    between atoms: C2_27  and  O2_28 
REMARK   10  A    between atoms: C3_29  and  O3_30 
REMARK   11  A    between atoms: C5_32  and  O5_31 
REMARK   12  A    between atoms: O5_31  and  PD_39 
REMARK   13  A    between atoms: C4_33  and  C5_32 
REMARK   14  A    between atoms: C1_35  and  N1T_43 
REMARK   15  A    between atoms: C3_37  and  O3_38 
REMARK   16  A    between atoms: C5T_50  and  CM5_51 
ROOT
ATOM      1  PA  PAX d         -32.311 -32.706  17.718  0.00  0.00     0.417 P 
ATOM      2  O1A PAX d         -32.124 -34.212  17.922  0.00  0.00    -0.624 OA
ATOM      3  O2A PAX d         -33.183 -31.984  18.751  0.00  0.00    -0.624 OA
ENDROOT
BRANCH   1   4
ATOM      4  O5  PAX d         -30.904 -31.958  17.652  0.00  0.00    -0.287 OA
BRANCH   4   5
ATOM      5  C5  PAX d         -29.720 -32.596  18.075  0.00  0.00     0.058 C 
ATOM      6  H5  PAX d         -29.966 -33.581  18.500  0.00  0.00     0.079 H 
ATOM      7  H6  PAX d         -29.226 -31.980  18.840  0.00  0.00     0.079 H 
BRANCH   5   8
ATOM      8  C4  PAX d         -28.803 -32.772  16.907  0.00  0.00     0.090 C 
ATOM      9  O4  PAX d         -27.405 -32.698  17.341  0.00  0.00    -0.353 OA
ATOM     10  C1  PAX d         -26.648 -33.568  16.529  0.00  0.00     0.140 C 
ATOM     11  C2  PAX d         -27.586 -34.783  16.397  0.00  0.00     0.106 C 
ATOM     12  H8  PAX d         -26.520 -33.127  15.530  0.00  0.00     0.122 H 
ATOM     13  C3  PAX d         -28.957 -34.119  16.199  0.00  0.00     0.107 C 
ATOM     14  H9  PAX d         -27.589 -35.350  17.339  0.00  0.00     0.093 H 
ATOM     15  H11 PAX d         -29.766 -34.729  16.630  0.00  0.00     0.092 H 
ATOM     16  H7  PAX d         -29.008 -31.966  16.187  0.00  0.00     0.090 H 
BRANCH  10  17
ATOM     17  N9A PAX d         -25.272 -33.756  17.086  0.00  0.00    -0.294 N 
ATOM     18  C4A PAX d         -24.046 -33.924  16.453  0.00  0.00     0.167 A 
ATOM     19  N3A PAX d         -23.791 -33.960  15.107  0.00  0.00    -0.222 NA
ATOM     20  C5A PAX d         -23.097 -34.049  17.492  0.00  0.00     0.149 A 
ATOM     21  C2A PAX d         -22.459 -34.140  14.842  0.00  0.00     0.091 A 
ATOM     22  N1A PAX d         -21.434 -34.277  15.742  0.00  0.00    -0.222 NA
ATOM     23  H1  PAX d         -22.184 -34.180  13.795  0.00  0.00     0.146 H 
ATOM     24  C6A PAX d         -21.724 -34.235  17.089  0.00  0.00     0.155 A 
ATOM     25  N6A PAX d         -20.718 -34.366  17.949  0.00  0.00    -0.382 N 
ATOM     26  H2  PAX d         -20.900 -34.339  18.962  0.00  0.00     0.157 HD
ATOM     27  H3  PAX d         -19.756 -34.494  17.602  0.00  0.00     0.157 HD
ATOM     28  N7A PAX d         -23.713 -33.964  18.731  0.00  0.00    -0.236 NA
ATOM     29  C8A PAX d         -24.987 -33.792  18.441  0.00  0.00     0.071 A 
ATOM     30  H4  PAX d         -25.755 -33.686  19.206  0.00  0.00     0.144 H 
ENDBRANCH  10  17
BRANCH  11  31
ATOM     31  O2  PAX d         -27.208 -35.686  15.366  0.00  0.00    -0.388 OA
ATOM     32  H10 PAX d         -26.812 -35.201  14.651  0.00  0.00     0.210 HD
ENDBRANCH  11  31
BRANCH  13  33
ATOM     33  O3  PAX d         -29.213 -33.844  14.819  0.00  0.00    -0.272 OA
BRANCH  33  34
ATOM     34  PG  PAX d         -30.234 -34.751  13.919  0.00  0.00     0.422 P 
ATOM     35  O1G PAX d         -31.411 -35.109  14.824  0.00  0.00    -0.617 OA
ATOM     36  O2G PAX d         -30.622 -33.871  12.739  0.00  0.00    -0.617 OA
ATOM     37  O3G PAX d         -29.487 -36.014  13.453  0.00  0.00    -0.617 OA
ENDBRANCH  33  34
ENDBRANCH  13  33
ENDBRANCH   5   8
ENDBRANCH   4   5
ENDBRANCH   1   4
BRANCH   1  38
ATOM     38  O3A PAX d         -32.877 -32.418  16.266  0.00  0.00    -0.180 OA
BRANCH  38  39
ATOM     39  PB  PAX d         -32.541 -31.350  15.153  0.00  0.00     0.418 P 
ATOM     40  O1B PAX d         -31.088 -31.366  14.900  0.00  0.00    -0.624 OA
ATOM     41  O2B PAX d         -33.465 -31.572  14.018  0.00  0.00    -0.624 OA
BRANCH  39  42
ATOM     42  O3  PAX d         -33.045 -29.957  15.826  0.00  0.00    -0.281 OA
BRANCH  42  43
ATOM     43  C3  PAX d         -32.138 -29.076  16.492  0.00  0.00     0.081 C 
ATOM     44  C4  PAX d         -32.804 -27.708  16.675  0.00  0.00     0.087 C 
ATOM     45  O4  PAX d         -32.177 -26.810  15.719  0.00  0.00    -0.356 OA
ATOM     46  H14 PAX d         -33.875 -27.802  16.443  0.00  0.00     0.090 H 
ATOM     47  C1  PAX d         -31.378 -27.559  14.825  0.00  0.00     0.116 C 
ATOM     48  C2  PAX d         -30.940 -28.796  15.599  0.00  0.00     0.003 C 
ATOM     49  H15 PAX d         -31.969 -27.860  13.947  0.00  0.00     0.118 H 
ATOM     50  H16 PAX d         -30.040 -28.591  16.196  0.00  0.00     0.043 H 
ATOM     51  H17 PAX d         -30.746 -29.639  14.920  0.00  0.00     0.043 H 
ATOM     52  H18 PAX d         -31.826 -29.506  17.456  0.00  0.00     0.088 H 
BRANCH  44  53
ATOM     53  C5  PAX d         -32.672 -27.151  18.084  0.00  0.00     0.059 C 
ATOM     54  H12 PAX d         -32.993 -27.917  18.806  0.00  0.00     0.079 H 
ATOM     55  H13 PAX d         -31.621 -26.888  18.271  0.00  0.00     0.079 H 
BRANCH  53  56
ATOM     56  O5  PAX d         -33.494 -25.969  18.250  0.00  0.00    -0.280 OA
BRANCH  56  57
ATOM     57  PD  PAX d         -32.858 -24.508  18.664  0.00  0.00     0.422 P 
ATOM     58  O1D PAX d         -31.732 -24.828  19.665  0.00  0.00    -0.617 OA
ATOM     59  O2D PAX d         -34.009 -23.694  19.298  0.00  0.00    -0.617 OA
ATOM     60  O3D PAX d         -32.330 -23.886  17.359  0.00  0.00    -0.617 OA
ENDBRANCH  56  57
ENDBRANCH  53  56
ENDBRANCH  44  53
BRANCH  47  61
ATOM     61  N1T PAX d         -30.215 -26.727  14.366  0.00  0.00    -0.282 N 
ATOM     62  C6T PAX d         -29.760 -25.603  15.103  0.00  0.00    -0.002 A 
ATOM     63  C5T PAX d         -28.713 -24.839  14.712  0.00  0.00     0.022 A 
ATOM     64  H19 PAX d         -30.277 -25.343  16.025  0.00  0.00     0.113 H 
ATOM     65  C4T PAX d         -28.008 -25.182  13.472  0.00  0.00     0.256 A 
ATOM     66  N3T PAX d         -28.509 -26.305  12.783  0.00  0.00    -0.275 N 
ATOM     67  O4T PAX d         -27.034 -24.589  13.003  0.00  0.00    -0.267 OA
ATOM     68  C2T PAX d         -29.583 -27.109  13.158  0.00  0.00     0.331 A 
ATOM     69  H20 PAX d         -28.042 -26.550  11.933  0.00  0.00     0.173 HD
ATOM     70  O2T PAX d         -29.936 -28.057  12.496  0.00  0.00    -0.246 OA
BRANCH  63  71
ATOM     71  CM5 PAX d         -28.287 -23.672  15.544  0.00  0.00    -0.045 C 
ATOM     72  H21 PAX d         -27.600 -23.040  14.965  0.00  0.00     0.033 H 
ATOM     73  H22 PAX d         -27.777 -24.034  16.449  0.00  0.00     0.033 H 
ATOM     74  H23 PAX d         -29.172 -23.084  15.832  0.00  0.00     0.033 H 
ENDBRANCH  63  71
ENDBRANCH  47  61
ENDBRANCH  42  43
ENDBRANCH  39  42
ENDBRANCH  38  39
ENDBRANCH   1  38
TORSDOF 16
ENDMDL
MODEL 4
REMARK VINA RESULT:      -5.8      1.878      3.373
REMARK  16 active torsions:
REMARK  status: ('A' for Active; 'I' for Inactive)
REMARK    1  A    between atoms: PA_1  and  O5_4 
REMARK    2  A    between atoms: O3A_8  and  PA_1 
REMARK    3  A    between atoms: O5_4  and  C5_23 
REMARK    4  A    between atoms: PB_5  and  O3A_8 
REMARK    5  A    between atoms: O3_38  and  PB_5 
REMARK    6  A    between atoms: O3_30  and  PG_9 
REMARK    7  A    between atoms: C1_26  and  N9A_13 
REMARK    8  A    between atoms: C5_23  and  C4_24 
REMARK    9  A    between atoms: C2_27  and  O2_28 
REMARK   10  A    between atoms: C3_29  and  O3_30 
REMARK   11  A    between atoms: C5_32  and  O5_31 
REMARK   12  A    between atoms: O5_31  and  PD_39 
REMARK   13  A    between atoms: C4_33  and  C5_32 
REMARK   14  A    between atoms: C1_35  and  N1T_43 
REMARK   15  A    between atoms: C3_37  and  O3_38 
REMARK   16  A    between atoms: C5T_50  and  CM5_51 
ROOT
ATOM      1  PA  PAX d         -30.429 -31.669  13.288  0.00  0.00     0.417 P 
ATOM      2  O1A PAX d         -29.157 -31.308  12.516  0.00  0.00    -0.624 OA
ATOM      3  O2A PAX d         -31.357 -32.694  12.625  0.00  0.00    -0.624 OA
ENDROOT
BRANCH   1   4
ATOM      4  O5  PAX d         -30.082 -32.193  14.753  0.00  0.00    -0.287 OA
BRANCH   4   5
ATOM      5  C5  PAX d         -30.576 -33.429  15.219  0.00  0.00     0.058 C 
ATOM      6  H5  PAX d         -30.237 -34.235  14.551  0.00  0.00     0.079 H 
ATOM      7  H6  PAX d         -31.675 -33.402  15.235  0.00  0.00     0.079 H 
BRANCH   5   8
ATOM      8  C4  PAX d         -30.064 -33.681  16.603  0.00  0.00     0.090 C 
ATOM      9  O4  PAX d         -28.621 -33.939  16.572  0.00  0.00    -0.353 OA
ATOM     10  C1  PAX d         -28.059 -33.420  17.757  0.00  0.00     0.140 C 
ATOM     11  C2  PAX d         -28.830 -32.096  17.927  0.00  0.00     0.106 C 
ATOM     12  H8  PAX d         -28.313 -34.072  18.606  0.00  0.00     0.122 H 
ATOM     13  C3  PAX d         -30.265 -32.503  17.558  0.00  0.00     0.107 C 
ATOM     14  H9  PAX d         -28.462 -31.360  17.198  0.00  0.00     0.093 H 
ATOM     15  H11 PAX d         -30.810 -31.671  17.088  0.00  0.00     0.092 H 
ATOM     16  H7  PAX d         -30.587 -34.560  17.006  0.00  0.00     0.090 H 
BRANCH  10  17
ATOM     17  N9A PAX d         -26.566 -33.398  17.675  0.00  0.00    -0.294 N 
ATOM     18  C4A PAX d         -25.712 -32.913  16.691  0.00  0.00     0.167 A 
ATOM     19  N3A PAX d         -26.048 -32.311  15.507  0.00  0.00    -0.222 NA
ATOM     20  C5A PAX d         -24.405 -33.165  17.164  0.00  0.00     0.149 A 
ATOM     21  C2A PAX d         -24.944 -31.956  14.779  0.00  0.00     0.091 A 
ATOM     22  N1A PAX d         -23.626 -32.138  15.110  0.00  0.00    -0.222 NA
ATOM     23  H1  PAX d         -25.135 -31.474  13.827  0.00  0.00     0.146 H 
ATOM     24  C6A PAX d         -23.321 -32.746  16.309  0.00  0.00     0.155 A 
ATOM     25  N6A PAX d         -22.038 -32.911  16.617  0.00  0.00    -0.382 N 
ATOM     26  H2  PAX d         -21.775 -33.361  17.506  0.00  0.00     0.157 HD
ATOM     27  H3  PAX d         -21.306 -32.589  15.968  0.00  0.00     0.157 HD
ATOM     28  N7A PAX d         -24.444 -33.789  18.401  0.00  0.00    -0.236 NA
ATOM     29  C8A PAX d         -25.731 -33.904  18.659  0.00  0.00     0.071 A 
ATOM     30  H4  PAX d         -26.110 -34.360  19.572  0.00  0.00     0.144 H 
ENDBRANCH  10  17
BRANCH  11  31
ATOM     31  O2  PAX d         -28.689 -31.516  19.217  0.00  0.00    -0.388 OA
ATOM     32  H10 PAX d         -28.510 -32.199  19.853  0.00  0.00     0.210 HD
ENDBRANCH  11  31
BRANCH  13  33
ATOM     33  O3  PAX d         -30.980 -32.998  18.693  0.00  0.00    -0.272 OA
BRANCH  33  34
ATOM     34  PG  PAX d         -32.612 -32.966  18.783  0.00  0.00     0.422 P 
ATOM     35  O1G PAX d         -32.971 -33.156  20.255  0.00  0.00    -0.617 OA
ATOM     36  O2G PAX d         -33.019 -31.607  18.230  0.00  0.00    -0.617 OA
ATOM     37  O3G PAX d         -33.174 -34.111  17.921  0.00  0.00    -0.617 OA
ENDBRANCH  33  34
ENDBRANCH  13  33
ENDBRANCH   5   8
ENDBRANCH   4   5
ENDBRANCH   1   4
BRANCH   1  38
ATOM     38  O3A PAX d         -31.255 -30.358  13.622  0.00  0.00    -0.180 OA
BRANCH  38  39
ATOM     39  PB  PAX d         -32.427 -30.031  14.627  0.00  0.00     0.418 P 
ATOM     40  O1B PAX d         -33.228 -28.919  14.080  0.00  0.00    -0.624 OA
ATOM     41  O2B PAX d         -33.107 -31.303  14.961  0.00  0.00    -0.624 OA
BRANCH  39  42
ATOM     42  O3  PAX d         -31.633 -29.622  15.987  0.00  0.00    -0.281 OA
BRANCH  42  43
ATOM     43  C3  PAX d         -31.463 -28.256  16.372  0.00  0.00     0.081 C 
ATOM     44  C4  PAX d         -32.337 -27.367  15.479  0.00  0.00     0.087 C 
ATOM     45  O4  PAX d         -31.436 -26.690  14.559  0.00  0.00    -0.356 OA
ATOM     46  H14 PAX d         -33.029 -28.006  14.912  0.00  0.00     0.090 H 
ATOM     47  C1  PAX d         -30.148 -27.265  14.654  0.00  0.00     0.116 C 
ATOM     48  C2  PAX d         -30.041 -27.808  16.074  0.00  0.00     0.003 C 
ATOM     49  H15 PAX d         -30.045 -28.089  13.933  0.00  0.00     0.118 H 
ATOM     50  H16 PAX d         -29.718 -27.023  16.774  0.00  0.00     0.043 H 
ATOM     51  H17 PAX d         -29.341 -28.654  16.122  0.00  0.00     0.043 H 
ATOM     52  H18 PAX d         -31.708 -28.124  17.436  0.00  0.00     0.088 H 
BRANCH  44  53
ATOM     53  C5  PAX d         -33.159 -26.349  16.254  0.00  0.00     0.059 C 
ATOM     54  H12 PAX d         -32.865 -25.335  15.943  0.00  0.00     0.079 H 
ATOM     55  H13 PAX d         -34.225 -26.504  16.034  0.00  0.00     0.079 H 
BRANCH  53  56
ATOM     56  O5  PAX d         -32.943 -26.490  17.680  0.00  0.00    -0.280 OA
BRANCH  56  57
ATOM     57  PD  PAX d         -32.312 -25.277  18.597  0.00  0.00     0.422 P 
ATOM     58  O1D PAX d         -33.264 -24.082  18.395  0.00  0.00    -0.617 OA
ATOM     59  O2D PAX d         -30.892 -25.008  18.050  0.00  0.00    -0.617 OA
ATOM     60  O3D PAX d         -32.311 -25.793  20.047  0.00  0.00    -0.617 OA
ENDBRANCH  56  57
ENDBRANCH  53  56
ENDBRANCH  44  53
BRANCH  47  61
ATOM     61  N1T PAX d         -29.106 -26.225  14.356  0.00  0.00    -0.282 N 
ATOM     62  C6T PAX d         -29.141 -24.937  14.949  0.00  0.00    -0.002 A 
ATOM     63  C5T PAX d         -28.213 -23.985  14.699  0.00  0.00     0.022 A 
ATOM     64  H19 PAX d         -29.953 -24.704  15.637  0.00  0.00     0.113 H 
ATOM     65  C4T PAX d         -27.114 -24.289  13.776  0.00  0.00     0.256 A 
ATOM     66  N3T PAX d         -27.136 -25.582  13.216  0.00  0.00    -0.275 N 
ATOM     67  O4T PAX d         -26.194 -23.528  13.467  0.00  0.00    -0.267 OA
ATOM     68  C2T PAX d         -28.076 -26.582  13.452  0.00  0.00     0.331 A 
ATOM     69  H20 PAX d         -26.396 -25.805  12.581  0.00  0.00     0.173 HD
ATOM     70  O2T PAX d         -28.006 -27.667  12.921  0.00  0.00    -0.246 OA
BRANCH  63  71
ATOM     71  CM5 PAX d         -28.313 -22.649  15.366  0.00  0.00    -0.045 C 
ATOM     72  H21 PAX d         -28.031 -21.861  14.653  0.00  0.00     0.033 H 
ATOM     73  H22 PAX d         -27.634 -22.620  16.231  0.00  0.00     0.033 H 
ATOM     74  H23 PAX d         -29.346 -22.485  15.705  0.00  0.00     0.033 H 
ENDBRANCH  63  71
ENDBRANCH  47  61
ENDBRANCH  42  43
ENDBRANCH  39  42
ENDBRANCH  38  39
ENDBRANCH   1  38
TORSDOF 16
ENDMDL
MODEL 5
REMARK VINA RESULT:      -5.0      4.147      6.795
REMARK  16 active torsions:
REMARK  status: ('A' for Active; 'I' for Inactive)
REMARK    1  A    between atoms: PA_1  and  O5_4 
REMARK    2  A    between atoms: O3A_8  and  PA_1 
REMARK    3  A    between atoms: O5_4  and  C5_23 
REMARK    4  A    between atoms: PB_5  and  O3A_8 
REMARK    5  A    between atoms: O3_38  and  PB_5 
REMARK    6  A    between atoms: O3_30  and  PG_9 
REMARK    7  A    between atoms: C1_26  and  N9A_13 
REMARK    8  A    between atoms: C5_23  and  C4_24 
REMARK    9  A    between atoms: C2_27  and  O2_28 
REMARK   10  A    between atoms: C3_29  and  O3_30 
REMARK   11  A    between atoms: C5_32  and  O5_31 
REMARK   12  A    between atoms: O5_31  and  PD_39 
REMARK   13  A    between atoms: C4_33  and  C5_32 
REMARK   14  A    between atoms: C1_35  and  N1T_43 
REMARK   15  A    between atoms: C3_37  and  O3_38 
REMARK   16  A    between atoms: C5T_50  and  CM5_51 
ROOT
ATOM      1  PA  PAX d         -29.199 -31.112  18.777  0.00  0.00     0.417 P 
ATOM      2  O1A PAX d         -30.475 -31.759  19.323  0.00  0.00    -0.624 OA
ATOM      3  O2A PAX d         -28.292 -30.427  19.805  0.00  0.00    -0.624 OA
ENDROOT
BRANCH   1   4
ATOM      4  O5  PAX d         -28.320 -32.169  17.971  0.00  0.00    -0.287 OA
BRANCH   4   5
ATOM      5  C5  PAX d         -27.071 -32.603  18.463  0.00  0.00     0.058 C 
ATOM      6  H5  PAX d         -27.183 -32.934  19.507  0.00  0.00     0.079 H 
ATOM      7  H6  PAX d         -26.351 -31.773  18.417  0.00  0.00     0.079 H 
BRANCH   5   8
ATOM      8  C4  PAX d         -26.574 -33.741  17.629  0.00  0.00     0.090 C 
ATOM      9  O4  PAX d         -27.668 -34.302  16.830  0.00  0.00    -0.353 OA
ATOM     10  C1  PAX d         -27.130 -34.748  15.605  0.00  0.00     0.140 C 
ATOM     11  C2  PAX d         -26.123 -33.630  15.269  0.00  0.00     0.106 C 
ATOM     12  H8  PAX d         -26.564 -35.678  15.763  0.00  0.00     0.122 H 
ATOM     13  C3  PAX d         -25.480 -33.346  16.635  0.00  0.00     0.107 C 
ATOM     14  H9  PAX d         -26.666 -32.736  14.930  0.00  0.00     0.093 H 
ATOM     15  H11 PAX d         -25.189 -32.289  16.732  0.00  0.00     0.092 H 
ATOM     16  H7  PAX d         -26.179 -34.513  18.306  0.00  0.00     0.090 H 
BRANCH  10  17
ATOM     17  N9A PAX d         -28.217 -35.077  14.633  0.00  0.00    -0.294 N 
ATOM     18  C4A PAX d         -29.600 -35.089  14.778  0.00  0.00     0.167 A 
ATOM     19  N3A PAX d         -30.331 -34.790  15.897  0.00  0.00    -0.222 NA
ATOM     20  C5A PAX d         -30.111 -35.475  13.519  0.00  0.00     0.149 A 
ATOM     21  C2A PAX d         -31.678 -34.907  15.677  0.00  0.00     0.091 A 
ATOM     22  N1A PAX d         -32.311 -35.270  14.516  0.00  0.00    -0.222 NA
ATOM     23  H1  PAX d         -32.320 -34.686  16.522  0.00  0.00     0.146 H 
ATOM     24  C6A PAX d         -31.547 -35.563  13.408  0.00  0.00     0.155 A 
ATOM     25  N6A PAX d         -32.176 -35.910  12.289  0.00  0.00    -0.382 N 
ATOM     26  H2  PAX d         -31.635 -36.136  11.442  0.00  0.00     0.157 HD
ATOM     27  H3  PAX d         -33.205 -35.953  12.268  0.00  0.00     0.157 HD
ATOM     28  N7A PAX d         -29.079 -35.698  12.619  0.00  0.00    -0.236 NA
ATOM     29  C8A PAX d         -27.990 -35.451  13.318  0.00  0.00     0.071 A 
ATOM     30  H4  PAX d         -26.989 -35.535  12.896  0.00  0.00     0.144 H 
ENDBRANCH  10  17
BRANCH  11  31
ATOM     31  O2  PAX d         -25.206 -33.979  14.241  0.00  0.00    -0.388 OA
ATOM     32  H10 PAX d         -25.559 -33.714  13.399  0.00  0.00     0.210 HD
ENDBRANCH  11  31
BRANCH  13  33
ATOM     33  O3  PAX d         -24.361 -34.203  16.878  0.00  0.00    -0.272 OA
BRANCH  33  34
ATOM     34  PG  PAX d         -23.036 -33.702  17.696  0.00  0.00     0.422 P 
ATOM     35  O1G PAX d         -22.256 -34.960  18.072  0.00  0.00    -0.617 OA
ATOM     36  O2G PAX d         -22.289 -32.789  16.734  0.00  0.00    -0.617 OA
ATOM     37  O3G PAX d         -23.494 -32.937  18.951  0.00  0.00    -0.617 OA
ENDBRANCH  33  34
ENDBRANCH  13  33
ENDBRANCH   5   8
ENDBRANCH   4   5
ENDBRANCH   1   4
BRANCH   1  38
ATOM     38  O3A PAX d         -29.560 -30.079  17.630  0.00  0.00    -0.180 OA
BRANCH  38  39
ATOM     39  PB  PAX d         -29.927 -30.227  16.102  0.00  0.00     0.418 P 
ATOM     40  O1B PAX d         -29.467 -29.023  15.383  0.00  0.00    -0.624 OA
ATOM     41  O2B PAX d         -29.452 -31.553  15.648  0.00  0.00    -0.624 OA
BRANCH  39  42
ATOM     42  O3  PAX d         -31.548 -30.359  16.131  0.00  0.00    -0.281 OA
BRANCH  42  43
ATOM     43  C3  PAX d         -32.311 -29.950  17.268  0.00  0.00     0.081 C 
ATOM     44  C4  PAX d         -33.803 -29.991  16.917  0.00  0.00     0.087 C 
ATOM     45  O4  PAX d         -34.232 -28.609  16.769  0.00  0.00    -0.356 OA
ATOM     46  H14 PAX d         -33.927 -30.519  15.960  0.00  0.00     0.090 H 
ATOM     47  C1  PAX d         -33.099 -27.764  16.760  0.00  0.00     0.116 C 
ATOM     48  C2  PAX d         -32.037 -28.488  17.577  0.00  0.00     0.003 C 
ATOM     49  H15 PAX d         -32.740 -27.619  15.730  0.00  0.00     0.118 H 
ATOM     50  H16 PAX d         -32.154 -28.281  18.651  0.00  0.00     0.043 H 
ATOM     51  H17 PAX d         -31.025 -28.198  17.256  0.00  0.00     0.043 H 
ATOM     52  H18 PAX d         -32.083 -30.591  18.133  0.00  0.00     0.088 H 
BRANCH  44  53
ATOM     53  C5  PAX d         -34.655 -30.697  17.960  0.00  0.00     0.059 C 
ATOM     54  H12 PAX d         -35.011 -29.959  18.695  0.00  0.00     0.079 H 
ATOM     55  H13 PAX d         -35.517 -31.167  17.465  0.00  0.00     0.079 H 
BRANCH  53  56
ATOM     56  O5  PAX d         -33.888 -31.718  18.646  0.00  0.00    -0.280 OA
BRANCH  56  57
ATOM     57  PD  PAX d         -34.193 -33.324  18.453  0.00  0.00     0.422 P 
ATOM     58  O1D PAX d         -35.476 -33.591  19.264  0.00  0.00    -0.617 OA
ATOM     59  O2D PAX d         -32.963 -34.074  19.015  0.00  0.00    -0.617 OA
ATOM     60  O3D PAX d         -34.392 -33.544  16.943  0.00  0.00    -0.617 OA
ENDBRANCH  56  57
ENDBRANCH  53  56
ENDBRANCH  44  53
BRANCH  47  61
ATOM     61  N1T PAX d         -33.460 -26.427  17.342  0.00  0.00    -0.282 N 
ATOM     62  C6T PAX d         -34.055 -26.303  18.623  0.00  0.00    -0.002 A 
ATOM     63  C5T PAX d         -34.387 -25.110  19.170  0.00  0.00     0.022 A 
ATOM     64  H19 PAX d         -34.254 -27.209  19.193  0.00  0.00     0.113 H 
ATOM     65  C4T PAX d         -34.120 -23.883  18.412  0.00  0.00     0.256 A 
ATOM     66  N3T PAX d         -33.532 -24.071  17.146  0.00  0.00    -0.275 N 
ATOM     67  O4T PAX d         -34.354 -22.732  18.789  0.00  0.00    -0.267 OA
ATOM     68  C2T PAX d         -33.181 -25.283  16.555  0.00  0.00     0.331 A 
ATOM     69  H20 PAX d         -33.347 -23.245  16.613  0.00  0.00     0.173 HD
ATOM     70  O2T PAX d         -32.676 -25.339  15.457  0.00  0.00    -0.246 OA
BRANCH  63  71
ATOM     71  CM5 PAX d         -35.007 -25.058  20.530  0.00  0.00    -0.045 C 
ATOM     72  H21 PAX d         -35.404 -26.050  20.790  0.00  0.00     0.033 H 
ATOM     73  H22 PAX d         -35.826 -24.324  20.532  0.00  0.00     0.033 H 
ATOM     74  H23 PAX d         -34.248 -24.762  21.269  0.00  0.00     0.033 H 
ENDBRANCH  63  71
ENDBRANCH  47  61
ENDBRANCH  42  43
ENDBRANCH  39  42
ENDBRANCH  38  39
ENDBRANCH   1  38
TORSDOF 16
ENDMDL
MODEL 6
REMARK VINA RESULT:      -5.0      3.100      8.996
REMARK  16 active torsions:
REMARK  status: ('A' for Active; 'I' for Inactive)
REMARK    1  A    between atoms: PA_1  and  O5_4 
REMARK    2  A    between atoms: O3A_8  and  PA_1 
REMARK    3  A    between atoms: O5_4  and  C5_23 
REMARK    4  A    between atoms: PB_5  and  O3A_8 
REMARK    5  A    between atoms: O3_38  and  PB_5 
REMARK    6  A    between atoms: O3_30  and  PG_9 
REMARK    7  A    between atoms: C1_26  and  N9A_13 
REMARK    8  A    between atoms: C5_23  and  C4_24 
REMARK    9  A    between atoms: C2_27  and  O2_28 
REMARK   10  A    between atoms: C3_29  and  O3_30 
REMARK   11  A    between atoms: C5_32  and  O5_31 
REMARK   12  A    between atoms: O5_31  and  PD_39 
REMARK   13  A    between atoms: C4_33  and  C5_32 
REMARK   14  A    between atoms: C1_35  and  N1T_43 
REMARK   15  A    between atoms: C3_37  and  O3_38 
REMARK   16  A    between atoms: C5T_50  and  CM5_51 
ROOT
ATOM      1  PA  PAX d         -30.676 -28.195  18.026  0.00  0.00     0.417 P 
ATOM      2  O1A PAX d         -29.865 -28.598  16.791  0.00  0.00    -0.624 OA
ATOM      3  O2A PAX d         -30.066 -28.555  19.385  0.00  0.00    -0.624 OA
ENDROOT
BRANCH   1   4
ATOM      4  O5  PAX d         -30.985 -26.631  18.023  0.00  0.00    -0.287 OA
BRANCH   4   5
ATOM      5  C5  PAX d         -32.244 -26.139  17.622  0.00  0.00     0.058 C 
ATOM      6  H5  PAX d         -32.611 -25.419  18.369  0.00  0.00     0.079 H 
ATOM      7  H6  PAX d         -32.954 -26.975  17.538  0.00  0.00     0.079 H 
BRANCH   5   8
ATOM      8  C4  PAX d         -32.115 -25.459  16.296  0.00  0.00     0.090 C 
ATOM      9  O4  PAX d         -30.716 -25.464  15.856  0.00  0.00    -0.353 OA
ATOM     10  C1  PAX d         -30.701 -25.568  14.449  0.00  0.00     0.140 C 
ATOM     11  C2  PAX d         -31.830 -26.585  14.190  0.00  0.00     0.106 C 
ATOM     12  H8  PAX d         -30.999 -24.609  14.001  0.00  0.00     0.122 H 
ATOM     13  C3  PAX d         -32.915 -26.131  15.178  0.00  0.00     0.107 C 
ATOM     14  H9  PAX d         -31.487 -27.594  14.464  0.00  0.00     0.093 H 
ATOM     15  H11 PAX d         -33.509 -26.982  15.543  0.00  0.00     0.092 H 
ATOM     16  H7  PAX d         -32.463 -24.421  16.408  0.00  0.00     0.090 H 
BRANCH  10  17
ATOM     17  N9A PAX d         -29.321 -25.856  13.950  0.00  0.00    -0.294 N 
ATOM     18  C4A PAX d         -28.737 -27.036  13.507  0.00  0.00     0.167 A 
ATOM     19  N3A PAX d         -29.312 -28.277  13.414  0.00  0.00    -0.222 NA
ATOM     20  C5A PAX d         -27.411 -26.697  13.159  0.00  0.00     0.149 A 
ATOM     21  C2A PAX d         -28.437 -29.213  12.930  0.00  0.00     0.091 A 
ATOM     22  N1A PAX d         -27.131 -29.029  12.556  0.00  0.00    -0.222 NA
ATOM     23  H1  PAX d         -28.825 -30.220  12.832  0.00  0.00     0.146 H 
ATOM     24  C6A PAX d         -26.583 -27.768  12.660  0.00  0.00     0.155 A 
ATOM     25  N6A PAX d         -25.317 -27.606  12.289  0.00  0.00    -0.382 N 
ATOM     26  H2  PAX d         -24.876 -26.677  12.353  0.00  0.00     0.157 HD
ATOM     27  H3  PAX d         -24.775 -28.409  11.937  0.00  0.00     0.157 HD
ATOM     28  N7A PAX d         -27.175 -25.349  13.382  0.00  0.00    -0.236 NA
ATOM     29  C8A PAX d         -28.324 -24.898  13.845  0.00  0.00     0.071 A 
ATOM     30  H4  PAX d         -28.478 -23.857  14.123  0.00  0.00     0.144 H 
ENDBRANCH  10  17
BRANCH  11  31
ATOM     31  O2  PAX d         -32.247 -26.640  12.832  0.00  0.00    -0.388 OA
ATOM     32  H10 PAX d         -33.180 -26.468  12.781  0.00  0.00     0.210 HD
ENDBRANCH  11  31
BRANCH  13  33
ATOM     33  O3  PAX d         -33.762 -25.131  14.606  0.00  0.00    -0.272 OA
BRANCH  33  34
ATOM     34  PG  PAX d         -35.313 -25.434  14.185  0.00  0.00     0.422 P 
ATOM     35  O1G PAX d         -35.875 -26.380  15.243  0.00  0.00    -0.617 OA
ATOM     36  O2G PAX d         -35.997 -24.074  14.162  0.00  0.00    -0.617 OA
ATOM     37  O3G PAX d         -35.324 -26.088  12.791  0.00  0.00    -0.617 OA
ENDBRANCH  33  34
ENDBRANCH  13  33
ENDBRANCH   5   8
ENDBRANCH   4   5
ENDBRANCH   1   4
BRANCH   1  38
ATOM     38  O3A PAX d         -32.141 -28.794  17.937  0.00  0.00    -0.180 OA
BRANCH  38  39
ATOM     39  PB  PAX d         -32.841 -29.831  16.975  0.00  0.00     0.418 P 
ATOM     40  O1B PAX d         -34.292 -29.819  17.236  0.00  0.00    -0.624 OA
ATOM     41  O2B PAX d         -32.362 -29.568  15.599  0.00  0.00    -0.624 OA
BRANCH  39  42
ATOM     42  O3  PAX d         -32.140 -31.240  17.391  0.00  0.00    -0.281 OA
BRANCH  42  43
ATOM     43  C3  PAX d         -31.522 -32.084  16.417  0.00  0.00     0.081 C 
ATOM     44  C4  PAX d         -31.671 -33.547  16.848  0.00  0.00     0.087 C 
ATOM     45  O4  PAX d         -30.362 -33.979  17.310  0.00  0.00    -0.356 OA
ATOM     46  H14 PAX d         -32.390 -33.600  17.679  0.00  0.00     0.090 H 
ATOM     47  C1  PAX d         -29.509 -32.857  17.422  0.00  0.00     0.116 C 
ATOM     48  C2  PAX d         -30.020 -31.846  16.404  0.00  0.00     0.003 C 
ATOM     49  H15 PAX d         -29.574 -32.430  18.434  0.00  0.00     0.118 H 
ATOM     50  H16 PAX d         -29.597 -32.039  15.407  0.00  0.00     0.043 H 
ATOM     51  H17 PAX d         -29.780 -30.818  16.712  0.00  0.00     0.043 H 
ATOM     52  H18 PAX d         -31.962 -31.909  15.424  0.00  0.00     0.088 H 
BRANCH  44  53
ATOM     53  C5  PAX d         -32.165 -34.461  15.737  0.00  0.00     0.059 C 
ATOM     54  H12 PAX d         -32.194 -33.898  14.793  0.00  0.00     0.079 H 
ATOM     55  H13 PAX d         -31.474 -35.311  15.636  0.00  0.00     0.079 H 
BRANCH  53  56
ATOM     56  O5  PAX d         -33.492 -34.961  16.034  0.00  0.00    -0.280 OA
BRANCH  56  57
ATOM     57  PD  PAX d         -34.843 -34.344  15.324  0.00  0.00     0.422 P 
ATOM     58  O1D PAX d         -35.813 -34.055  16.485  0.00  0.00    -0.617 OA
ATOM     59  O2D PAX d         -35.369 -35.435  14.363  0.00  0.00    -0.617 OA
ATOM     60  O3D PAX d         -34.396 -33.065  14.594  0.00  0.00    -0.617 OA
ENDBRANCH  56  57
ENDBRANCH  53  56
ENDBRANCH  44  53
BRANCH  47  61
ATOM     61  N1T PAX d         -28.090 -33.271  17.159  0.00  0.00    -0.282 N 
ATOM     62  C6T PAX d         -27.578 -33.399  15.842  0.00  0.00    -0.002 A 
ATOM     63  C5T PAX d         -26.303 -33.768  15.579  0.00  0.00     0.022 A 
ATOM     64  H19 PAX d         -28.243 -33.192  15.005  0.00  0.00     0.113 H 
ATOM     65  C4T PAX d         -25.398 -34.047  16.700  0.00  0.00     0.256 A 
ATOM     66  N3T PAX d         -25.965 -33.906  17.982  0.00  0.00    -0.275 N 
ATOM     67  O4T PAX d         -24.213 -34.376  16.612  0.00  0.00    -0.267 OA
ATOM     68  C2T PAX d         -27.272 -33.531  18.286  0.00  0.00     0.331 A 
ATOM     69  H20 PAX d         -25.364 -34.096  18.759  0.00  0.00     0.173 HD
ATOM     70  O2T PAX d         -27.664 -33.436  19.426  0.00  0.00    -0.246 OA
BRANCH  63  71
ATOM     71  CM5 PAX d         -25.833 -33.877  14.163  0.00  0.00    -0.045 C 
ATOM     72  H21 PAX d         -24.735 -33.839  14.137  0.00  0.00     0.033 H 
ATOM     73  H22 PAX d         -26.242 -33.041  13.576  0.00  0.00     0.033 H 
ATOM     74  H23 PAX d         -26.177 -34.829  13.735  0.00  0.00     0.033 H 
ENDBRANCH  63  71
ENDBRANCH  47  61
ENDBRANCH  42  43
ENDBRANCH  39  42
ENDBRANCH  38  39
ENDBRANCH   1  38
TORSDOF 16
ENDMDL
MODEL 7
REMARK VINA RESULT:      -4.4      2.352      3.852
REMARK  16 active torsions:
REMARK  status: ('A' for Active; 'I' for Inactive)
REMARK    1  A    between atoms: PA_1  and  O5_4 
REMARK    2  A    between atoms: O3A_8  and  PA_1 
REMARK    3  A    between atoms: O5_4  and  C5_23 
REMARK    4  A    between atoms: PB_5  and  O3A_8 
REMARK    5  A    between atoms: O3_38  and  PB_5 
REMARK    6  A    between atoms: O3_30  and  PG_9 
REMARK    7  A    between atoms: C1_26  and  N9A_13 
REMARK    8  A    between atoms: C5_23  and  C4_24 
REMARK    9  A    between atoms: C2_27  and  O2_28 
REMARK   10  A    between atoms: C3_29  and  O3_30 
REMARK   11  A    between atoms: C5_32  and  O5_31 
REMARK   12  A    between atoms: O5_31  and  PD_39 
REMARK   13  A    between atoms: C4_33  and  C5_32 
REMARK   14  A    between atoms: C1_35  and  N1T_43 
REMARK   15  A    between atoms: C3_37  and  O3_38 
REMARK   16  A    between atoms: C5T_50  and  CM5_51 
ROOT
ATOM      1  PA  PAX d         -29.629 -31.451  13.353  0.00  0.00     0.417 P 
ATOM      2  O1A PAX d         -28.254 -31.025  12.832  0.00  0.00    -0.624 OA
ATOM      3  O2A PAX d         -30.261 -32.675  12.680  0.00  0.00    -0.624 OA
ENDROOT
BRANCH   1   4
ATOM      4  O5  PAX d         -29.590 -31.718  14.924  0.00  0.00    -0.287 OA
BRANCH   4   5
ATOM      5  C5  PAX d         -30.678 -32.322  15.587  0.00  0.00     0.058 C 
ATOM      6  H5  PAX d         -31.097 -33.118  14.954  0.00  0.00     0.079 H 
ATOM      7  H6  PAX d         -31.452 -31.566  15.786  0.00  0.00     0.079 H 
BRANCH   5   8
ATOM      8  C4  PAX d         -30.210 -32.909  16.882  0.00  0.00     0.090 C 
ATOM      9  O4  PAX d         -28.807 -33.318  16.777  0.00  0.00    -0.353 OA
ATOM     10  C1  PAX d         -28.199 -33.121  18.035  0.00  0.00     0.140 C 
ATOM     11  C2  PAX d         -28.814 -31.781  18.484  0.00  0.00     0.106 C 
ATOM     12  H8  PAX d         -28.533 -33.900  18.735  0.00  0.00     0.122 H 
ATOM     13  C3  PAX d         -30.283 -31.937  18.061  0.00  0.00     0.107 C 
ATOM     14  H9  PAX d         -28.357 -30.958  17.916  0.00  0.00     0.093 H 
ATOM     15  H11 PAX d         -30.725 -30.970  17.779  0.00  0.00     0.092 H 
ATOM     16  H7  PAX d         -30.835 -33.786  17.105  0.00  0.00     0.090 H 
BRANCH  10  17
ATOM     17  N9A PAX d         -26.713 -33.254  17.935  0.00  0.00    -0.294 N 
ATOM     18  C4A PAX d         -25.824 -32.855  16.944  0.00  0.00     0.167 A 
ATOM     19  N3A PAX d         -26.109 -32.216  15.766  0.00  0.00    -0.222 NA
ATOM     20  C5A PAX d         -24.545 -33.243  17.402  0.00  0.00     0.149 A 
ATOM     21  C2A PAX d         -24.981 -31.974  15.027  0.00  0.00     0.091 A 
ATOM     22  N1A PAX d         -23.685 -32.293  15.343  0.00  0.00    -0.222 NA
ATOM     23  H1  PAX d         -25.131 -31.471  14.079  0.00  0.00     0.146 H 
ATOM     24  C6A PAX d         -23.432 -32.934  16.536  0.00  0.00     0.155 A 
ATOM     25  N6A PAX d         -22.170 -33.233  16.830  0.00  0.00    -0.382 N 
ATOM     26  H2  PAX d         -21.946 -33.712  17.713  0.00  0.00     0.157 HD
ATOM     27  H3  PAX d         -21.416 -32.985  16.173  0.00  0.00     0.157 HD
ATOM     28  N7A PAX d         -24.635 -33.865  18.637  0.00  0.00    -0.236 NA
ATOM     29  C8A PAX d         -25.924 -33.847  18.909  0.00  0.00     0.071 A 
ATOM     30  H4  PAX d         -26.338 -34.266  19.825  0.00  0.00     0.144 H 
ENDBRANCH  10  17
BRANCH  11  31
ATOM     31  O2  PAX d         -28.618 -31.498  19.863  0.00  0.00    -0.388 OA
ATOM     32  H10 PAX d         -27.924 -30.856  19.958  0.00  0.00     0.210 HD
ENDBRANCH  11  31
BRANCH  13  33
ATOM     33  O3  PAX d         -31.060 -32.570  19.082  0.00  0.00    -0.272 OA
BRANCH  33  34
ATOM     34  PG  PAX d         -32.523 -33.236  18.783  0.00  0.00     0.422 P 
ATOM     35  O1G PAX d         -32.270 -34.482  17.937  0.00  0.00    -0.617 OA
ATOM     36  O2G PAX d         -33.114 -33.542  20.152  0.00  0.00    -0.617 OA
ATOM     37  O3G PAX d         -33.382 -32.211  18.020  0.00  0.00    -0.617 OA
ENDBRANCH  33  34
ENDBRANCH  13  33
ENDBRANCH   5   8
ENDBRANCH   4   5
ENDBRANCH   1   4
BRANCH   1  38
ATOM     38  O3A PAX d         -30.642 -30.233  13.277  0.00  0.00    -0.180 OA
BRANCH  38  39
ATOM     39  PB  PAX d         -32.117 -30.004  13.793  0.00  0.00     0.418 P 
ATOM     40  O1B PAX d         -32.827 -29.136  12.834  0.00  0.00    -0.624 OA
ATOM     41  O2B PAX d         -32.694 -31.328  14.119  0.00  0.00    -0.624 OA
BRANCH  39  42
ATOM     42  O3  PAX d         -31.888 -29.290  15.236  0.00  0.00    -0.281 OA
BRANCH  42  43
ATOM     43  C3  PAX d         -31.850 -27.867  15.369  0.00  0.00     0.081 C 
ATOM     44  C4  PAX d         -32.340 -27.224  14.066  0.00  0.00     0.087 C 
ATOM     45  O4  PAX d         -31.163 -26.686  13.402  0.00  0.00    -0.356 OA
ATOM     46  H14 PAX d         -32.792 -28.003  13.435  0.00  0.00     0.090 H 
ATOM     47  C1  PAX d         -30.000 -27.149  14.057  0.00  0.00     0.116 C 
ATOM     48  C2  PAX d         -30.410 -27.398  15.503  0.00  0.00     0.003 C 
ATOM     49  H15 PAX d         -29.656 -28.090  13.602  0.00  0.00     0.118 H 
ATOM     50  H16 PAX d         -30.348 -26.474  16.096  0.00  0.00     0.043 H 
ATOM     51  H17 PAX d         -29.782 -28.174  15.965  0.00  0.00     0.043 H 
ATOM     52  H18 PAX d         -32.456 -27.547  16.229  0.00  0.00     0.088 H 
BRANCH  44  53
ATOM     53  C5  PAX d         -33.372 -26.129  14.279  0.00  0.00     0.059 C 
ATOM     54  H12 PAX d         -34.336 -26.588  14.546  0.00  0.00     0.079 H 
ATOM     55  H13 PAX d         -33.039 -25.473  15.097  0.00  0.00     0.079 H 
BRANCH  53  56
ATOM     56  O5  PAX d         -33.540 -25.339  13.076  0.00  0.00    -0.280 OA
BRANCH  56  57
ATOM     57  PD  PAX d         -33.359 -23.702  13.067  0.00  0.00     0.422 P 
ATOM     58  O1D PAX d         -33.363 -23.288  14.551  0.00  0.00    -0.617 OA
ATOM     59  O2D PAX d         -34.564 -23.133  12.284  0.00  0.00    -0.617 OA
ATOM     60  O3D PAX d         -32.010 -23.424  12.380  0.00  0.00    -0.617 OA
ENDBRANCH  56  57
ENDBRANCH  53  56
ENDBRANCH  44  53
BRANCH  47  61
ATOM     61  N1T PAX d         -28.908 -26.125  13.937  0.00  0.00    -0.282 N 
ATOM     62  C6T PAX d         -28.996 -24.858  14.570  0.00  0.00    -0.002 A 
ATOM     63  C5T PAX d         -28.025 -23.920  14.479  0.00  0.00     0.022 A 
ATOM     64  H19 PAX d         -29.886 -24.630  15.155  0.00  0.00     0.113 H 
ATOM     65  C4T PAX d         -26.821 -24.216  13.696  0.00  0.00     0.256 A 
ATOM     66  N3T PAX d         -26.794 -25.488  13.090  0.00  0.00    -0.275 N 
ATOM     67  O4T PAX d         -25.854 -23.467  13.539  0.00  0.00    -0.267 OA
ATOM     68  C2T PAX d         -27.776 -26.474  13.162  0.00  0.00     0.331 A 
ATOM     69  H20 PAX d         -25.981 -25.706  12.548  0.00  0.00     0.173 HD
ATOM     70  O2T PAX d         -27.657 -27.540  12.604  0.00  0.00    -0.246 OA
BRANCH  63  71
ATOM     71  CM5 PAX d         -28.187 -22.607  15.179  0.00  0.00    -0.045 C 
ATOM     72  H21 PAX d         -29.065 -22.649  15.839  0.00  0.00     0.033 H 
ATOM     73  H22 PAX d         -28.326 -21.809  14.434  0.00  0.00     0.033 H 
ATOM     74  H23 PAX d         -27.289 -22.398  15.778  0.00  0.00     0.033 H 
ENDBRANCH  63  71
ENDBRANCH  47  61
ENDBRANCH  42  43
ENDBRANCH  39  42
ENDBRANCH  38  39
ENDBRANCH   1  38
TORSDOF 16
ENDMDL
MODEL 8
REMARK VINA RESULT:      -4.3      4.151      6.564
REMARK  16 active torsions:
REMARK  status: ('A' for Active; 'I' for Inactive)
REMARK    1  A    between atoms: PA_1  and  O5_4 
REMARK    2  A    between atoms: O3A_8  and  PA_1 
REMARK    3  A    between atoms: O5_4  and  C5_23 
REMARK    4  A    between atoms: PB_5  and  O3A_8 
REMARK    5  A    between atoms: O3_38  and  PB_5 
REMARK    6  A    between atoms: O3_30  and  PG_9 
REMARK    7  A    between atoms: C1_26  and  N9A_13 
REMARK    8  A    between atoms: C5_23  and  C4_24 
REMARK    9  A    between atoms: C2_27  and  O2_28 
REMARK   10  A    between atoms: C3_29  and  O3_30 
REMARK   11  A    between atoms: C5_32  and  O5_31 
REMARK   12  A    between atoms: O5_31  and  PD_39 
REMARK   13  A    between atoms: C4_33  and  C5_32 
REMARK   14  A    between atoms: C1_35  and  N1T_43 
REMARK   15  A    between atoms: C3_37  and  O3_38 
REMARK   16  A    between atoms: C5T_50  and  CM5_51 
ROOT
ATOM      1  PA  PAX d         -28.856 -31.089  18.565  0.00  0.00     0.417 P 
ATOM      2  O1A PAX d         -30.307 -31.263  19.020  0.00  0.00    -0.624 OA
ATOM      3  O2A PAX d         -27.915 -30.385  19.550  0.00  0.00    -0.624 OA
ENDROOT
BRANCH   1   4
ATOM      4  O5  PAX d         -28.204 -32.491  18.179  0.00  0.00    -0.287 OA
BRANCH   4   5
ATOM      5  C5  PAX d         -26.936 -32.865  18.670  0.00  0.00     0.058 C 
ATOM      6  H5  PAX d         -27.028 -33.182  19.720  0.00  0.00     0.079 H 
ATOM      7  H6  PAX d         -26.251 -32.007  18.605  0.00  0.00     0.079 H 
BRANCH   5   8
ATOM      8  C4  PAX d         -26.397 -33.996  17.852  0.00  0.00     0.090 C 
ATOM      9  O4  PAX d         -27.456 -34.569  17.017  0.00  0.00    -0.353 OA
ATOM     10  C1  PAX d         -26.872 -35.007  15.810  0.00  0.00     0.140 C 
ATOM     11  C2  PAX d         -25.869 -33.876  15.509  0.00  0.00     0.106 C 
ATOM     12  H8  PAX d         -26.300 -35.930  15.986  0.00  0.00     0.122 H 
ATOM     13  C3  PAX d         -25.276 -33.586  16.896  0.00  0.00     0.107 C 
ATOM     14  H9  PAX d         -26.412 -32.989  15.152  0.00  0.00     0.093 H 
ATOM     15  H11 PAX d         -25.002 -32.526  17.002  0.00  0.00     0.092 H 
ATOM     16  H7  PAX d         -26.014 -34.764  18.541  0.00  0.00     0.090 H 
BRANCH  10  17
ATOM     17  N9A PAX d         -27.923 -35.349  14.802  0.00  0.00    -0.294 N 
ATOM     18  C4A PAX d         -29.308 -35.237  14.852  0.00  0.00     0.167 A 
ATOM     19  N3A PAX d         -30.078 -34.765  15.882  0.00  0.00    -0.222 NA
ATOM     20  C5A PAX d         -29.772 -35.710  13.604  0.00  0.00     0.149 A 
ATOM     21  C2A PAX d         -31.413 -34.798  15.581  0.00  0.00     0.091 A 
ATOM     22  N1A PAX d         -32.003 -35.229  14.422  0.00  0.00    -0.222 NA
ATOM     23  H1  PAX d         -32.084 -34.440  16.354  0.00  0.00     0.146 H 
ATOM     24  C6A PAX d         -31.201 -35.696  13.403  0.00  0.00     0.155 A 
ATOM     25  N6A PAX d         -31.788 -36.107  12.283  0.00  0.00    -0.382 N 
ATOM     26  H2  PAX d         -31.218 -36.461  11.502  0.00  0.00     0.157 HD
ATOM     27  H3  PAX d         -32.814 -36.070  12.196  0.00  0.00     0.157 HD
ATOM     28  N7A PAX d         -28.711 -36.107  12.805  0.00  0.00    -0.236 NA
ATOM     29  C8A PAX d         -27.648 -35.875  13.549  0.00  0.00     0.071 A 
ATOM     30  H4  PAX d         -26.635 -36.081  13.208  0.00  0.00     0.144 H 
ENDBRANCH  10  17
BRANCH  11  31
ATOM     31  O2  PAX d         -24.914 -34.212  14.511  0.00  0.00    -0.388 OA
ATOM     32  H10 PAX d         -24.598 -35.096  14.661  0.00  0.00     0.210 HD
ENDBRANCH  11  31
BRANCH  13  33
ATOM     33  O3  PAX d         -24.155 -34.428  17.175  0.00  0.00    -0.272 OA
BRANCH  33  34
ATOM     34  PG  PAX d         -22.753 -33.848  17.786  0.00  0.00     0.422 P 
ATOM     35  O1G PAX d         -23.041 -33.447  19.231  0.00  0.00    -0.617 OA
ATOM     36  O2G PAX d         -21.755 -34.990  17.660  0.00  0.00    -0.617 OA
ATOM     37  O3G PAX d         -22.319 -32.631  16.948  0.00  0.00    -0.617 OA
ENDBRANCH  33  34
ENDBRANCH  13  33
ENDBRANCH   5   8
ENDBRANCH   4   5
ENDBRANCH   1   4
BRANCH   1  38
ATOM     38  O3A PAX d         -28.807 -30.337  17.170  0.00  0.00    -0.180 OA
BRANCH  38  39
ATOM     39  PB  PAX d         -29.397 -30.648  15.740  0.00  0.00     0.418 P 
ATOM     40  O1B PAX d         -29.365 -29.414  14.932  0.00  0.00    -0.624 OA
ATOM     41  O2B PAX d         -28.716 -31.856  15.222  0.00  0.00    -0.624 OA
BRANCH  39  42
ATOM     42  O3  PAX d         -30.911 -31.142  16.072  0.00  0.00    -0.281 OA
BRANCH  42  43
ATOM     43  C3  PAX d         -31.849 -30.286  16.729  0.00  0.00     0.081 C 
ATOM     44  C4  PAX d         -33.272 -30.766  16.422  0.00  0.00     0.087 C 
ATOM     45  O4  PAX d         -33.836 -29.814  15.479  0.00  0.00    -0.356 OA
ATOM     46  H14 PAX d         -33.217 -31.759  15.953  0.00  0.00     0.090 H 
ATOM     47  C1  PAX d         -32.816 -28.955  15.012  0.00  0.00     0.116 C 
ATOM     48  C2  PAX d         -31.784 -28.891  16.131  0.00  0.00     0.003 C 
ATOM     49  H15 PAX d         -32.353 -29.371  14.104  0.00  0.00     0.118 H 
ATOM     50  H16 PAX d         -32.054 -28.127  16.875  0.00  0.00     0.043 H 
ATOM     51  H17 PAX d         -30.781 -28.677  15.733  0.00  0.00     0.043 H 
ATOM     52  H18 PAX d         -31.655 -30.266  17.812  0.00  0.00     0.088 H 
BRANCH  44  53
ATOM     53  C5  PAX d         -34.157 -30.873  17.654  0.00  0.00     0.059 C 
ATOM     54  H12 PAX d         -34.214 -29.889  18.144  0.00  0.00     0.079 H 
ATOM     55  H13 PAX d         -35.165 -31.189  17.348  0.00  0.00     0.079 H 
BRANCH  53  56
ATOM     56  O5  PAX d         -33.621 -31.839  18.591  0.00  0.00    -0.280 OA
BRANCH  56  57
ATOM     57  PD  PAX d         -34.140 -33.401  18.637  0.00  0.00     0.422 P 
ATOM     58  O1D PAX d         -32.904 -34.225  19.046  0.00  0.00    -0.617 OA
ATOM     59  O2D PAX d         -34.638 -33.738  17.213  0.00  0.00    -0.617 OA
ATOM     60  O3D PAX d         -35.258 -33.450  19.693  0.00  0.00    -0.617 OA
ENDBRANCH  56  57
ENDBRANCH  53  56
ENDBRANCH  44  53
BRANCH  47  61
ATOM     61  N1T PAX d         -33.396 -27.608  14.687  0.00  0.00    -0.282 N 
ATOM     62  C6T PAX d         -32.867 -26.412  15.236  0.00  0.00    -0.002 A 
ATOM     63  C5T PAX d         -33.370 -25.187  14.957  0.00  0.00     0.022 A 
ATOM     64  H19 PAX d         -32.017 -26.483  15.913  0.00  0.00     0.113 H 
ATOM     65  C4T PAX d         -34.514 -25.079  14.044  0.00  0.00     0.256 A 
ATOM     66  N3T PAX d         -34.996 -26.301  13.535  0.00  0.00    -0.275 N 
ATOM     67  O4T PAX d         -35.064 -24.034  13.689  0.00  0.00    -0.267 OA
ATOM     68  C2T PAX d         -34.502 -27.576  13.804  0.00  0.00     0.331 A 
ATOM     69  H20 PAX d         -35.778 -26.247  12.914  0.00  0.00     0.173 HD
ATOM     70  O2T PAX d         -34.988 -28.569  13.312  0.00  0.00    -0.246 OA
BRANCH  63  71
ATOM     71  CM5 PAX d         -32.756 -23.969  15.570  0.00  0.00    -0.045 C 
ATOM     72  H21 PAX d         -31.674 -24.126  15.693  0.00  0.00     0.033 H 
ATOM     73  H22 PAX d         -33.212 -23.783  16.554  0.00  0.00     0.033 H 
ATOM     74  H23 PAX d         -32.928 -23.102  14.916  0.00  0.00     0.033 H 
ENDBRANCH  63  71
ENDBRANCH  47  61
ENDBRANCH  42  43
ENDBRANCH  39  42
ENDBRANCH  38  39
ENDBRANCH   1  38
TORSDOF 16
ENDMDL
MODEL 9
REMARK VINA RESULT:      -4.2      3.416      8.819
REMARK  16 active torsions:
REMARK  status: ('A' for Active; 'I' for Inactive)
REMARK    1  A    between atoms: PA_1  and  O5_4 
REMARK    2  A    between atoms: O3A_8  and  PA_1 
REMARK    3  A    between atoms: O5_4  and  C5_23 
REMARK    4  A    between atoms: PB_5  and  O3A_8 
REMARK    5  A    between atoms: O3_38  and  PB_5 
REMARK    6  A    between atoms: O3_30  and  PG_9 
REMARK    7  A    between atoms: C1_26  and  N9A_13 
REMARK    8  A    between atoms: C5_23  and  C4_24 
REMARK    9  A    between atoms: C2_27  and  O2_28 
REMARK   10  A    between atoms: C3_29  and  O3_30 
REMARK   11  A    between atoms: C5_32  and  O5_31 
REMARK   12  A    between atoms: O5_31  and  PD_39 
REMARK   13  A    between atoms: C4_33  and  C5_32 
REMARK   14  A    between atoms: C1_35  and  N1T_43 
REMARK   15  A    between atoms: C3_37  and  O3_38 
REMARK   16  A    between atoms: C5T_50  and  CM5_51 
ROOT
ATOM      1  PA  PAX d         -30.051 -28.422  18.404  0.00  0.00     0.417 P 
ATOM      2  O1A PAX d         -29.351 -29.309  17.371  0.00  0.00    -0.624 OA
ATOM      3  O2A PAX d         -29.530 -28.515  19.842  0.00  0.00    -0.624 OA
ENDROOT
BRANCH   1   4
ATOM      4  O5  PAX d         -30.014 -26.891  17.963  0.00  0.00    -0.287 OA
BRANCH   4   5
ATOM      5  C5  PAX d         -30.945 -26.377  17.038  0.00  0.00     0.058 C 
ATOM      6  H5  PAX d         -31.220 -25.351  17.325  0.00  0.00     0.079 H 
ATOM      7  H6  PAX d         -31.844 -27.010  17.033  0.00  0.00     0.079 H 
BRANCH   5   8
ATOM      8  C4  PAX d         -30.336 -26.365  15.671  0.00  0.00     0.090 C 
ATOM      9  O4  PAX d         -29.741 -27.670  15.368  0.00  0.00    -0.353 OA
ATOM     10  C1  PAX d         -29.889 -27.907  13.985  0.00  0.00     0.140 C 
ATOM     11  C2  PAX d         -31.310 -27.374  13.717  0.00  0.00     0.106 C 
ATOM     12  H8  PAX d         -29.180 -27.282  13.423  0.00  0.00     0.122 H 
ATOM     13  C3  PAX d         -31.339 -26.084  14.551  0.00  0.00     0.107 C 
ATOM     14  H9  PAX d         -32.050 -28.082  14.116  0.00  0.00     0.093 H 
ATOM     15  H11 PAX d         -32.349 -25.877  14.936  0.00  0.00     0.092 H 
ATOM     16  H7  PAX d         -29.555 -25.590  15.652  0.00  0.00     0.090 H 
BRANCH  10  17
ATOM     17  N9A PAX d         -29.558 -29.326  13.648  0.00  0.00    -0.294 N 
ATOM     18  C4A PAX d         -30.377 -30.413  13.365  0.00  0.00     0.167 A 
ATOM     19  N3A PAX d         -31.746 -30.446  13.322  0.00  0.00    -0.222 NA
ATOM     20  C5A PAX d         -29.502 -31.494  13.119  0.00  0.00     0.149 A 
ATOM     21  C2A PAX d         -32.220 -31.692  13.006  0.00  0.00     0.091 A 
ATOM     22  N1A PAX d         -31.494 -32.825  12.746  0.00  0.00    -0.222 NA
ATOM     23  H1  PAX d         -33.298 -31.793  12.956  0.00  0.00     0.146 H 
ATOM     24  C6A PAX d         -30.118 -32.758  12.795  0.00  0.00     0.155 A 
ATOM     25  N6A PAX d         -29.429 -33.865  12.537  0.00  0.00    -0.382 N 
ATOM     26  H2  PAX d         -28.400 -33.850  12.565  0.00  0.00     0.157 HD
ATOM     27  H3  PAX d         -29.924 -34.740  12.308  0.00  0.00     0.157 HD
ATOM     28  N7A PAX d         -28.181 -31.095  13.249  0.00  0.00    -0.236 NA
ATOM     29  C8A PAX d         -28.265 -29.817  13.559  0.00  0.00     0.071 A 
ATOM     30  H4  PAX d         -27.388 -29.195  13.732  0.00  0.00     0.144 H 
ENDBRANCH  10  17
BRANCH  11  31
ATOM     31  O2  PAX d         -31.601 -27.197  12.337  0.00  0.00    -0.388 OA
ATOM     32  H10 PAX d         -31.799 -26.282  12.170  0.00  0.00     0.210 HD
ENDBRANCH  11  31
BRANCH  13  33
ATOM     33  O3  PAX d         -30.842 -24.967  13.810  0.00  0.00    -0.272 OA
BRANCH  33  34
ATOM     34  PG  PAX d         -31.216 -23.422  14.197  0.00  0.00     0.422 P 
ATOM     35  O1G PAX d         -32.443 -23.485  15.104  0.00  0.00    -0.617 OA
ATOM     36  O2G PAX d         -29.977 -22.869  14.888  0.00  0.00    -0.617 OA
ATOM     37  O3G PAX d         -31.522 -22.652  12.899  0.00  0.00    -0.617 OA
ENDBRANCH  33  34
ENDBRANCH  13  33
ENDBRANCH   5   8
ENDBRANCH   4   5
ENDBRANCH   1   4
BRANCH   1  38
ATOM     38  O3A PAX d         -31.611 -28.703  18.395  0.00  0.00    -0.180 OA
BRANCH  38  39
ATOM     39  PB  PAX d         -32.549 -29.639  17.538  0.00  0.00     0.418 P 
ATOM     40  O1B PAX d         -33.940 -29.475  18.002  0.00  0.00    -0.624 OA
ATOM     41  O2B PAX d         -32.241 -29.404  16.109  0.00  0.00    -0.624 OA
BRANCH  39  42
ATOM     42  O3  PAX d         -31.956 -31.123  17.845  0.00  0.00    -0.281 OA
BRANCH  42  43
ATOM     43  C3  PAX d         -31.459 -31.961  16.800  0.00  0.00     0.081 C 
ATOM     44  C4  PAX d         -31.647 -33.430  17.196  0.00  0.00     0.087 C 
ATOM     45  O4  PAX d         -30.329 -33.938  17.540  0.00  0.00    -0.356 OA
ATOM     46  H14 PAX d         -32.300 -33.477  18.080  0.00  0.00     0.090 H 
ATOM     47  C1  PAX d         -29.415 -32.863  17.618  0.00  0.00     0.116 C 
ATOM     48  C2  PAX d         -29.953 -31.794  16.675  0.00  0.00     0.003 C 
ATOM     49  H15 PAX d         -29.379 -32.468  18.644  0.00  0.00     0.118 H 
ATOM     50  H16 PAX d         -29.619 -31.973  15.642  0.00  0.00     0.043 H 
ATOM     51  H17 PAX d         -29.638 -30.790  16.994  0.00  0.00     0.043 H 
ATOM     52  H18 PAX d         -31.966 -31.731  15.851  0.00  0.00     0.088 H 
BRANCH  44  53
ATOM     53  C5  PAX d         -32.271 -34.281  16.101  0.00  0.00     0.059 C 
ATOM     54  H12 PAX d         -32.649 -33.622  15.305  0.00  0.00     0.079 H 
ATOM     55  H13 PAX d         -31.505 -34.954  15.687  0.00  0.00     0.079 H 
BRANCH  53  56
ATOM     56  O5  PAX d         -33.366 -35.072  16.625  0.00  0.00    -0.280 OA
BRANCH  56  57
ATOM     57  PD  PAX d         -34.177 -34.652  17.994  0.00  0.00     0.422 P 
ATOM     58  O1D PAX d         -35.318 -35.680  18.118  0.00  0.00    -0.617 OA
ATOM     59  O2D PAX d         -34.692 -33.211  17.773  0.00  0.00    -0.617 OA
ATOM     60  O3D PAX d         -33.160 -34.757  19.144  0.00  0.00    -0.617 OA
ENDBRANCH  56  57
ENDBRANCH  53  56
ENDBRANCH  44  53
BRANCH  47  61
ATOM     61  N1T PAX d         -28.043 -33.334  17.230  0.00  0.00    -0.282 N 
ATOM     62  C6T PAX d         -27.665 -33.504  15.874  0.00  0.00    -0.002 A 
ATOM     63  C5T PAX d         -26.434 -33.925  15.499  0.00  0.00     0.022 A 
ATOM     64  H19 PAX d         -28.398 -33.287  15.099  0.00  0.00     0.113 H 
ATOM     65  C4T PAX d         -25.437 -34.217  16.534  0.00  0.00     0.256 A 
ATOM     66  N3T PAX d         -25.873 -34.033  17.861  0.00  0.00    -0.275 N 
ATOM     67  O4T PAX d         -24.278 -34.592  16.341  0.00  0.00    -0.267 OA
ATOM     68  C2T PAX d         -27.131 -33.604  18.279  0.00  0.00     0.331 A 
ATOM     69  H20 PAX d         -25.207 -34.232  18.581  0.00  0.00     0.173 HD
ATOM     70  O2T PAX d         -27.409 -33.475  19.449  0.00  0.00    -0.246 OA
BRANCH  63  71
ATOM     71  CM5 PAX d         -26.106 -34.076  14.047  0.00  0.00    -0.045 C 
ATOM     72  H21 PAX d         -26.625 -33.296  13.471  0.00  0.00     0.033 H 
ATOM     73  H22 PAX d         -26.432 -35.067  13.698  0.00  0.00     0.033 H 
ATOM     74  H23 PAX d         -25.020 -33.976  13.904  0.00  0.00     0.033 H 
ENDBRANCH  63  71
ENDBRANCH  47  61
ENDBRANCH  42  43
ENDBRANCH  39  42
ENDBRANCH  38  39
ENDBRANCH   1  38
TORSDOF 16
ENDMDL
