MODEL 1
REMARK VINA RESULT:      -7.2      0.000      0.000
REMARK  5 active torsions:
REMARK  status: ('A' for Active; 'I' for Inactive)
REMARK    1  A    between atoms: C2_2  and  O2_12 
REMARK    2  A    between atoms: C3_4  and  O3_11 
REMARK    3  A    between atoms: C4_5  and  O4_13 
REMARK    4  A    between atoms: C5_6  and  C6_7 
REMARK    5  A    between atoms: C6_7  and  O6_14 
ROOT
ATOM      1  C1  GIM d          30.170  65.852   9.815  0.00  0.00     0.138 A 
ATOM      2  C2  GIM d          31.473  65.296   9.237  0.00  0.00     0.119 C 
ATOM      3  N10 GIM d          29.305  66.516   8.965  0.00  0.00    -0.332 N 
ATOM      4  C3  GIM d          32.034  66.345   8.275  0.00  0.00     0.093 C 
ATOM      5  C4  GIM d          31.055  66.499   7.127  0.00  0.00     0.085 C 
ATOM      6  C5  GIM d          29.620  66.845   7.567  0.00  0.00     0.065 C 
ATOM      7  C7  GIM d          28.473  66.457  10.983  0.00  0.00     0.019 A 
ATOM      8  C8  GIM d          28.231  66.848   9.730  0.00  0.00    -0.001 A 
ATOM      9  N1  GIM d          29.663  65.831  11.027  0.00  0.00    -0.243 NA
ATOM     10  H1  GIM d          31.221  64.398   8.654  0.00  0.00     0.099 H 
ATOM     11  H2  GIM d          32.201  67.309   8.779  0.00  0.00     0.091 H 
ATOM     12  H3  GIM d          31.036  65.556   6.562  0.00  0.00     0.090 H 
ATOM     13  H4  GIM d          29.475  67.928   7.444  0.00  0.00     0.080 H 
ATOM     14  H7  GIM d          27.812  66.620  11.833  0.00  0.00     0.117 H 
ATOM     15  H8  GIM d          27.328  67.347   9.380  0.00  0.00     0.113 H 
ENDROOT
BRANCH   6  16
ATOM     16  C6  GIM d          28.671  66.094   6.592  0.00  0.00     0.038 C 
ATOM     17  H5  GIM d          28.520  66.698   5.685  0.00  0.00     0.077 H 
ATOM     18  H6  GIM d          27.701  65.920   7.082  0.00  0.00     0.077 H 
BRANCH  16  19
ATOM     19  O6  GIM d          29.265  64.834   6.238  0.00  0.00    -0.399 OA
ATOM     20  H12 GIM d          29.201  64.237   6.974  0.00  0.00     0.209 HD
ENDBRANCH  16  19
ENDBRANCH   6  16
BRANCH   5  21
ATOM     21  O4  GIM d          31.479  67.570   6.272  0.00  0.00    -0.391 OA
ATOM     22  H11 GIM d          31.650  68.344   6.796  0.00  0.00     0.210 HD
ENDBRANCH   5  21
BRANCH   4  23
ATOM     23  O3  GIM d          33.284  65.785   7.774  0.00  0.00    -0.390 OA
ATOM     24  H9  GIM d          33.400  66.035   6.866  0.00  0.00     0.210 HD
ENDBRANCH   4  23
BRANCH   2  25
ATOM     25  O2  GIM d          32.422  64.901  10.194  0.00  0.00    -0.385 OA
ATOM     26  H10 GIM d          32.668  65.652  10.721  0.00  0.00     0.210 HD
ENDBRANCH   2  25
TORSDOF 5
ENDMDL
MODEL 2
REMARK VINA RESULT:      -6.1      1.637      3.463
REMARK  5 active torsions:
REMARK  status: ('A' for Active; 'I' for Inactive)
REMARK    1  A    between atoms: C2_2  and  O2_12 
REMARK    2  A    between atoms: C3_4  and  O3_11 
REMARK    3  A    between atoms: C4_5  and  O4_13 
REMARK    4  A    between atoms: C5_6  and  C6_7 
REMARK    5  A    between atoms: C6_7  and  O6_14 
ROOT
ATOM      1  C1  GIM d          29.378  66.353   7.372  0.00  0.00     0.138 A 
ATOM      2  C2  GIM d          30.846  66.772   7.273  0.00  0.00     0.119 C 
ATOM      3  N10 GIM d          28.913  65.868   8.581  0.00  0.00    -0.332 N 
ATOM      4  C3  GIM d          31.674  65.726   8.023  0.00  0.00     0.093 C 
ATOM      5  C4  GIM d          31.281  65.782   9.487  0.00  0.00     0.085 C 
ATOM      6  C5  GIM d          29.773  65.598   9.742  0.00  0.00     0.065 C 
ATOM      7  C7  GIM d          27.295  65.896   7.114  0.00  0.00     0.019 A 
ATOM      8  C8  GIM d          27.588  65.628   8.388  0.00  0.00    -0.001 A 
ATOM      9  N1  GIM d          28.398  66.357   6.495  0.00  0.00    -0.243 NA
ATOM     10  H1  GIM d          30.952  67.733   7.797  0.00  0.00     0.099 H 
ATOM     11  H2  GIM d          31.519  64.717   7.615  0.00  0.00     0.091 H 
ATOM     12  H3  GIM d          31.594  66.755   9.891  0.00  0.00     0.090 H 
ATOM     13  H4  GIM d          29.601  64.553  10.041  0.00  0.00     0.080 H 
ATOM     14  H7  GIM d          26.319  65.764   6.650  0.00  0.00     0.117 H 
ATOM     15  H8  GIM d          26.887  65.277   9.144  0.00  0.00     0.113 H 
ENDROOT
BRANCH   6  16
ATOM     16  C6  GIM d          29.413  66.531  10.930  0.00  0.00     0.038 C 
ATOM     17  H5  GIM d          29.186  67.539  10.552  0.00  0.00     0.077 H 
ATOM     18  H6  GIM d          30.263  66.584  11.628  0.00  0.00     0.077 H 
BRANCH  16  19
ATOM     19  O6  GIM d          28.264  66.002  11.610  0.00  0.00    -0.399 OA
ATOM     20  H12 GIM d          27.580  65.817  10.977  0.00  0.00     0.209 HD
ENDBRANCH  16  19
ENDBRANCH   6  16
BRANCH   5  21
ATOM     21  O4  GIM d          31.938  64.725  10.202  0.00  0.00    -0.391 OA
ATOM     22  H11 GIM d          31.424  64.494  10.967  0.00  0.00     0.210 HD
ENDBRANCH   5  21
BRANCH   4  23
ATOM     23  O3  GIM d          33.061  66.151   7.877  0.00  0.00    -0.390 OA
ATOM     24  H9  GIM d          33.292  66.729   8.594  0.00  0.00     0.210 HD
ENDBRANCH   4  23
BRANCH   2  25
ATOM     25  O2  GIM d          31.315  66.972   5.965  0.00  0.00    -0.385 OA
ATOM     26  H10 GIM d          31.542  66.134   5.580  0.00  0.00     0.210 HD
ENDBRANCH   2  25
TORSDOF 5
ENDMDL
MODEL 3
REMARK VINA RESULT:      -4.7      2.108      4.602
REMARK  5 active torsions:
REMARK  status: ('A' for Active; 'I' for Inactive)
REMARK    1  A    between atoms: C2_2  and  O2_12 
REMARK    2  A    between atoms: C3_4  and  O3_11 
REMARK    3  A    between atoms: C4_5  and  O4_13 
REMARK    4  A    between atoms: C5_6  and  C6_7 
REMARK    5  A    between atoms: C6_7  and  O6_14 
ROOT
ATOM      1  C1  GIM d          29.594  66.218   7.491  0.00  0.00     0.138 A 
ATOM      2  C2  GIM d          28.288  65.899   8.221  0.00  0.00     0.119 C 
ATOM      3  N10 GIM d          30.771  66.205   8.216  0.00  0.00    -0.332 N 
ATOM      4  C3  GIM d          28.334  66.604   9.578  0.00  0.00     0.093 C 
ATOM      5  C4  GIM d          29.466  65.996  10.383  0.00  0.00     0.085 C 
ATOM      6  C5  GIM d          30.834  66.039   9.676  0.00  0.00     0.065 C 
ATOM      7  C7  GIM d          31.184  66.694   6.129  0.00  0.00     0.019 A 
ATOM      8  C8  GIM d          31.754  66.472   7.315  0.00  0.00    -0.001 A 
ATOM      9  N1  GIM d          29.853  66.523   6.239  0.00  0.00    -0.243 NA
ATOM     10  H1  GIM d          28.265  64.814   8.400  0.00  0.00     0.099 H 
ATOM     11  H2  GIM d          28.472  67.690   9.465  0.00  0.00     0.091 H 
ATOM     12  H3  GIM d          29.211  64.949  10.600  0.00  0.00     0.090 H 
ATOM     13  H4  GIM d          31.402  66.891  10.078  0.00  0.00     0.080 H 
ATOM     14  H7  GIM d          31.711  66.970   5.217  0.00  0.00     0.117 H 
ATOM     15  H8  GIM d          32.822  66.499   7.524  0.00  0.00     0.113 H 
ENDROOT
BRANCH   6  16
ATOM     16  C6  GIM d          31.564  64.720  10.054  0.00  0.00     0.038 C 
ATOM     17  H5  GIM d          31.600  64.055   9.180  0.00  0.00     0.077 H 
ATOM     18  H6  GIM d          31.022  64.222  10.873  0.00  0.00     0.077 H 
BRANCH  16  19
ATOM     19  O6  GIM d          32.901  65.030  10.480  0.00  0.00    -0.399 OA
ATOM     20  H12 GIM d          32.980  65.968  10.613  0.00  0.00     0.209 HD
ENDBRANCH  16  19
ENDBRANCH   6  16
BRANCH   5  21
ATOM     21  O4  GIM d          29.628  66.721  11.610  0.00  0.00    -0.391 OA
ATOM     22  H11 GIM d          28.820  66.684  12.107  0.00  0.00     0.210 HD
ENDBRANCH   5  21
BRANCH   4  23
ATOM     23  O3  GIM d          27.062  66.295  10.220  0.00  0.00    -0.390 OA
ATOM     24  H9  GIM d          26.355  66.423   9.599  0.00  0.00     0.210 HD
ENDBRANCH   4  23
BRANCH   2  25
ATOM     25  O2  GIM d          27.121  66.214   7.506  0.00  0.00    -0.385 OA
ATOM     26  H10 GIM d          26.361  65.963   8.016  0.00  0.00     0.210 HD
ENDBRANCH   2  25
TORSDOF 5
ENDMDL
MODEL 4
REMARK VINA RESULT:      -4.5      1.394      3.407
REMARK  5 active torsions:
REMARK  status: ('A' for Active; 'I' for Inactive)
REMARK    1  A    between atoms: C2_2  and  O2_12 
REMARK    2  A    between atoms: C3_4  and  O3_11 
REMARK    3  A    between atoms: C4_5  and  O4_13 
REMARK    4  A    between atoms: C5_6  and  C6_7 
REMARK    5  A    between atoms: C6_7  and  O6_14 
ROOT
ATOM      1  C1  GIM d          28.927  65.957   8.533  0.00  0.00     0.138 A 
ATOM      2  C2  GIM d          29.491  66.938   7.503  0.00  0.00     0.119 C 
ATOM      3  N10 GIM d          29.802  65.364   9.424  0.00  0.00    -0.332 N 
ATOM      4  C3  GIM d          30.803  66.350   6.978  0.00  0.00     0.093 C 
ATOM      5  C4  GIM d          31.783  66.288   8.135  0.00  0.00     0.085 C 
ATOM      6  C5  GIM d          31.264  65.510   9.358  0.00  0.00     0.065 C 
ATOM      7  C7  GIM d          27.766  64.677   9.808  0.00  0.00     0.019 A 
ATOM      8  C8  GIM d          29.027  64.595  10.235  0.00  0.00    -0.001 A 
ATOM      9  N1  GIM d          27.706  65.529   8.767  0.00  0.00    -0.243 NA
ATOM     10  H1  GIM d          29.722  67.874   8.030  0.00  0.00     0.099 H 
ATOM     11  H2  GIM d          30.653  65.353   6.539  0.00  0.00     0.091 H 
ATOM     12  H3  GIM d          32.019  67.318   8.441  0.00  0.00     0.090 H 
ATOM     13  H4  GIM d          31.693  64.498   9.329  0.00  0.00     0.080 H 
ATOM     14  H7  GIM d          26.919  64.140  10.233  0.00  0.00     0.117 H 
ATOM     15  H8  GIM d          29.376  64.013  11.086  0.00  0.00     0.113 H 
ENDROOT
BRANCH   6  16
ATOM     16  C6  GIM d          31.806  66.253  10.611  0.00  0.00     0.038 C 
ATOM     17  H5  GIM d          31.115  66.107  11.454  0.00  0.00     0.077 H 
ATOM     18  H6  GIM d          31.895  67.328  10.392  0.00  0.00     0.077 H 
BRANCH  16  19
ATOM     19  O6  GIM d          33.097  65.722  10.948  0.00  0.00    -0.399 OA
ATOM     20  H12 GIM d          33.348  65.069  10.305  0.00  0.00     0.209 HD
ENDBRANCH  16  19
ENDBRANCH   6  16
BRANCH   5  21
ATOM     21  O4  GIM d          32.981  65.619   7.715  0.00  0.00    -0.391 OA
ATOM     22  H11 GIM d          33.701  65.882   8.275  0.00  0.00     0.210 HD
ENDBRANCH   5  21
BRANCH   4  23
ATOM     23  O3  GIM d          31.285  67.301   5.984  0.00  0.00    -0.390 OA
ATOM     24  H9  GIM d          30.998  68.176   6.219  0.00  0.00     0.210 HD
ENDBRANCH   4  23
BRANCH   2  25
ATOM     25  O2  GIM d          28.611  67.268   6.460  0.00  0.00    -0.385 OA
ATOM     26  H10 GIM d          27.926  67.835   6.793  0.00  0.00     0.210 HD
ENDBRANCH   2  25
TORSDOF 5
ENDMDL
