MODEL 1
REMARK VINA RESULT:      -6.5      0.000      0.000
REMARK  6 active torsions:
REMARK  status: ('A' for Active; 'I' for Inactive)
REMARK    1  A    between atoms: C1_1  and  O1_7 
REMARK    2  A    between atoms: C2_2  and  O2_8 
REMARK    3  A    between atoms: C3_3  and  O3_9 
REMARK    4  A    between atoms: C4_4  and  O4_10 
REMARK    5  A    between atoms: C5_5  and  C6_6 
REMARK    6  A    between atoms: O1_7  and  CM_12 
ROOT
ATOM      1  C1  MFU d         -40.055  20.473  11.012  0.00  0.00     0.158 C 
ATOM      2  C2  MFU d         -38.671  19.932  11.214  0.00  0.00     0.110 C 
ATOM      3  C3  MFU d         -38.157  20.305  12.618  0.00  0.00     0.092 C 
ATOM      4  C4  MFU d         -39.101  19.935  13.755  0.00  0.00     0.087 C 
ATOM      5  C5  MFU d         -40.455  20.551  13.443  0.00  0.00     0.065 C 
ATOM      6  O5  MFU d         -40.894  20.078  12.140  0.00  0.00    -0.351 OA
ATOM      7  H1  MFU d         -40.478  20.078  10.077  0.00  0.00     0.133 H 
ATOM      8  H2  MFU d         -38.729  18.835  11.145  0.00  0.00     0.094 H 
ATOM      9  H3  MFU d         -37.982  21.390  12.651  0.00  0.00     0.091 H 
ATOM     10  H4  MFU d         -38.731  20.348  14.705  0.00  0.00     0.091 H 
ATOM     11  H5  MFU d         -40.309  21.638  13.360  0.00  0.00     0.086 H 
ENDROOT
BRANCH   1  12
ATOM     12  O1  MFU d         -39.990  21.914  10.950  0.00  0.00    -0.363 OA
BRANCH  12  13
ATOM     13  CM  MFU d         -41.063  22.404  10.094  0.00  0.00     0.007 C 
ATOM     14  H12 MFU d         -41.831  21.624   9.985  0.00  0.00     0.066 H 
ATOM     15  H13 MFU d         -40.655  22.658   9.104  0.00  0.00     0.066 H 
ATOM     16  H14 MFU d         -41.513  23.301  10.546  0.00  0.00     0.066 H 
ENDBRANCH  12  13
ENDBRANCH   1  12
BRANCH   2  17
ATOM     17  O2  MFU d         -37.724  20.391  10.212  0.00  0.00    -0.388 OA
ATOM     18  H9  MFU d         -37.712  19.779   9.485  0.00  0.00     0.210 HD
ENDBRANCH   2  17
BRANCH   3  19
ATOM     19  O3  MFU d         -36.911  19.601  12.810  0.00  0.00    -0.390 OA
ATOM     20  H10 MFU d         -36.191  20.148  12.519  0.00  0.00     0.210 HD
ENDBRANCH   3  19
BRANCH   5  21
ATOM     21  C6  MFU d         -41.489  20.339  14.570  0.00  0.00    -0.050 C 
ATOM     22  H6  MFU d         -42.376  19.832  14.163  0.00  0.00     0.031 H 
ATOM     23  H7  MFU d         -41.781  21.314  14.987  0.00  0.00     0.031 H 
ATOM     24  H8  MFU d         -41.045  19.719  15.364  0.00  0.00     0.031 H 
ENDBRANCH   5  21
BRANCH   4  25
ATOM     25  O4  MFU d         -39.136  18.493  13.853  0.00  0.00    -0.390 OA
ATOM     26  H11 MFU d         -38.787  18.225  14.696  0.00  0.00     0.210 HD
ENDBRANCH   4  25
TORSDOF 6
ENDMDL
MODEL 2
REMARK VINA RESULT:      -5.1      1.703      3.411
REMARK  6 active torsions:
REMARK  status: ('A' for Active; 'I' for Inactive)
REMARK    1  A    between atoms: C1_1  and  O1_7 
REMARK    2  A    between atoms: C2_2  and  O2_8 
REMARK    3  A    between atoms: C3_3  and  O3_9 
REMARK    4  A    between atoms: C4_4  and  O4_10 
REMARK    5  A    between atoms: C5_5  and  C6_6 
REMARK    6  A    between atoms: O1_7  and  CM_12 
ROOT
ATOM      1  C1  MFU d         -39.900  21.922  13.660  0.00  0.00     0.158 C 
ATOM      2  C2  MFU d         -39.633  20.579  14.271  0.00  0.00     0.110 C 
ATOM      3  C3  MFU d         -39.450  19.522  13.164  0.00  0.00     0.092 C 
ATOM      4  C4  MFU d         -38.426  19.893  12.099  0.00  0.00     0.087 C 
ATOM      5  C5  MFU d         -38.813  21.257  11.550  0.00  0.00     0.065 C 
ATOM      6  O5  MFU d         -38.880  22.202  12.653  0.00  0.00    -0.351 OA
ATOM      7  H1  MFU d         -39.877  22.698  14.439  0.00  0.00     0.133 H 
ATOM      8  H2  MFU d         -38.695  20.652  14.840  0.00  0.00     0.094 H 
ATOM      9  H3  MFU d         -40.420  19.357  12.671  0.00  0.00     0.091 H 
ATOM     10  H4  MFU d         -38.448  19.159  11.280  0.00  0.00     0.091 H 
ATOM     11  H5  MFU d         -39.829  21.168  11.138  0.00  0.00     0.086 H 
ENDROOT
BRANCH   1  12
ATOM     12  O1  MFU d         -41.198  21.901  13.029  0.00  0.00    -0.363 OA
BRANCH  12  13
ATOM     13  CM  MFU d         -41.953  23.075  13.449  0.00  0.00     0.007 C 
ATOM     14  H12 MFU d         -41.672  23.342  14.478  0.00  0.00     0.066 H 
ATOM     15  H13 MFU d         -43.030  22.852  13.409  0.00  0.00     0.066 H 
ATOM     16  H14 MFU d         -41.728  23.916  12.777  0.00  0.00     0.066 H 
ENDBRANCH  12  13
ENDBRANCH   1  12
BRANCH   2  17
ATOM     17  O2  MFU d         -40.676  20.148  15.186  0.00  0.00    -0.388 OA
ATOM     18  H9  MFU d         -41.168  20.905  15.484  0.00  0.00     0.210 HD
ENDBRANCH   2  17
BRANCH   3  19
ATOM     19  O3  MFU d         -39.017  18.307  13.812  0.00  0.00    -0.390 OA
ATOM     20  H10 MFU d         -39.263  18.333  14.729  0.00  0.00     0.210 HD
ENDBRANCH   3  19
BRANCH   5  21
ATOM     21  C6  MFU d         -37.912  21.715  10.383  0.00  0.00    -0.050 C 
ATOM     22  H6  MFU d         -36.960  22.095  10.782  0.00  0.00     0.031 H 
ATOM     23  H7  MFU d         -38.419  22.512   9.820  0.00  0.00     0.031 H 
ATOM     24  H8  MFU d         -37.715  20.863   9.715  0.00  0.00     0.031 H 
ENDBRANCH   5  21
BRANCH   4  25
ATOM     25  O4  MFU d         -37.118  19.872  12.713  0.00  0.00    -0.390 OA
ATOM     26  H11 MFU d         -36.530  20.438  12.224  0.00  0.00     0.210 HD
ENDBRANCH   4  25
TORSDOF 6
ENDMDL
MODEL 3
REMARK VINA RESULT:      -5.1      1.219      3.451
REMARK  6 active torsions:
REMARK  status: ('A' for Active; 'I' for Inactive)
REMARK    1  A    between atoms: C1_1  and  O1_7 
REMARK    2  A    between atoms: C2_2  and  O2_8 
REMARK    3  A    between atoms: C3_3  and  O3_9 
REMARK    4  A    between atoms: C4_4  and  O4_10 
REMARK    5  A    between atoms: C5_5  and  C6_6 
REMARK    6  A    between atoms: O1_7  and  CM_12 
ROOT
ATOM      1  C1  MFU d         -39.219  21.105  13.208  0.00  0.00     0.158 C 
ATOM      2  C2  MFU d         -38.043  20.822  12.322  0.00  0.00     0.110 C 
ATOM      3  C3  MFU d         -38.510  20.640  10.865  0.00  0.00     0.092 C 
ATOM      4  C4  MFU d         -39.381  21.772  10.335  0.00  0.00     0.087 C 
ATOM      5  C5  MFU d         -40.538  21.950  11.304  0.00  0.00     0.065 C 
ATOM      6  O5  MFU d         -40.001  22.196  12.632  0.00  0.00    -0.351 OA
ATOM      7  H1  MFU d         -38.871  21.386  14.213  0.00  0.00     0.133 H 
ATOM      8  H2  MFU d         -37.374  21.694  12.366  0.00  0.00     0.094 H 
ATOM      9  H3  MFU d         -39.078  19.701  10.793  0.00  0.00     0.091 H 
ATOM     10  H4  MFU d         -39.782  21.510   9.345  0.00  0.00     0.091 H 
ATOM     11  H5  MFU d         -41.079  20.993  11.347  0.00  0.00     0.086 H 
ENDROOT
BRANCH   1  12
ATOM     12  O1  MFU d         -40.042  19.922  13.288  0.00  0.00    -0.363 OA
BRANCH  12  13
ATOM     13  CM  MFU d         -40.958  20.052  14.414  0.00  0.00     0.007 C 
ATOM     14  H12 MFU d         -40.388  20.281  15.326  0.00  0.00     0.066 H 
ATOM     15  H13 MFU d         -41.506  19.108  14.552  0.00  0.00     0.066 H 
ATOM     16  H14 MFU d         -41.672  20.865  14.214  0.00  0.00     0.066 H 
ENDBRANCH  12  13
ENDBRANCH   1  12
BRANCH   2  17
ATOM     17  O2  MFU d         -37.280  19.656  12.737  0.00  0.00    -0.388 OA
ATOM     18  H9  MFU d         -36.570  19.929  13.306  0.00  0.00     0.210 HD
ENDBRANCH   2  17
BRANCH   3  19
ATOM     19  O3  MFU d         -37.321  20.557  10.050  0.00  0.00    -0.390 OA
ATOM     20  H10 MFU d         -37.560  20.296   9.169  0.00  0.00     0.210 HD
ENDBRANCH   3  19
BRANCH   5  21
ATOM     21  C6  MFU d         -41.563  23.004  10.834  0.00  0.00    -0.050 C 
ATOM     22  H6  MFU d         -41.983  23.522  11.709  0.00  0.00     0.031 H 
ATOM     23  H7  MFU d         -42.371  22.507  10.278  0.00  0.00     0.031 H 
ATOM     24  H8  MFU d         -41.064  23.735  10.180  0.00  0.00     0.031 H 
ENDBRANCH   5  21
BRANCH   4  25
ATOM     25  O4  MFU d         -38.552  22.950  10.209  0.00  0.00    -0.390 OA
ATOM     26  H11 MFU d         -37.661  22.737  10.461  0.00  0.00     0.210 HD
ENDBRANCH   4  25
TORSDOF 6
ENDMDL
MODEL 4
REMARK VINA RESULT:      -4.9      1.368      1.440
REMARK  6 active torsions:
REMARK  status: ('A' for Active; 'I' for Inactive)
REMARK    1  A    between atoms: C1_1  and  O1_7 
REMARK    2  A    between atoms: C2_2  and  O2_8 
REMARK    3  A    between atoms: C3_3  and  O3_9 
REMARK    4  A    between atoms: C4_4  and  O4_10 
REMARK    5  A    between atoms: C5_5  and  C6_6 
REMARK    6  A    between atoms: O1_7  and  CM_12 
ROOT
ATOM      1  C1  MFU d         -39.798  21.243  11.511  0.00  0.00     0.158 C 
ATOM      2  C2  MFU d         -38.892  20.204  12.102  0.00  0.00     0.110 C 
ATOM      3  C3  MFU d         -38.706  20.460  13.610  0.00  0.00     0.092 C 
ATOM      4  C4  MFU d         -40.007  20.613  14.390  0.00  0.00     0.087 C 
ATOM      5  C5  MFU d         -40.824  21.697  13.706  0.00  0.00     0.065 C 
ATOM      6  O5  MFU d         -41.015  21.329  12.313  0.00  0.00    -0.351 OA
ATOM      7  H1  MFU d         -40.052  20.972  10.476  0.00  0.00     0.133 H 
ATOM      8  H2  MFU d         -39.378  19.226  11.972  0.00  0.00     0.094 H 
ATOM      9  H3  MFU d         -38.113  21.377  13.741  0.00  0.00     0.091 H 
ATOM     10  H4  MFU d         -39.794  20.923  15.423  0.00  0.00     0.091 H 
ATOM     11  H5  MFU d         -40.221  22.617  13.718  0.00  0.00     0.086 H 
ENDROOT
BRANCH   1  12
ATOM     12  O1  MFU d         -39.124  22.520  11.532  0.00  0.00    -0.363 OA
BRANCH  12  13
ATOM     13  CM  MFU d         -39.122  23.081  10.187  0.00  0.00     0.007 C 
ATOM     14  H12 MFU d         -40.085  23.577   9.995  0.00  0.00     0.066 H 
ATOM     15  H13 MFU d         -38.972  22.275   9.454  0.00  0.00     0.066 H 
ATOM     16  H14 MFU d         -38.307  23.815  10.097  0.00  0.00     0.066 H 
ENDBRANCH  12  13
ENDBRANCH   1  12
BRANCH   2  17
ATOM     17  O2  MFU d         -37.591  20.143  11.456  0.00  0.00    -0.388 OA
ATOM     18  H9  MFU d         -37.678  20.403  10.546  0.00  0.00     0.210 HD
ENDBRANCH   2  17
BRANCH   3  19
ATOM     19  O3  MFU d         -37.984  19.329  14.142  0.00  0.00    -0.390 OA
ATOM     20  H10 MFU d         -37.812  19.470  15.065  0.00  0.00     0.210 HD
ENDBRANCH   3  19
BRANCH   5  21
ATOM     21  C6  MFU d         -42.132  22.029  14.455  0.00  0.00    -0.050 C 
ATOM     22  H6  MFU d         -42.993  21.749  13.831  0.00  0.00     0.031 H 
ATOM     23  H7  MFU d         -42.169  23.108  14.669  0.00  0.00     0.031 H 
ATOM     24  H8  MFU d         -42.166  21.467  15.401  0.00  0.00     0.031 H 
ENDBRANCH   5  21
BRANCH   4  25
ATOM     25  O4  MFU d         -40.666  19.327  14.412  0.00  0.00    -0.390 OA
ATOM     26  H11 MFU d         -40.064  18.669  14.743  0.00  0.00     0.210 HD
ENDBRANCH   4  25
TORSDOF 6
ENDMDL
MODEL 5
REMARK VINA RESULT:      -4.0      2.024      2.658
REMARK  6 active torsions:
REMARK  status: ('A' for Active; 'I' for Inactive)
REMARK    1  A    between atoms: C1_1  and  O1_7 
REMARK    2  A    between atoms: C2_2  and  O2_8 
REMARK    3  A    between atoms: C3_3  and  O3_9 
REMARK    4  A    between atoms: C4_4  and  O4_10 
REMARK    5  A    between atoms: C5_5  and  C6_6 
REMARK    6  A    between atoms: O1_7  and  CM_12 
ROOT
ATOM      1  C1  MFU d         -39.313  22.775  12.688  0.00  0.00     0.158 C 
ATOM      2  C2  MFU d         -38.793  22.062  11.476  0.00  0.00     0.110 C 
ATOM      3  C3  MFU d         -38.531  20.579  11.807  0.00  0.00     0.092 C 
ATOM      4  C4  MFU d         -39.709  19.858  12.450  0.00  0.00     0.087 C 
ATOM      5  C5  MFU d         -40.130  20.665  13.667  0.00  0.00     0.065 C 
ATOM      6  O5  MFU d         -40.434  22.022  13.244  0.00  0.00    -0.351 OA
ATOM      7  H1  MFU d         -39.643  23.787  12.413  0.00  0.00     0.133 H 
ATOM      8  H2  MFU d         -39.571  22.112  10.700  0.00  0.00     0.094 H 
ATOM      9  H3  MFU d         -37.671  20.519  12.491  0.00  0.00     0.091 H 
ATOM     10  H4  MFU d         -39.404  18.852  12.776  0.00  0.00     0.091 H 
ATOM     11  H5  MFU d         -39.260  20.723  14.338  0.00  0.00     0.086 H 
ENDROOT
BRANCH   1  12
ATOM     12  O1  MFU d         -38.260  22.855  13.673  0.00  0.00    -0.363 OA
BRANCH  12  13
ATOM     13  CM  MFU d         -38.849  23.101  14.983  0.00  0.00     0.007 C 
ATOM     14  H12 MFU d         -38.401  22.420  15.721  0.00  0.00     0.066 H 
ATOM     15  H13 MFU d         -39.934  22.928  14.936  0.00  0.00     0.066 H 
ATOM     16  H14 MFU d         -38.657  24.143  15.282  0.00  0.00     0.066 H 
ENDBRANCH  12  13
ENDBRANCH   1  12
BRANCH   2  17
ATOM     17  O2  MFU d         -37.585  22.659  10.933  0.00  0.00    -0.388 OA
ATOM     18  H9  MFU d         -37.308  22.170  10.167  0.00  0.00     0.210 HD
ENDBRANCH   2  17
BRANCH   3  19
ATOM     19  O3  MFU d         -38.215  19.921  10.562  0.00  0.00    -0.390 OA
ATOM     20  H10 MFU d         -38.805  20.227   9.884  0.00  0.00     0.210 HD
ENDBRANCH   3  19
BRANCH   5  21
ATOM     21  C6  MFU d         -41.257  19.991  14.478  0.00  0.00    -0.050 C 
ATOM     22  H6  MFU d         -41.254  20.384  15.506  0.00  0.00     0.031 H 
ATOM     23  H7  MFU d         -41.093  18.904  14.500  0.00  0.00     0.031 H 
ATOM     24  H8  MFU d         -42.228  20.206  14.006  0.00  0.00     0.031 H 
ENDBRANCH   5  21
BRANCH   4  25
ATOM     25  O4  MFU d         -40.751  19.733  11.456  0.00  0.00    -0.390 OA
ATOM     26  H11 MFU d         -40.957  20.593  11.106  0.00  0.00     0.210 HD
ENDBRANCH   4  25
TORSDOF 6
ENDMDL
MODEL 6
REMARK VINA RESULT:      -4.0      1.900      3.630
REMARK  6 active torsions:
REMARK  status: ('A' for Active; 'I' for Inactive)
REMARK    1  A    between atoms: C1_1  and  O1_7 
REMARK    2  A    between atoms: C2_2  and  O2_8 
REMARK    3  A    between atoms: C3_3  and  O3_9 
REMARK    4  A    between atoms: C4_4  and  O4_10 
REMARK    5  A    between atoms: C5_5  and  C6_6 
REMARK    6  A    between atoms: O1_7  and  CM_12 
ROOT
ATOM      1  C1  MFU d         -40.232  20.165  12.988  0.00  0.00     0.158 C 
ATOM      2  C2  MFU d         -40.250  20.531  11.534  0.00  0.00     0.110 C 
ATOM      3  C3  MFU d         -40.275  22.064  11.374  0.00  0.00     0.092 C 
ATOM      4  C4  MFU d         -39.186  22.797  12.148  0.00  0.00     0.087 C 
ATOM      5  C5  MFU d         -39.281  22.356  13.599  0.00  0.00     0.065 C 
ATOM      6  O5  MFU d         -39.166  20.908  13.655  0.00  0.00    -0.351 OA
ATOM      7  H1  MFU d         -40.059  19.085  13.099  0.00  0.00     0.133 H 
ATOM      8  H2  MFU d         -39.323  20.150  11.082  0.00  0.00     0.094 H 
ATOM      9  H3  MFU d         -41.253  22.437  11.713  0.00  0.00     0.091 H 
ATOM     10  H4  MFU d         -39.348  23.883  12.092  0.00  0.00     0.091 H 
ATOM     11  H5  MFU d         -40.290  22.615  13.954  0.00  0.00     0.086 H 
ENDROOT
BRANCH   1  12
ATOM     12  O1  MFU d         -41.501  20.522  13.577  0.00  0.00    -0.363 OA
BRANCH  12  13
ATOM     13  CM  MFU d         -41.507  20.119  14.977  0.00  0.00     0.007 C 
ATOM     14  H12 MFU d         -40.552  20.402  15.445  0.00  0.00     0.066 H 
ATOM     15  H13 MFU d         -41.639  19.029  15.045  0.00  0.00     0.066 H 
ATOM     16  H14 MFU d         -42.334  20.621  15.500  0.00  0.00     0.066 H 
ENDBRANCH  12  13
ENDBRANCH   1  12
BRANCH   2  17
ATOM     17  O2  MFU d         -41.369  19.949  10.810  0.00  0.00    -0.388 OA
ATOM     18  H9  MFU d         -41.288  19.003  10.812  0.00  0.00     0.210 HD
ENDBRANCH   2  17
BRANCH   3  19
ATOM     19  O3  MFU d         -40.105  22.342   9.968  0.00  0.00    -0.390 OA
ATOM     20  H10 MFU d         -40.592  21.706   9.458  0.00  0.00     0.210 HD
ENDBRANCH   3  19
BRANCH   5  21
ATOM     21  C6  MFU d         -38.294  23.102  14.522  0.00  0.00    -0.050 C 
ATOM     22  H6  MFU d         -37.807  22.382  15.196  0.00  0.00     0.031 H 
ATOM     23  H7  MFU d         -38.841  23.849  15.117  0.00  0.00     0.031 H 
ATOM     24  H8  MFU d         -37.531  23.608  13.912  0.00  0.00     0.031 H 
ENDBRANCH   5  21
BRANCH   4  25
ATOM     25  O4  MFU d         -37.915  22.481  11.535  0.00  0.00    -0.390 OA
ATOM     26  H11 MFU d         -37.780  23.043  10.780  0.00  0.00     0.210 HD
ENDBRANCH   4  25
TORSDOF 6
ENDMDL
MODEL 7
REMARK VINA RESULT:      -3.9      2.266      3.185
REMARK  6 active torsions:
REMARK  status: ('A' for Active; 'I' for Inactive)
REMARK    1  A    between atoms: C1_1  and  O1_7 
REMARK    2  A    between atoms: C2_2  and  O2_8 
REMARK    3  A    between atoms: C3_3  and  O3_9 
REMARK    4  A    between atoms: C4_4  and  O4_10 
REMARK    5  A    between atoms: C5_5  and  C6_6 
REMARK    6  A    between atoms: O1_7  and  CM_12 
ROOT
ATOM      1  C1  MFU d         -39.612  21.823  12.193  0.00  0.00     0.158 C 
ATOM      2  C2  MFU d         -40.623  20.817  12.654  0.00  0.00     0.110 C 
ATOM      3  C3  MFU d         -40.158  20.165  13.971  0.00  0.00     0.092 C 
ATOM      4  C4  MFU d         -39.776  21.154  15.065  0.00  0.00     0.087 C 
ATOM      5  C5  MFU d         -38.741  22.103  14.482  0.00  0.00     0.065 C 
ATOM      6  O5  MFU d         -39.299  22.728  13.295  0.00  0.00    -0.351 OA
ATOM      7  H1  MFU d         -40.014  22.394  11.343  0.00  0.00     0.133 H 
ATOM      8  H2  MFU d         -41.564  21.354  12.846  0.00  0.00     0.094 H 
ATOM      9  H3  MFU d         -39.287  19.527  13.759  0.00  0.00     0.091 H 
ATOM     10  H4  MFU d         -39.332  20.621  15.919  0.00  0.00     0.091 H 
ATOM     11  H5  MFU d         -37.886  21.493  14.155  0.00  0.00     0.086 H 
ENDROOT
BRANCH   1  12
ATOM     12  O1  MFU d         -38.410  21.130  11.792  0.00  0.00    -0.363 OA
BRANCH  12  13
ATOM     13  CM  MFU d         -38.000  21.606  10.478  0.00  0.00     0.007 C 
ATOM     14  H12 MFU d         -37.140  21.016  10.125  0.00  0.00     0.066 H 
ATOM     15  H13 MFU d         -37.713  22.666  10.545  0.00  0.00     0.066 H 
ATOM     16  H14 MFU d         -38.835  21.496   9.770  0.00  0.00     0.066 H 
ENDBRANCH  12  13
ENDBRANCH   1  12
BRANCH   2  17
ATOM     17  O2  MFU d         -40.894  19.783  11.670  0.00  0.00    -0.388 OA
ATOM     18  H9  MFU d         -41.834  19.681  11.569  0.00  0.00     0.210 HD
ENDBRANCH   2  17
BRANCH   3  19
ATOM     19  O3  MFU d         -41.254  19.354  14.448  0.00  0.00    -0.390 OA
ATOM     20  H10 MFU d         -41.763  19.045  13.709  0.00  0.00     0.210 HD
ENDBRANCH   3  19
BRANCH   5  21
ATOM     21  C6  MFU d         -38.187  23.102  15.520  0.00  0.00    -0.050 C 
ATOM     22  H6  MFU d         -38.928  23.250  16.319  0.00  0.00     0.031 H 
ATOM     23  H7  MFU d         -37.980  24.064  15.028  0.00  0.00     0.031 H 
ATOM     24  H8  MFU d         -37.257  22.704  15.952  0.00  0.00     0.031 H 
ENDBRANCH   5  21
BRANCH   4  25
ATOM     25  O4  MFU d         -40.982  21.820  15.504  0.00  0.00    -0.390 OA
ATOM     26  H11 MFU d         -40.848  22.761  15.483  0.00  0.00     0.210 HD
ENDBRANCH   4  25
TORSDOF 6
ENDMDL
MODEL 8
REMARK VINA RESULT:      -3.9      1.608      2.255
REMARK  6 active torsions:
REMARK  status: ('A' for Active; 'I' for Inactive)
REMARK    1  A    between atoms: C1_1  and  O1_7 
REMARK    2  A    between atoms: C2_2  and  O2_8 
REMARK    3  A    between atoms: C3_3  and  O3_9 
REMARK    4  A    between atoms: C4_4  and  O4_10 
REMARK    5  A    between atoms: C5_5  and  C6_6 
REMARK    6  A    between atoms: O1_7  and  CM_12 
ROOT
ATOM      1  C1  MFU d         -40.627  21.154  10.394  0.00  0.00     0.158 C 
ATOM      2  C2  MFU d         -39.345  21.883  10.123  0.00  0.00     0.110 C 
ATOM      3  C3  MFU d         -38.634  22.216  11.449  0.00  0.00     0.092 C 
ATOM      4  C4  MFU d         -38.443  21.024  12.379  0.00  0.00     0.087 C 
ATOM      5  C5  MFU d         -39.806  20.384  12.588  0.00  0.00     0.065 C 
ATOM      6  O5  MFU d         -40.360  20.033  11.290  0.00  0.00    -0.351 OA
ATOM      7  H1  MFU d         -41.053  20.784   9.450  0.00  0.00     0.133 H 
ATOM      8  H2  MFU d         -38.697  21.213   9.540  0.00  0.00     0.094 H 
ATOM      9  H3  MFU d         -39.220  22.980  11.980  0.00  0.00     0.091 H 
ATOM     10  H4  MFU d         -38.054  21.361  13.351  0.00  0.00     0.091 H 
ATOM     11  H5  MFU d         -40.464  21.151  13.023  0.00  0.00     0.086 H 
ENDROOT
BRANCH   1  12
ATOM     12  O1  MFU d         -41.555  22.059  11.030  0.00  0.00    -0.363 OA
BRANCH  12  13
ATOM     13  CM  MFU d         -42.354  22.721  10.006  0.00  0.00     0.007 C 
ATOM     14  H12 MFU d         -43.304  22.182   9.877  0.00  0.00     0.066 H 
ATOM     15  H13 MFU d         -41.802  22.722   9.054  0.00  0.00     0.066 H 
ATOM     16  H14 MFU d         -42.559  23.757  10.313  0.00  0.00     0.066 H 
ENDBRANCH  12  13
ENDBRANCH   1  12
BRANCH   2  17
ATOM     17  O2  MFU d         -39.530  23.102   9.353  0.00  0.00    -0.388 OA
ATOM     18  H9  MFU d         -40.317  23.545   9.647  0.00  0.00     0.210 HD
ENDBRANCH   2  17
BRANCH   3  19
ATOM     19  O3  MFU d         -37.334  22.744  11.109  0.00  0.00    -0.390 OA
ATOM     20  H10 MFU d         -36.676  22.342  11.662  0.00  0.00     0.210 HD
ENDBRANCH   3  19
BRANCH   5  21
ATOM     21  C6  MFU d         -39.777  19.217  13.597  0.00  0.00    -0.050 C 
ATOM     22  H6  MFU d         -39.139  18.410  13.206  0.00  0.00     0.031 H 
ATOM     23  H7  MFU d         -40.798  18.837  13.748  0.00  0.00     0.031 H 
ATOM     24  H8  MFU d         -39.372  19.571  14.557  0.00  0.00     0.031 H 
ENDBRANCH   5  21
BRANCH   4  25
ATOM     25  O4  MFU d         -37.479  20.135  11.771  0.00  0.00    -0.390 OA
ATOM     26  H11 MFU d         -36.764  19.981  12.378  0.00  0.00     0.210 HD
ENDBRANCH   4  25
TORSDOF 6
ENDMDL
MODEL 9
REMARK VINA RESULT:      -3.8      1.788      2.984
REMARK  6 active torsions:
REMARK  status: ('A' for Active; 'I' for Inactive)
REMARK    1  A    between atoms: C1_1  and  O1_7 
REMARK    2  A    between atoms: C2_2  and  O2_8 
REMARK    3  A    between atoms: C3_3  and  O3_9 
REMARK    4  A    between atoms: C4_4  and  O4_10 
REMARK    5  A    between atoms: C5_5  and  C6_6 
REMARK    6  A    between atoms: O1_7  and  CM_12 
ROOT
ATOM      1  C1  MFU d         -39.183  20.220  12.093  0.00  0.00     0.158 C 
ATOM      2  C2  MFU d         -39.238  19.916  13.560  0.00  0.00     0.110 C 
ATOM      3  C3  MFU d         -39.536  21.201  14.357  0.00  0.00     0.092 C 
ATOM      4  C4  MFU d         -40.757  21.974  13.874  0.00  0.00     0.087 C 
ATOM      5  C5  MFU d         -40.575  22.233  12.387  0.00  0.00     0.065 C 
ATOM      6  O5  MFU d         -40.382  20.961  11.712  0.00  0.00    -0.351 OA
ATOM      7  H1  MFU d         -39.124  19.284  11.519  0.00  0.00     0.133 H 
ATOM      8  H2  MFU d         -40.063  19.207  13.723  0.00  0.00     0.094 H 
ATOM      9  H3  MFU d         -38.660  21.864  14.296  0.00  0.00     0.091 H 
ATOM     10  H4  MFU d         -40.827  22.938  14.399  0.00  0.00     0.091 H 
ATOM     11  H5  MFU d         -39.645  22.808  12.267  0.00  0.00     0.086 H 
ENDROOT
BRANCH   1  12
ATOM     12  O1  MFU d         -38.019  21.032  11.826  0.00  0.00    -0.363 OA
BRANCH  12  13
ATOM     13  CM  MFU d         -37.947  21.309  10.397  0.00  0.00     0.007 C 
ATOM     14  H12 MFU d         -38.917  21.695  10.049  0.00  0.00     0.066 H 
ATOM     15  H13 MFU d         -37.707  20.382   9.855  0.00  0.00     0.066 H 
ATOM     16  H14 MFU d         -37.164  22.058  10.206  0.00  0.00     0.066 H 
ENDBRANCH  12  13
ENDBRANCH   1  12
BRANCH   2  17
ATOM     17  O2  MFU d         -38.020  19.304  14.065  0.00  0.00    -0.388 OA
ATOM     18  H9  MFU d         -38.066  19.242  15.012  0.00  0.00     0.210 HD
ENDBRANCH   2  17
BRANCH   3  19
ATOM     19  O3  MFU d         -39.757  20.805  15.727  0.00  0.00    -0.390 OA
ATOM     20  H10 MFU d         -38.921  20.710  16.167  0.00  0.00     0.210 HD
ENDBRANCH   3  19
BRANCH   5  21
ATOM     21  C6  MFU d         -41.700  23.102  11.784  0.00  0.00    -0.050 C 
ATOM     22  H6  MFU d         -41.301  23.684  10.941  0.00  0.00     0.031 H 
ATOM     23  H7  MFU d         -42.086  23.787  12.553  0.00  0.00     0.031 H 
ATOM     24  H8  MFU d         -42.514  22.453  11.428  0.00  0.00     0.031 H 
ENDBRANCH   5  21
BRANCH   4  25
ATOM     25  O4  MFU d         -41.931  21.187  14.179  0.00  0.00    -0.390 OA
ATOM     26  H11 MFU d         -42.706  21.731  14.095  0.00  0.00     0.210 HD
ENDBRANCH   4  25
TORSDOF 6
ENDMDL
