MODEL 1
REMARK VINA RESULT:      -9.5      0.000      0.000
REMARK  4 active torsions:
REMARK  status: ('A' for Active; 'I' for Inactive)
REMARK    1  A    between atoms: CAS_21  and  CAD_10 
REMARK    2  A    between atoms: NAQ_19  and  CAT_22 
REMARK    3  A    between atoms: CAV_24  and  NAQ_19 
REMARK    4  A    between atoms: CAR_20  and  CAU_23 
ROOT
ATOM      1  CAA E1B d          23.276 -29.558  10.398  0.00  0.00    -0.149 C 
ATOM      2  CAD E1B d          23.070 -30.525  11.083  0.00  0.00    -0.078 C 
ATOM      3  H3  E1B d          23.456 -28.709   9.796  0.00  0.00     0.166 H 
ENDROOT
BRANCH   2   4
ATOM      4  CAS E1B d          22.814 -31.717  11.926  0.00  0.00     0.019 A 
ATOM      5  CAG E1B d          22.819 -33.003  11.410  0.00  0.00    -0.065 A 
ATOM      6  CAE E1B d          22.575 -34.079  12.247  0.00  0.00    -0.079 A 
ATOM      7  H5  E1B d          23.013 -33.165  10.356  0.00  0.00     0.085 H 
ATOM      8  CAH E1B d          22.312 -33.883  13.595  0.00  0.00    -0.057 A 
ATOM      9  H4  E1B d          22.591 -35.085  11.844  0.00  0.00     0.083 H 
ATOM     10  CAT E1B d          22.301 -32.593  14.087  0.00  0.00     0.035 A 
ATOM     11  H6  E1B d          22.117 -34.727  14.248  0.00  0.00     0.086 H 
ATOM     12  CAL E1B d          22.550 -31.516  13.260  0.00  0.00    -0.039 A 
ATOM     13  H9  E1B d          22.537 -30.510  13.663  0.00  0.00     0.089 H 
BRANCH  10  14
ATOM     14  NAQ E1B d          22.041 -32.257  15.430  0.00  0.00    -0.339 N 
ATOM     15  H11 E1B d          21.480 -33.025  15.825  0.00  0.00     0.167 HD
BRANCH  14  16
ATOM     16  CAV E1B d          22.223 -31.314  16.465  0.00  0.00     0.158 A 
ATOM     17  C4  E1B d          22.297 -31.629  17.860  0.00  0.00     0.116 A 
ATOM     18  N3  E1B d          22.219 -32.928  18.332  0.00  0.00    -0.237 NA
ATOM     19  C5  E1B d          22.443 -30.586  18.755  0.00  0.00     0.027 A 
ATOM     20  C2  E1B d          22.287 -33.186  19.650  0.00  0.00     0.087 A 
ATOM     21  N1  E1B d          22.427 -32.187  20.556  0.00  0.00    -0.253 NA
ATOM     22  H1  E1B d          22.229 -34.211  19.996  0.00  0.00     0.146 H 
ATOM     23  C6  E1B d          22.512 -30.897  20.148  0.00  0.00     0.017 A 
ATOM     24  H2  E1B d          22.631 -30.103  20.877  0.00  0.00     0.116 H 
ATOM     25  CAY E1B d          22.517 -29.212  18.215  0.00  0.00     0.007 A 
ATOM     26  CAJ E1B d          22.679 -28.104  19.095  0.00  0.00    -0.069 A 
ATOM     27  CAW E1B d          22.458 -28.986  16.857  0.00  0.00     0.071 A 
ATOM     28  CAI E1B d          22.750 -26.815  18.552  0.00  0.00    -0.066 A 
ATOM     29  H8  E1B d          22.745 -28.255  20.166  0.00  0.00     0.085 H 
ATOM     30  CAU E1B d          22.689 -26.590  17.161  0.00  0.00     0.043 A 
ATOM     31  H7  E1B d          22.855 -25.968  19.219  0.00  0.00     0.085 H 
ATOM     32  CAM E1B d          22.533 -27.675  16.301  0.00  0.00    -0.038 A 
ATOM     33  H10 E1B d          22.470 -27.525  15.229  0.00  0.00     0.088 H 
ATOM     34  NAP E1B d          22.309 -30.060  16.013  0.00  0.00    -0.228 NA
BRANCH  30  35
ATOM     35  CAR E1B d          22.754 -25.199  16.612  0.00  0.00     0.209 C 
ATOM     36  OAB E1B d          22.607 -25.202  15.362  0.00  0.00    -0.644 OA
ATOM     37  OAC E1B d          22.842 -24.373  17.552  0.00  0.00    -0.644 OA
ENDBRANCH  30  35
ENDBRANCH  14  16
ENDBRANCH  10  14
ENDBRANCH   2   4
TORSDOF 4
ENDMDL
MODEL 2
REMARK VINA RESULT:      -9.2      2.917      6.335
REMARK  4 active torsions:
REMARK  status: ('A' for Active; 'I' for Inactive)
REMARK    1  A    between atoms: CAS_21  and  CAD_10 
REMARK    2  A    between atoms: NAQ_19  and  CAT_22 
REMARK    3  A    between atoms: CAV_24  and  NAQ_19 
REMARK    4  A    between atoms: CAR_20  and  CAU_23 
ROOT
ATOM      1  CAA E1B d          22.620 -24.412  17.279  0.00  0.00    -0.149 C 
ATOM      2  CAD E1B d          22.742 -24.866  16.172  0.00  0.00    -0.078 C 
ATOM      3  H3  E1B d          22.513 -24.013  18.250  0.00  0.00     0.166 H 
ENDROOT
BRANCH   2   4
ATOM      4  CAS E1B d          22.896 -25.426  14.807  0.00  0.00     0.019 A 
ATOM      5  CAG E1B d          23.240 -24.639  13.720  0.00  0.00    -0.065 A 
ATOM      6  CAE E1B d          23.372 -25.217  12.469  0.00  0.00    -0.079 A 
ATOM      7  H5  E1B d          23.406 -23.575  13.849  0.00  0.00     0.085 H 
ATOM      8  CAH E1B d          23.148 -26.574  12.289  0.00  0.00    -0.057 A 
ATOM      9  H4  E1B d          23.652 -24.603  11.621  0.00  0.00     0.083 H 
ATOM     10  CAT E1B d          22.796 -27.339  13.384  0.00  0.00     0.035 A 
ATOM     11  H6  E1B d          23.248 -27.025  11.308  0.00  0.00     0.086 H 
ATOM     12  CAL E1B d          22.670 -26.770  14.635  0.00  0.00    -0.039 A 
ATOM     13  H9  E1B d          22.391 -27.385  15.483  0.00  0.00     0.089 H 
BRANCH  10  14
ATOM     14  NAQ E1B d          22.535 -28.722  13.336  0.00  0.00    -0.339 N 
ATOM     15  H11 E1B d          22.215 -28.931  12.379  0.00  0.00     0.167 HD
BRANCH  14  16
ATOM     16  CAV E1B d          22.525 -29.944  14.043  0.00  0.00     0.158 A 
ATOM     17  C4  E1B d          22.603 -31.242  13.442  0.00  0.00     0.116 A 
ATOM     18  N3  E1B d          22.724 -31.419  12.074  0.00  0.00    -0.237 NA
ATOM     19  C5  E1B d          22.547 -32.346  14.271  0.00  0.00     0.027 A 
ATOM     20  C2  E1B d          22.789 -32.654  11.544  0.00  0.00     0.087 A 
ATOM     21  N1  E1B d          22.733 -33.759  12.327  0.00  0.00    -0.253 NA
ATOM     22  H1  E1B d          22.888 -32.768  10.471  0.00  0.00     0.146 H 
ATOM     23  C6  E1B d          22.620 -33.643  13.673  0.00  0.00     0.017 A 
ATOM     24  H2  E1B d          22.583 -34.531  14.294  0.00  0.00     0.116 H 
ATOM     25  CAY E1B d          22.413 -32.119  15.724  0.00  0.00     0.007 A 
ATOM     26  CAJ E1B d          22.362 -33.223  16.622  0.00  0.00    -0.069 A 
ATOM     27  CAW E1B d          22.363 -30.839  16.234  0.00  0.00     0.071 A 
ATOM     28  CAI E1B d          22.240 -32.974  17.994  0.00  0.00    -0.066 A 
ATOM     29  H8  E1B d          22.417 -34.239  16.249  0.00  0.00     0.085 H 
ATOM     30  CAU E1B d          22.189 -31.662  18.510  0.00  0.00     0.043 A 
ATOM     31  H7  E1B d          22.183 -33.812  18.679  0.00  0.00     0.085 H 
ATOM     32  CAM E1B d          22.241 -30.582  17.632  0.00  0.00    -0.038 A 
ATOM     33  H10 E1B d          22.190 -29.565  18.004  0.00  0.00     0.088 H 
ATOM     34  NAP E1B d          22.420 -29.777  15.364  0.00  0.00    -0.228 NA
BRANCH  30  35
ATOM     35  CAR E1B d          22.044 -31.428  19.981  0.00  0.00     0.209 C 
ATOM     36  OAB E1B d          22.135 -30.202  20.252  0.00  0.00    -0.644 OA
ATOM     37  OAC E1B d          21.771 -32.507  20.560  0.00  0.00    -0.644 OA
ENDBRANCH  30  35
ENDBRANCH  14  16
ENDBRANCH  10  14
ENDBRANCH   2   4
TORSDOF 4
ENDMDL
MODEL 3
REMARK VINA RESULT:      -9.0      1.938      2.939
REMARK  4 active torsions:
REMARK  status: ('A' for Active; 'I' for Inactive)
REMARK    1  A    between atoms: CAS_21  and  CAD_10 
REMARK    2  A    between atoms: NAQ_19  and  CAT_22 
REMARK    3  A    between atoms: CAV_24  and  NAQ_19 
REMARK    4  A    between atoms: CAR_20  and  CAU_23 
ROOT
ATOM      1  CAA E1B d          23.209 -32.192  10.781  0.00  0.00    -0.149 C 
ATOM      2  CAD E1B d          23.013 -32.551  11.912  0.00  0.00    -0.078 C 
ATOM      3  H3  E1B d          23.380 -31.876   9.788  0.00  0.00     0.166 H 
ENDROOT
BRANCH   2   4
ATOM      4  CAS E1B d          22.772 -32.991  13.307  0.00  0.00     0.019 A 
ATOM      5  CAG E1B d          22.562 -34.320  13.638  0.00  0.00    -0.065 A 
ATOM      6  CAE E1B d          22.344 -34.672  14.959  0.00  0.00    -0.079 A 
ATOM      7  H5  E1B d          22.569 -35.081  12.865  0.00  0.00     0.085 H 
ATOM      8  CAH E1B d          22.318 -33.707  15.955  0.00  0.00    -0.057 A 
ATOM      9  H4  E1B d          22.192 -35.714  15.218  0.00  0.00     0.083 H 
ATOM     10  CAT E1B d          22.520 -32.386  15.602  0.00  0.00     0.035 A 
ATOM     11  H6  E1B d          22.144 -33.983  16.988  0.00  0.00     0.086 H 
ATOM     12  CAL E1B d          22.744 -32.029  14.288  0.00  0.00    -0.039 A 
ATOM     13  H9  E1B d          22.899 -30.988  14.029  0.00  0.00     0.089 H 
BRANCH  10  14
ATOM     14  NAQ E1B d          22.511 -31.311  16.513  0.00  0.00    -0.339 N 
ATOM     15  H11 E1B d          22.457 -31.721  17.456  0.00  0.00     0.167 HD
BRANCH  14  16
ATOM     16  CAV E1B d          22.545 -29.909  16.680  0.00  0.00     0.158 A 
ATOM     17  C4  E1B d          22.401 -29.228  17.931  0.00  0.00     0.116 A 
ATOM     18  N3  E1B d          22.236 -29.904  19.129  0.00  0.00    -0.237 NA
ATOM     19  C5  E1B d          22.422 -27.846  17.925  0.00  0.00     0.027 A 
ATOM     20  C2  E1B d          22.098 -29.229  20.285  0.00  0.00     0.087 A 
ATOM     21  N1  E1B d          22.111 -27.875  20.315  0.00  0.00    -0.253 NA
ATOM     22  H1  E1B d          21.975 -29.780  21.210  0.00  0.00     0.146 H 
ATOM     23  C6  E1B d          22.273 -27.163  19.172  0.00  0.00     0.017 A 
ATOM     24  H2  E1B d          22.289 -26.080  19.203  0.00  0.00     0.116 H 
ATOM     25  CAY E1B d          22.594 -27.160  16.628  0.00  0.00     0.007 A 
ATOM     26  CAJ E1B d          22.634 -25.737  16.569  0.00  0.00    -0.069 A 
ATOM     27  CAW E1B d          22.746 -27.882  15.464  0.00  0.00     0.071 A 
ATOM     28  CAI E1B d          22.803 -25.117  15.325  0.00  0.00    -0.066 A 
ATOM     29  H8  E1B d          22.534 -25.145  17.471  0.00  0.00     0.085 H 
ATOM     30  CAU E1B d          22.958 -25.862  14.138  0.00  0.00     0.043 A 
ATOM     31  H7  E1B d          22.816 -24.035  15.274  0.00  0.00     0.085 H 
ATOM     32  CAM E1B d          22.921 -27.254  14.196  0.00  0.00    -0.038 A 
ATOM     33  H10 E1B d          23.025 -27.846  13.295  0.00  0.00     0.088 H 
ATOM     34  NAP E1B d          22.714 -29.255  15.529  0.00  0.00    -0.228 NA
BRANCH  30  35
ATOM     35  CAR E1B d          23.124 -25.170  12.821  0.00  0.00     0.209 C 
ATOM     36  OAB E1B d          24.096 -24.371  12.851  0.00  0.00    -0.644 OA
ATOM     37  OAC E1B d          22.306 -25.635  11.989  0.00  0.00    -0.644 OA
ENDBRANCH  30  35
ENDBRANCH  14  16
ENDBRANCH  10  14
ENDBRANCH   2   4
TORSDOF 4
ENDMDL
MODEL 4
REMARK VINA RESULT:      -8.3      2.151      6.374
REMARK  4 active torsions:
REMARK  status: ('A' for Active; 'I' for Inactive)
REMARK    1  A    between atoms: CAS_21  and  CAD_10 
REMARK    2  A    between atoms: NAQ_19  and  CAT_22 
REMARK    3  A    between atoms: CAV_24  and  NAQ_19 
REMARK    4  A    between atoms: CAR_20  and  CAU_23 
ROOT
ATOM      1  CAA E1B d          22.420 -34.787  20.410  0.00  0.00    -0.149 C 
ATOM      2  CAD E1B d          22.389 -33.699  19.898  0.00  0.00    -0.078 C 
ATOM      3  H3  E1B d          22.448 -35.742  20.858  0.00  0.00     0.166 H 
ENDROOT
BRANCH   2   4
ATOM      4  CAS E1B d          22.354 -32.357  19.268  0.00  0.00     0.019 A 
ATOM      5  CAG E1B d          22.465 -31.190  20.007  0.00  0.00    -0.065 A 
ATOM      6  CAE E1B d          22.428 -29.965  19.364  0.00  0.00    -0.079 A 
ATOM      7  H5  E1B d          22.581 -31.237  21.084  0.00  0.00     0.085 H 
ATOM      8  CAH E1B d          22.266 -29.891  17.988  0.00  0.00    -0.057 A 
ATOM      9  H4  E1B d          22.527 -29.053  19.941  0.00  0.00     0.083 H 
ATOM     10  CAT E1B d          22.147 -31.066  17.271  0.00  0.00     0.035 A 
ATOM     11  H6  E1B d          22.233 -28.931  17.486  0.00  0.00     0.086 H 
ATOM     12  CAL E1B d          22.190 -32.292  17.906  0.00  0.00    -0.039 A 
ATOM     13  H9  E1B d          22.093 -33.204  17.328  0.00  0.00     0.089 H 
BRANCH  10  14
ATOM     14  NAQ E1B d          21.971 -31.131  15.875  0.00  0.00    -0.339 N 
ATOM     15  H11 E1B d          21.326 -31.913  15.693  0.00  0.00     0.167 HD
BRANCH  14  16
ATOM     16  CAV E1B d          22.304 -30.577  14.620  0.00  0.00     0.158 A 
ATOM     17  C4  E1B d          22.537 -31.332  13.425  0.00  0.00     0.116 A 
ATOM     18  N3  E1B d          22.428 -32.712  13.387  0.00  0.00    -0.237 NA
ATOM     19  C5  E1B d          22.889 -30.644  12.280  0.00  0.00     0.027 A 
ATOM     20  C2  E1B d          22.660 -33.389  12.247  0.00  0.00     0.087 A 
ATOM     21  N1  E1B d          23.010 -32.746  11.107  0.00  0.00    -0.253 NA
ATOM     22  H1  E1B d          22.564 -34.468  12.241  0.00  0.00     0.146 H 
ATOM     23  C6  E1B d          23.127 -31.395  11.087  0.00  0.00     0.017 A 
ATOM     24  H2  E1B d          23.401 -30.886  10.170  0.00  0.00     0.116 H 
ATOM     25  CAY E1B d          23.000 -29.173  12.359  0.00  0.00     0.007 A 
ATOM     26  CAJ E1B d          23.350 -28.416  11.205  0.00  0.00    -0.069 A 
ATOM     27  CAW E1B d          22.743 -28.511  13.540  0.00  0.00     0.071 A 
ATOM     28  CAI E1B d          23.442 -27.023  11.312  0.00  0.00    -0.066 A 
ATOM     29  H8  E1B d          23.540 -28.910  10.259  0.00  0.00     0.085 H 
ATOM     30  CAU E1B d          23.177 -26.352  12.523  0.00  0.00     0.043 A 
ATOM     31  H7  E1B d          23.725 -26.445  10.440  0.00  0.00     0.085 H 
ATOM     32  CAM E1B d          22.833 -27.092  13.652  0.00  0.00    -0.038 A 
ATOM     33  H10 E1B d          22.639 -26.599  14.597  0.00  0.00     0.088 H 
ATOM     34  NAP E1B d          22.399 -29.246  14.649  0.00  0.00    -0.228 NA
BRANCH  30  35
ATOM     35  CAR E1B d          23.298 -24.862  12.610  0.00  0.00     0.209 C 
ATOM     36  OAB E1B d          23.404 -24.489  13.807  0.00  0.00    -0.644 OA
ATOM     37  OAC E1B d          23.360 -24.371  11.456  0.00  0.00    -0.644 OA
ENDBRANCH  30  35
ENDBRANCH  14  16
ENDBRANCH  10  14
ENDBRANCH   2   4
TORSDOF 4
ENDMDL
MODEL 5
REMARK VINA RESULT:      -8.2      2.615      5.335
REMARK  4 active torsions:
REMARK  status: ('A' for Active; 'I' for Inactive)
REMARK    1  A    between atoms: CAS_21  and  CAD_10 
REMARK    2  A    between atoms: NAQ_19  and  CAT_22 
REMARK    3  A    between atoms: CAV_24  and  NAQ_19 
REMARK    4  A    between atoms: CAR_20  and  CAU_23 
ROOT
ATOM      1  CAA E1B d          22.902 -33.793  17.912  0.00  0.00    -0.149 C 
ATOM      2  CAD E1B d          22.846 -33.520  16.742  0.00  0.00    -0.078 C 
ATOM      3  H3  E1B d          22.953 -34.032  18.939  0.00  0.00     0.166 H 
ENDROOT
BRANCH   2   4
ATOM      4  CAS E1B d          22.779 -33.182  15.300  0.00  0.00     0.019 A 
ATOM      5  CAG E1B d          22.718 -34.155  14.315  0.00  0.00    -0.065 A 
ATOM      6  CAE E1B d          22.654 -33.779  12.984  0.00  0.00    -0.079 A 
ATOM      7  H5  E1B d          22.720 -35.204  14.585  0.00  0.00     0.085 H 
ATOM      8  CAH E1B d          22.666 -32.439  12.624  0.00  0.00    -0.057 A 
ATOM      9  H4  E1B d          22.595 -34.540  12.214  0.00  0.00     0.083 H 
ATOM     10  CAT E1B d          22.737 -31.486  13.621  0.00  0.00     0.035 A 
ATOM     11  H6  E1B d          22.620 -32.147  11.581  0.00  0.00     0.086 H 
ATOM     12  CAL E1B d          22.794 -31.854  14.951  0.00  0.00    -0.039 A 
ATOM     13  H9  E1B d          22.851 -31.092  15.720  0.00  0.00     0.089 H 
BRANCH  10  14
ATOM     14  NAQ E1B d          22.764 -30.096  13.391  0.00  0.00    -0.339 N 
ATOM     15  H11 E1B d          22.836 -29.965  12.373  0.00  0.00     0.167 HD
BRANCH  14  16
ATOM     16  CAV E1B d          22.734 -28.807  13.966  0.00  0.00     0.158 A 
ATOM     17  C4  E1B d          22.949 -27.585  13.252  0.00  0.00     0.116 A 
ATOM     18  N3  E1B d          23.188 -27.554  11.888  0.00  0.00    -0.237 NA
ATOM     19  C5  E1B d          22.921 -26.402  13.966  0.00  0.00     0.027 A 
ATOM     20  C2  E1B d          23.391 -26.387  11.252  0.00  0.00     0.087 A 
ATOM     21  N1  E1B d          23.374 -25.209  11.921  0.00  0.00    -0.253 NA
ATOM     22  H1  E1B d          23.570 -26.388  10.183  0.00  0.00     0.146 H 
ATOM     23  C6  E1B d          23.141 -25.180  13.257  0.00  0.00     0.017 A 
ATOM     24  H2  E1B d          23.122 -24.234  13.785  0.00  0.00     0.116 H 
ATOM     25  CAY E1B d          22.670 -26.473  15.420  0.00  0.00     0.007 A 
ATOM     26  CAJ E1B d          22.620 -25.282  16.199  0.00  0.00    -0.069 A 
ATOM     27  CAW E1B d          22.452 -27.686  16.037  0.00  0.00     0.071 A 
ATOM     28  CAI E1B d          22.374 -25.383  17.574  0.00  0.00    -0.066 A 
ATOM     29  H8  E1B d          22.770 -24.313  15.736  0.00  0.00     0.085 H 
ATOM     30  CAU E1B d          22.153 -26.627  18.200  0.00  0.00     0.043 A 
ATOM     31  H7  E1B d          22.354 -24.480  18.173  0.00  0.00     0.085 H 
ATOM     32  CAM E1B d          22.199 -27.792  17.437  0.00  0.00    -0.038 A 
ATOM     33  H10 E1B d          22.045 -28.760  17.899  0.00  0.00     0.088 H 
ATOM     34  NAP E1B d          22.493 -28.831  15.279  0.00  0.00    -0.228 NA
BRANCH  30  35
ATOM     35  CAR E1B d          21.907 -26.704  19.674  0.00  0.00     0.209 C 
ATOM     36  OAB E1B d          21.510 -25.597  20.123  0.00  0.00    -0.644 OA
ATOM     37  OAC E1B d          22.067 -27.884  20.072  0.00  0.00    -0.644 OA
ENDBRANCH  30  35
ENDBRANCH  14  16
ENDBRANCH  10  14
ENDBRANCH   2   4
TORSDOF 4
ENDMDL
MODEL 6
REMARK VINA RESULT:      -7.6      1.408      2.068
REMARK  4 active torsions:
REMARK  status: ('A' for Active; 'I' for Inactive)
REMARK    1  A    between atoms: CAS_21  and  CAD_10 
REMARK    2  A    between atoms: NAQ_19  and  CAT_22 
REMARK    3  A    between atoms: CAV_24  and  NAQ_19 
REMARK    4  A    between atoms: CAR_20  and  CAU_23 
ROOT
ATOM      1  CAA E1B d          23.676 -26.237  11.093  0.00  0.00    -0.149 C 
ATOM      2  CAD E1B d          23.460 -27.405  11.279  0.00  0.00    -0.078 C 
ATOM      3  H3  E1B d          23.866 -25.211  10.929  0.00  0.00     0.166 H 
ENDROOT
BRANCH   2   4
ATOM      4  CAS E1B d          23.192 -28.846  11.506  0.00  0.00     0.019 A 
ATOM      5  CAG E1B d          23.314 -29.788  10.497  0.00  0.00    -0.065 A 
ATOM      6  CAE E1B d          23.053 -31.121  10.769  0.00  0.00    -0.079 A 
ATOM      7  H5  E1B d          23.612 -29.483   9.501  0.00  0.00     0.085 H 
ATOM      8  CAH E1B d          22.656 -31.522  12.036  0.00  0.00    -0.057 A 
ATOM      9  H4  E1B d          23.159 -31.859   9.982  0.00  0.00     0.083 H 
ATOM     10  CAT E1B d          22.531 -30.564  13.025  0.00  0.00     0.035 A 
ATOM     11  H6  E1B d          22.448 -32.565  12.246  0.00  0.00     0.086 H 
ATOM     12  CAL E1B d          22.796 -29.235  12.763  0.00  0.00    -0.039 A 
ATOM     13  H9  E1B d          22.692 -28.497  13.550  0.00  0.00     0.089 H 
BRANCH  10  14
ATOM     14  NAQ E1B d          22.130 -30.837  14.348  0.00  0.00    -0.339 N 
ATOM     15  H11 E1B d          21.558 -31.692  14.314  0.00  0.00     0.167 HD
BRANCH  14  16
ATOM     16  CAV E1B d          22.181 -30.433  15.700  0.00  0.00     0.158 A 
ATOM     17  C4  E1B d          22.238 -31.323  16.820  0.00  0.00     0.116 A 
ATOM     18  N3  E1B d          22.275 -32.700  16.673  0.00  0.00    -0.237 NA
ATOM     19  C5  E1B d          22.249 -30.772  18.088  0.00  0.00     0.027 A 
ATOM     20  C2  E1B d          22.323 -33.505  17.750  0.00  0.00     0.087 A 
ATOM     21  N1  E1B d          22.331 -32.999  19.007  0.00  0.00    -0.253 NA
ATOM     22  H1  E1B d          22.356 -34.579  17.609  0.00  0.00     0.146 H 
ATOM     23  C6  E1B d          22.300 -31.659  19.208  0.00  0.00     0.017 A 
ATOM     24  H2  E1B d          22.314 -31.260  20.216  0.00  0.00     0.116 H 
ATOM     25  CAY E1B d          22.203 -29.301  18.206  0.00  0.00     0.007 A 
ATOM     26  CAJ E1B d          22.222 -28.683  19.489  0.00  0.00    -0.069 A 
ATOM     27  CAW E1B d          22.168 -28.505  17.081  0.00  0.00     0.071 A 
ATOM     28  CAI E1B d          22.183 -27.286  19.568  0.00  0.00    -0.066 A 
ATOM     29  H8  E1B d          22.267 -29.285  20.390  0.00  0.00     0.085 H 
ATOM     30  CAU E1B d          22.147 -26.477  18.413  0.00  0.00     0.043 A 
ATOM     31  H7  E1B d          22.180 -26.813  20.543  0.00  0.00     0.085 H 
ATOM     32  CAM E1B d          22.130 -27.081  17.158  0.00  0.00    -0.038 A 
ATOM     33  H10 E1B d          22.089 -26.481  16.257  0.00  0.00     0.088 H 
ATOM     34  NAP E1B d          22.157 -29.107  15.846  0.00  0.00    -0.228 NA
BRANCH  30  35
ATOM     35  CAR E1B d          22.091 -24.986  18.529  0.00  0.00     0.209 C 
ATOM     36  OAB E1B d          22.544 -24.437  17.492  0.00  0.00    -0.644 OA
ATOM     37  OAC E1B d          21.516 -24.663  19.597  0.00  0.00    -0.644 OA
ENDBRANCH  30  35
ENDBRANCH  14  16
ENDBRANCH  10  14
ENDBRANCH   2   4
TORSDOF 4
ENDMDL
