REMARK  3 active torsions:
REMARK  status: ('A' for Active; 'I' for Inactive)
REMARK    1  A    between atoms: C1'_1  and  C2_7 
REMARK    2  A    between atoms: C2_7  and  C1_8 
REMARK    3  A    between atoms: C1_8  and  N_9 
ROOT
ATOM      1  C1' PEA d          45.288  20.279  50.458  0.00  0.00    -0.057 A 
ATOM      2  C6' PEA d          46.275  21.232  50.638  0.00  0.00    -0.077 A 
ATOM      3  C5' PEA d          46.153  22.539  50.195  0.00  0.00    -0.082 A 
ATOM      4  C4' PEA d          45.010  22.946  49.523  0.00  0.00    -0.083 A 
ATOM      5  C3' PEA d          44.022  22.000  49.321  0.00  0.00    -0.082 A 
ATOM      6  C2' PEA d          44.161  20.710  49.775  0.00  0.00    -0.077 A 
ATOM      7  H1  PEA d          47.186  20.942  51.149  0.00  0.00     0.084 H 
ATOM      8  H2  PEA d          46.954  23.247  50.374  0.00  0.00     0.083 H 
ATOM      9  H3  PEA d          44.896  23.965  49.170  0.00  0.00     0.083 H 
ATOM     10  H4  PEA d          43.118  22.282  48.793  0.00  0.00     0.083 H 
ATOM     11  H5  PEA d          43.360  20.003  49.592  0.00  0.00     0.084 H 
ENDROOT
BRANCH   1  12
ATOM     12  C2  PEA d          45.443  18.965  50.949  0.00  0.00    -0.019 C 
ATOM     13  H6  PEA d          46.364  18.533  50.529  0.00  0.00     0.042 H 
ATOM     14  H7  PEA d          44.578  18.362  50.635  0.00  0.00     0.042 H 
BRANCH  12  15
ATOM     15  C1  PEA d          45.537  18.942  52.505  0.00  0.00     0.083 C 
ATOM     16  H8  PEA d          44.590  19.311  52.925  0.00  0.00     0.075 H 
ATOM     17  H9  PEA d          46.360  19.599  52.823  0.00  0.00     0.075 H 
BRANCH  15  18
ATOM     18  N   PEA d          45.791  17.562  53.020  0.00  0.00    -0.079 N 
ATOM     19  H10 PEA d          45.846  17.584  54.026  0.00  0.00     0.274 HD
ATOM     20  H11 PEA d          46.660  17.218  52.644  0.00  0.00     0.274 HD
ATOM     21  H12 PEA d          45.038  16.954  52.738  0.00  0.00     0.274 HD
ENDBRANCH  15  18
ENDBRANCH  12  15
ENDBRANCH   1  12
TORSDOF 3
