MODEL 1
REMARK VINA RESULT:      -4.6      0.000      0.000
REMARK  3 active torsions:
REMARK  status: ('A' for Active; 'I' for Inactive)
REMARK    1  A    between atoms: C1'_1  and  C2_7 
REMARK    2  A    between atoms: C2_7  and  C1_8 
REMARK    3  A    between atoms: C1_8  and  N_9 
ROOT
ATOM      1  C1' PEA d          45.846  20.174  50.812  0.00  0.00    -0.057 A 
ATOM      2  C6' PEA d          46.653  21.002  51.571  0.00  0.00    -0.077 A 
ATOM      3  C5' PEA d          46.927  22.315  51.224  0.00  0.00    -0.082 A 
ATOM      4  C4' PEA d          46.398  22.857  50.062  0.00  0.00    -0.083 A 
ATOM      5  C3' PEA d          45.603  22.035  49.284  0.00  0.00    -0.082 A 
ATOM      6  C2' PEA d          45.339  20.737  49.651  0.00  0.00    -0.077 A 
ATOM      7  H1  PEA d          47.092  20.605  52.479  0.00  0.00     0.084 H 
ATOM      8  H2  PEA d          47.557  22.923  51.864  0.00  0.00     0.083 H 
ATOM      9  H3  PEA d          46.600  23.883  49.775  0.00  0.00     0.083 H 
ATOM     10  H4  PEA d          45.178  22.424  48.365  0.00  0.00     0.083 H 
ATOM     11  H5  PEA d          44.711  20.130  49.008  0.00  0.00     0.084 H 
ENDROOT
BRANCH   1  12
ATOM     12  C2  PEA d          45.572  18.850  51.216  0.00  0.00    -0.019 C 
ATOM     13  H6  PEA d          46.339  18.182  50.795  0.00  0.00     0.042 H 
ATOM     14  H7  PEA d          44.582  18.557  50.836  0.00  0.00     0.042 H 
BRANCH  12  15
ATOM     15  C1  PEA d          45.578  18.712  52.769  0.00  0.00     0.083 C 
ATOM     16  H8  PEA d          44.577  18.960  53.152  0.00  0.00     0.075 H 
ATOM     17  H9  PEA d          46.315  19.413  53.187  0.00  0.00     0.075 H 
BRANCH  15  18
ATOM     18  N   PEA d          45.931  17.324  53.196  0.00  0.00    -0.079 N 
ATOM     19  H10 PEA d          45.499  17.126  54.085  0.00  0.00     0.274 HD
ATOM     20  H11 PEA d          46.932  17.244  53.284  0.00  0.00     0.274 HD
ATOM     21  H12 PEA d          45.600  16.666  52.508  0.00  0.00     0.274 HD
ENDBRANCH  15  18
ENDBRANCH  12  15
ENDBRANCH   1  12
TORSDOF 3
ENDMDL
MODEL 2
REMARK VINA RESULT:      -4.5      0.056      1.569
REMARK  3 active torsions:
REMARK  status: ('A' for Active; 'I' for Inactive)
REMARK    1  A    between atoms: C1'_1  and  C2_7 
REMARK    2  A    between atoms: C2_7  and  C1_8 
REMARK    3  A    between atoms: C1_8  and  N_9 
ROOT
ATOM      1  C1' PEA d          45.854  20.183  50.857  0.00  0.00    -0.057 A 
ATOM      2  C6' PEA d          45.288  20.749  49.728  0.00  0.00    -0.077 A 
ATOM      3  C5' PEA d          45.559  22.043  49.315  0.00  0.00    -0.082 A 
ATOM      4  C4' PEA d          46.422  22.845  50.047  0.00  0.00    -0.083 A 
ATOM      5  C3' PEA d          46.983  22.299  51.187  0.00  0.00    -0.082 A 
ATOM      6  C2' PEA d          46.704  21.010  51.575  0.00  0.00    -0.077 A 
ATOM      7  H1  PEA d          44.599  20.152  49.141  0.00  0.00     0.084 H 
ATOM      8  H2  PEA d          45.096  22.431  48.415  0.00  0.00     0.083 H 
ATOM      9  H3  PEA d          46.648  23.860  49.738  0.00  0.00     0.083 H 
ATOM     10  H4  PEA d          47.656  22.900  51.787  0.00  0.00     0.083 H 
ATOM     11  H5  PEA d          47.167  20.625  52.477  0.00  0.00     0.084 H 
ENDROOT
BRANCH   1  12
ATOM     12  C2  PEA d          45.570  18.852  51.228  0.00  0.00    -0.019 C 
ATOM     13  H6  PEA d          46.336  18.189  50.797  0.00  0.00     0.042 H 
ATOM     14  H7  PEA d          44.581  18.574  50.833  0.00  0.00     0.042 H 
BRANCH  12  15
ATOM     15  C1  PEA d          45.562  18.677  52.777  0.00  0.00     0.083 C 
ATOM     16  H8  PEA d          44.562  18.926  53.159  0.00  0.00     0.075 H 
ATOM     17  H9  PEA d          46.304  19.360  53.217  0.00  0.00     0.075 H 
BRANCH  15  18
ATOM     18  N   PEA d          45.898  17.275  53.173  0.00  0.00    -0.079 N 
ATOM     19  H10 PEA d          46.898  17.154  53.165  0.00  0.00     0.274 HD
ATOM     20  H11 PEA d          45.477  16.632  52.522  0.00  0.00     0.274 HD
ATOM     21  H12 PEA d          45.546  17.095  54.101  0.00  0.00     0.274 HD
ENDBRANCH  15  18
ENDBRANCH  12  15
ENDBRANCH   1  12
TORSDOF 3
ENDMDL
MODEL 3
REMARK VINA RESULT:      -4.5      1.445      1.455
REMARK  3 active torsions:
REMARK  status: ('A' for Active; 'I' for Inactive)
REMARK    1  A    between atoms: C1'_1  and  C2_7 
REMARK    2  A    between atoms: C2_7  and  C1_8 
REMARK    3  A    between atoms: C1_8  and  N_9 
ROOT
ATOM      1  C1' PEA d          44.951  20.243  51.177  0.00  0.00    -0.057 A 
ATOM      2  C6' PEA d          45.211  21.258  52.080  0.00  0.00    -0.077 A 
ATOM      3  C5' PEA d          44.794  22.565  51.889  0.00  0.00    -0.082 A 
ATOM      4  C4' PEA d          44.093  22.916  50.745  0.00  0.00    -0.083 A 
ATOM      5  C3' PEA d          43.840  21.915  49.825  0.00  0.00    -0.082 A 
ATOM      6  C2' PEA d          44.257  20.623  50.038  0.00  0.00    -0.077 A 
ATOM      7  H1  PEA d          45.768  21.019  52.980  0.00  0.00     0.084 H 
ATOM      8  H2  PEA d          45.016  23.318  52.636  0.00  0.00     0.083 H 
ATOM      9  H3  PEA d          43.758  23.933  50.578  0.00  0.00     0.083 H 
ATOM     10  H4  PEA d          43.301  22.155  48.915  0.00  0.00     0.083 H 
ATOM     11  H5  PEA d          44.037  19.872  49.288  0.00  0.00     0.084 H 
ENDROOT
BRANCH   1  12
ATOM     12  C2  PEA d          45.372  18.919  51.425  0.00  0.00    -0.019 C 
ATOM     13  H6  PEA d          46.292  18.724  50.853  0.00  0.00     0.042 H 
ATOM     14  H7  PEA d          44.582  18.226  51.097  0.00  0.00     0.042 H 
BRANCH  12  15
ATOM     15  C1  PEA d          45.657  18.682  52.939  0.00  0.00     0.083 C 
ATOM     16  H8  PEA d          44.783  19.009  53.522  0.00  0.00     0.075 H 
ATOM     17  H9  PEA d          46.536  19.273  53.234  0.00  0.00     0.075 H 
BRANCH  15  18
ATOM     18  N   PEA d          45.921  17.240  53.229  0.00  0.00    -0.079 N 
ATOM     19  H10 PEA d          45.934  16.720  52.366  0.00  0.00     0.274 HD
ATOM     20  H11 PEA d          45.195  16.879  53.827  0.00  0.00     0.274 HD
ATOM     21  H12 PEA d          46.813  17.148  53.690  0.00  0.00     0.274 HD
ENDBRANCH  15  18
ENDBRANCH  12  15
ENDBRANCH   1  12
TORSDOF 3
ENDMDL
MODEL 4
REMARK VINA RESULT:      -4.2      1.038      1.782
REMARK  3 active torsions:
REMARK  status: ('A' for Active; 'I' for Inactive)
REMARK    1  A    between atoms: C1'_1  and  C2_7 
REMARK    2  A    between atoms: C2_7  and  C1_8 
REMARK    3  A    between atoms: C1_8  and  N_9 
ROOT
ATOM      1  C1' PEA d          45.445  20.264  50.674  0.00  0.00    -0.057 A 
ATOM      2  C6' PEA d          44.227  20.656  50.147  0.00  0.00    -0.077 A 
ATOM      3  C5' PEA d          43.953  21.959  49.766  0.00  0.00    -0.082 A 
ATOM      4  C4' PEA d          44.912  22.949  49.917  0.00  0.00    -0.083 A 
ATOM      5  C3' PEA d          46.129  22.576  50.458  0.00  0.00    -0.082 A 
ATOM      6  C2' PEA d          46.382  21.275  50.823  0.00  0.00    -0.077 A 
ATOM      7  H1  PEA d          43.451  19.908  50.027  0.00  0.00     0.084 H 
ATOM      8  H2  PEA d          42.984  22.208  49.348  0.00  0.00     0.083 H 
ATOM      9  H3  PEA d          44.717  23.974  49.624  0.00  0.00     0.083 H 
ATOM     10  H4  PEA d          46.900  23.325  50.597  0.00  0.00     0.083 H 
ATOM     11  H5  PEA d          47.350  21.030  51.244  0.00  0.00     0.084 H 
ENDROOT
BRANCH   1  12
ATOM     12  C2  PEA d          45.690  18.919  51.025  0.00  0.00    -0.019 C 
ATOM     13  H6  PEA d          46.737  18.674  50.787  0.00  0.00     0.042 H 
ATOM     14  H7  PEA d          45.020  18.270  50.442  0.00  0.00     0.042 H 
BRANCH  12  15
ATOM     15  C1  PEA d          45.444  18.669  52.543  0.00  0.00     0.083 C 
ATOM     16  H8  PEA d          44.887  17.729  52.664  0.00  0.00     0.075 H 
ATOM     17  H9  PEA d          44.851  19.501  52.951  0.00  0.00     0.075 H 
BRANCH  15  18
ATOM     18  N   PEA d          46.729  18.572  53.301  0.00  0.00    -0.079 N 
ATOM     19  H10 PEA d          47.400  18.054  52.757  0.00  0.00     0.274 HD
ATOM     20  H11 PEA d          46.568  18.099  54.175  0.00  0.00     0.274 HD
ATOM     21  H12 PEA d          47.084  19.498  53.479  0.00  0.00     0.274 HD
ENDBRANCH  15  18
ENDBRANCH  12  15
ENDBRANCH   1  12
TORSDOF 3
ENDMDL
MODEL 5
REMARK VINA RESULT:      -4.1      2.585      4.214
REMARK  3 active torsions:
REMARK  status: ('A' for Active; 'I' for Inactive)
REMARK    1  A    between atoms: C1'_1  and  C2_7 
REMARK    2  A    between atoms: C2_7  and  C1_8 
REMARK    3  A    between atoms: C1_8  and  N_9 
ROOT
ATOM      1  C1' PEA d          45.655  20.832  50.328  0.00  0.00    -0.057 A 
ATOM      2  C6' PEA d          45.241  19.530  50.111  0.00  0.00    -0.077 A 
ATOM      3  C5' PEA d          45.215  18.570  51.109  0.00  0.00    -0.082 A 
ATOM      4  C4' PEA d          45.629  18.885  52.395  0.00  0.00    -0.083 A 
ATOM      5  C3' PEA d          46.061  20.179  52.623  0.00  0.00    -0.082 A 
ATOM      6  C2' PEA d          46.073  21.118  51.619  0.00  0.00    -0.077 A 
ATOM      7  H1  PEA d          44.923  19.248  49.114  0.00  0.00     0.084 H 
ATOM      8  H2  PEA d          44.870  17.567  50.885  0.00  0.00     0.083 H 
ATOM      9  H3  PEA d          45.614  18.148  53.190  0.00  0.00     0.083 H 
ATOM     10  H4  PEA d          46.398  20.459  53.614  0.00  0.00     0.083 H 
ATOM     11  H5  PEA d          46.421  22.119  51.845  0.00  0.00     0.084 H 
ENDROOT
BRANCH   1  12
ATOM     12  C2  PEA d          45.641  21.786  49.288  0.00  0.00    -0.019 C 
ATOM     13  H6  PEA d          45.338  21.291  48.353  0.00  0.00     0.042 H 
ATOM     14  H7  PEA d          46.653  22.202  49.171  0.00  0.00     0.042 H 
BRANCH  12  15
ATOM     15  C1  PEA d          44.648  22.949  49.590  0.00  0.00     0.083 C 
ATOM     16  H8  PEA d          45.054  23.882  49.173  0.00  0.00     0.075 H 
ATOM     17  H9  PEA d          44.538  23.051  50.680  0.00  0.00     0.075 H 
BRANCH  15  18
ATOM     18  N   PEA d          43.303  22.694  48.989  0.00  0.00    -0.079 N 
ATOM     19  H10 PEA d          43.379  22.694  47.984  0.00  0.00     0.274 HD
ATOM     20  H11 PEA d          42.664  23.417  49.277  0.00  0.00     0.274 HD
ATOM     21  H12 PEA d          42.961  21.798  49.300  0.00  0.00     0.274 HD
ENDBRANCH  15  18
ENDBRANCH  12  15
ENDBRANCH   1  12
TORSDOF 3
ENDMDL
MODEL 6
REMARK VINA RESULT:      -4.0      2.697      3.998
REMARK  3 active torsions:
REMARK  status: ('A' for Active; 'I' for Inactive)
REMARK    1  A    between atoms: C1'_1  and  C2_7 
REMARK    2  A    between atoms: C2_7  and  C1_8 
REMARK    3  A    between atoms: C1_8  and  N_9 
ROOT
ATOM      1  C1' PEA d          45.678  21.285  50.459  0.00  0.00    -0.057 A 
ATOM      2  C6' PEA d          45.878  21.293  51.828  0.00  0.00    -0.077 A 
ATOM      3  C5' PEA d          45.923  20.138  52.592  0.00  0.00    -0.082 A 
ATOM      4  C4' PEA d          45.749  18.898  51.996  0.00  0.00    -0.083 A 
ATOM      5  C3' PEA d          45.531  18.875  50.631  0.00  0.00    -0.082 A 
ATOM      6  C2' PEA d          45.497  20.033  49.891  0.00  0.00    -0.077 A 
ATOM      7  H1  PEA d          46.005  22.248  52.326  0.00  0.00     0.084 H 
ATOM      8  H2  PEA d          46.095  20.204  53.661  0.00  0.00     0.083 H 
ATOM      9  H3  PEA d          45.782  17.983  52.578  0.00  0.00     0.083 H 
ATOM     10  H4  PEA d          45.384  17.923  50.134  0.00  0.00     0.083 H 
ATOM     11  H5  PEA d          45.322  19.965  48.823  0.00  0.00     0.084 H 
ENDROOT
BRANCH   1  12
ATOM     12  C2  PEA d          45.665  22.484  49.715  0.00  0.00    -0.019 C 
ATOM     13  H6  PEA d          45.781  22.243  48.647  0.00  0.00     0.042 H 
ATOM     14  H7  PEA d          46.504  23.116  50.043  0.00  0.00     0.042 H 
BRANCH  12  15
ATOM     15  C1  PEA d          44.333  23.268  49.915  0.00  0.00     0.083 C 
ATOM     16  H8  PEA d          44.533  24.344  49.806  0.00  0.00     0.075 H 
ATOM     17  H9  PEA d          43.948  23.067  50.926  0.00  0.00     0.075 H 
BRANCH  15  18
ATOM     18  N   PEA d          43.301  22.863  48.913  0.00  0.00    -0.079 N 
ATOM     19  H10 PEA d          43.697  22.189  48.277  0.00  0.00     0.274 HD
ATOM     20  H11 PEA d          42.997  23.673  48.397  0.00  0.00     0.274 HD
ATOM     21  H12 PEA d          42.513  22.452  49.389  0.00  0.00     0.274 HD
ENDBRANCH  15  18
ENDBRANCH  12  15
ENDBRANCH   1  12
TORSDOF 3
ENDMDL
MODEL 7
REMARK VINA RESULT:      -3.9      1.985      2.222
REMARK  3 active torsions:
REMARK  status: ('A' for Active; 'I' for Inactive)
REMARK    1  A    between atoms: C1'_1  and  C2_7 
REMARK    2  A    between atoms: C2_7  and  C1_8 
REMARK    3  A    between atoms: C1_8  and  N_9 
ROOT
ATOM      1  C1' PEA d          44.666  21.101  51.062  0.00  0.00    -0.057 A 
ATOM      2  C6' PEA d          45.519  21.126  52.151  0.00  0.00    -0.077 A 
ATOM      3  C5' PEA d          45.700  22.249  52.943  0.00  0.00    -0.082 A 
ATOM      4  C4' PEA d          45.023  23.425  52.655  0.00  0.00    -0.083 A 
ATOM      5  C3' PEA d          44.179  23.419  51.559  0.00  0.00    -0.082 A 
ATOM      6  C2' PEA d          44.010  22.291  50.790  0.00  0.00    -0.077 A 
ATOM      7  H1  PEA d          46.073  20.227  52.395  0.00  0.00     0.084 H 
ATOM      8  H2  PEA d          46.373  22.209  53.792  0.00  0.00     0.083 H 
ATOM      9  H3  PEA d          45.150  24.313  53.264  0.00  0.00     0.083 H 
ATOM     10  H4  PEA d          43.640  24.323  51.300  0.00  0.00     0.083 H 
ATOM     11  H5  PEA d          43.339  22.335  49.940  0.00  0.00     0.084 H 
ENDROOT
BRANCH   1  12
ATOM     12  C2  PEA d          44.493  19.927  50.298  0.00  0.00    -0.019 C 
ATOM     13  H6  PEA d          44.926  20.084  49.298  0.00  0.00     0.042 H 
ATOM     14  H7  PEA d          43.417  19.718  50.203  0.00  0.00     0.042 H 
BRANCH  12  15
ATOM     15  C1  PEA d          45.189  18.701  50.963  0.00  0.00     0.083 C 
ATOM     16  H8  PEA d          45.857  19.060  51.760  0.00  0.00     0.075 H 
ATOM     17  H9  PEA d          45.779  18.168  50.203  0.00  0.00     0.075 H 
BRANCH  15  18
ATOM     18  N   PEA d          44.193  17.757  51.554  0.00  0.00    -0.079 N 
ATOM     19  H10 PEA d          44.619  16.852  51.675  0.00  0.00     0.274 HD
ATOM     20  H11 PEA d          43.401  17.676  50.938  0.00  0.00     0.274 HD
ATOM     21  H12 PEA d          43.888  18.106  52.450  0.00  0.00     0.274 HD
ENDBRANCH  15  18
ENDBRANCH  12  15
ENDBRANCH   1  12
TORSDOF 3
ENDMDL
MODEL 8
REMARK VINA RESULT:      -3.9      2.146      3.747
REMARK  3 active torsions:
REMARK  status: ('A' for Active; 'I' for Inactive)
REMARK    1  A    between atoms: C1'_1  and  C2_7 
REMARK    2  A    between atoms: C2_7  and  C1_8 
REMARK    3  A    between atoms: C1_8  and  N_9 
ROOT
ATOM      1  C1' PEA d          46.242  21.000  51.283  0.00  0.00    -0.057 A 
ATOM      2  C6' PEA d          45.211  21.018  50.360  0.00  0.00    -0.077 A 
ATOM      3  C5' PEA d          44.340  19.956  50.180  0.00  0.00    -0.082 A 
ATOM      4  C4' PEA d          44.483  18.798  50.931  0.00  0.00    -0.083 A 
ATOM      5  C3' PEA d          45.519  18.759  51.845  0.00  0.00    -0.082 A 
ATOM      6  C2' PEA d          46.369  19.827  52.012  0.00  0.00    -0.077 A 
ATOM      7  H1  PEA d          45.080  21.904  49.749  0.00  0.00     0.084 H 
ATOM      8  H2  PEA d          43.542  20.030  49.450  0.00  0.00     0.083 H 
ATOM      9  H3  PEA d          43.810  17.958  50.805  0.00  0.00     0.083 H 
ATOM     10  H4  PEA d          45.665  17.867  52.444  0.00  0.00     0.083 H 
ATOM     11  H5  PEA d          47.167  19.750  52.741  0.00  0.00     0.084 H 
ENDROOT
BRANCH   1  12
ATOM     12  C2  PEA d          47.091  22.114  51.452  0.00  0.00    -0.019 C 
ATOM     13  H6  PEA d          46.730  22.938  50.817  0.00  0.00     0.042 H 
ATOM     14  H7  PEA d          48.111  21.836  51.148  0.00  0.00     0.042 H 
BRANCH  12  15
ATOM     15  C1  PEA d          47.119  22.594  52.935  0.00  0.00     0.083 C 
ATOM     16  H8  PEA d          47.795  23.457  53.018  0.00  0.00     0.075 H 
ATOM     17  H9  PEA d          47.492  21.775  53.568  0.00  0.00     0.075 H 
BRANCH  15  18
ATOM     18  N   PEA d          45.760  22.994  53.409  0.00  0.00    -0.079 N 
ATOM     19  H10 PEA d          45.099  22.896  52.655  0.00  0.00     0.274 HD
ATOM     20  H11 PEA d          45.780  23.954  53.715  0.00  0.00     0.274 HD
ATOM     21  H12 PEA d          45.483  22.402  54.177  0.00  0.00     0.274 HD
ENDBRANCH  15  18
ENDBRANCH  12  15
ENDBRANCH   1  12
TORSDOF 3
ENDMDL
MODEL 9
REMARK VINA RESULT:      -3.9      2.757      3.948
REMARK  3 active torsions:
REMARK  status: ('A' for Active; 'I' for Inactive)
REMARK    1  A    between atoms: C1'_1  and  C2_7 
REMARK    2  A    between atoms: C2_7  and  C1_8 
REMARK    3  A    between atoms: C1_8  and  N_9 
ROOT
ATOM      1  C1' PEA d          45.063  21.411  51.458  0.00  0.00    -0.057 A 
ATOM      2  C6' PEA d          45.739  20.825  52.515  0.00  0.00    -0.077 A 
ATOM      3  C5' PEA d          45.830  19.453  52.686  0.00  0.00    -0.082 A 
ATOM      4  C4' PEA d          45.216  18.594  51.786  0.00  0.00    -0.083 A 
ATOM      5  C3' PEA d          44.523  19.165  50.735  0.00  0.00    -0.082 A 
ATOM      6  C2' PEA d          44.451  20.529  50.580  0.00  0.00    -0.077 A 
ATOM      7  H1  PEA d          46.219  21.470  53.242  0.00  0.00     0.084 H 
ATOM      8  H2  PEA d          46.383  19.049  53.526  0.00  0.00     0.083 H 
ATOM      9  H3  PEA d          45.278  17.518  51.903  0.00  0.00     0.083 H 
ATOM     10  H4  PEA d          44.026  18.523  50.017  0.00  0.00     0.083 H 
ATOM     11  H5  PEA d          43.895  20.931  49.741  0.00  0.00     0.084 H 
ENDROOT
BRANCH   1  12
ATOM     12  C2  PEA d          45.018  22.813  51.308  0.00  0.00    -0.019 C 
ATOM     13  H6  PEA d          45.248  23.068  50.262  0.00  0.00     0.042 H 
ATOM     14  H7  PEA d          45.769  23.268  51.970  0.00  0.00     0.042 H 
BRANCH  12  15
ATOM     15  C1  PEA d          43.613  23.383  51.670  0.00  0.00     0.083 C 
ATOM     16  H8  PEA d          42.844  22.662  51.358  0.00  0.00     0.075 H 
ATOM     17  H9  PEA d          43.464  24.333  51.135  0.00  0.00     0.075 H 
BRANCH  15  18
ATOM     18  N   PEA d          43.481  23.628  53.139  0.00  0.00    -0.079 N 
ATOM     19  H10 PEA d          43.678  24.596  53.337  0.00  0.00     0.274 HD
ATOM     20  H11 PEA d          44.134  23.044  53.636  0.00  0.00     0.274 HD
ATOM     21  H12 PEA d          42.542  23.409  53.433  0.00  0.00     0.274 HD
ENDBRANCH  15  18
ENDBRANCH  12  15
ENDBRANCH   1  12
TORSDOF 3
ENDMDL
MODEL 10
REMARK VINA RESULT:      -3.4      2.574      3.246
REMARK  3 active torsions:
REMARK  status: ('A' for Active; 'I' for Inactive)
REMARK    1  A    between atoms: C1'_1  and  C2_7 
REMARK    2  A    between atoms: C2_7  and  C1_8 
REMARK    3  A    between atoms: C1_8  and  N_9 
ROOT
ATOM      1  C1' PEA d          45.095  21.542  51.501  0.00  0.00    -0.057 A 
ATOM      2  C6' PEA d          44.431  22.606  52.085  0.00  0.00    -0.077 A 
ATOM      3  C5' PEA d          45.057  23.525  52.911  0.00  0.00    -0.082 A 
ATOM      4  C4' PEA d          46.407  23.399  53.201  0.00  0.00    -0.083 A 
ATOM      5  C3' PEA d          47.080  22.330  52.639  0.00  0.00    -0.082 A 
ATOM      6  C2' PEA d          46.440  21.433  51.816  0.00  0.00    -0.077 A 
ATOM      7  H1  PEA d          43.372  22.726  51.886  0.00  0.00     0.084 H 
ATOM      8  H2  PEA d          44.490  24.348  53.332  0.00  0.00     0.083 H 
ATOM      9  H3  PEA d          46.915  24.109  53.845  0.00  0.00     0.083 H 
ATOM     10  H4  PEA d          48.135  22.196  52.851  0.00  0.00     0.083 H 
ATOM     11  H5  PEA d          47.009  20.610  51.399  0.00  0.00     0.084 H 
ENDROOT
BRANCH   1  12
ATOM     12  C2  PEA d          44.423  20.643  50.644  0.00  0.00    -0.019 C 
ATOM     13  H6  PEA d          43.796  21.217  49.945  0.00  0.00     0.042 H 
ATOM     14  H7  PEA d          43.787  19.980  51.249  0.00  0.00     0.042 H 
BRANCH  12  15
ATOM     15  C1  PEA d          45.426  19.773  49.826  0.00  0.00     0.083 C 
ATOM     16  H8  PEA d          45.071  18.733  49.818  0.00  0.00     0.075 H 
ATOM     17  H9  PEA d          46.414  19.820  50.307  0.00  0.00     0.075 H 
BRANCH  15  18
ATOM     18  N   PEA d          45.549  20.255  48.417  0.00  0.00    -0.079 N 
ATOM     19  H10 PEA d          45.374  21.247  48.385  0.00  0.00     0.274 HD
ATOM     20  H11 PEA d          44.877  19.777  47.839  0.00  0.00     0.274 HD
ATOM     21  H12 PEA d          46.480  20.067  48.078  0.00  0.00     0.274 HD
ENDBRANCH  15  18
ENDBRANCH  12  15
ENDBRANCH   1  12
TORSDOF 3
ENDMDL
