MODEL 1
REMARK VINA RESULT:      -8.8      0.000      0.000
REMARK  3 active torsions:
REMARK  status: ('A' for Active; 'I' for Inactive)
REMARK    1  A    between atoms: C2_2  and  C22_10 
REMARK    2  A    between atoms: C6_6  and  N1_12 
REMARK    3  A    between atoms: C22_10  and  O22_9 
ROOT
ATOM      1  C1  HNT d          28.068  45.455  18.431  0.00  0.00    -0.012 C 
ATOM      2  C2  HNT d          27.499  44.714  19.643  0.00  0.00     0.126 C 
ATOM      3  C4  HNT d          27.157  42.583  18.506  0.00  0.00     0.106 C 
ATOM      4  C5  HNT d          26.835  42.749  16.022  0.00  0.00    -0.043 A 
ATOM      5  C6  HNT d          26.860  43.428  14.810  0.00  0.00     0.103 A 
ATOM      6  C7  HNT d          27.271  44.758  14.781  0.00  0.00    -0.050 A 
ATOM      7  C8  HNT d          27.658  45.395  15.957  0.00  0.00    -0.074 A 
ATOM      8  C8A HNT d          27.635  44.711  17.166  0.00  0.00    -0.048 A 
ATOM      9  C4A HNT d          27.220  43.382  17.202  0.00  0.00    -0.024 A 
ATOM     10  N41 HNT d          27.865  43.290  19.586  0.00  0.00    -0.065 N 
ATOM     11  H1  HNT d          29.166  45.478  18.492  0.00  0.00     0.043 H 
ATOM     12  H2  HNT d          27.681  46.483  18.409  0.00  0.00     0.043 H 
ATOM     13  H3  HNT d          26.402  44.785  19.605  0.00  0.00     0.088 H 
ATOM     14  H4  HNT d          27.625  41.600  18.350  0.00  0.00     0.083 H 
ATOM     15  H5  HNT d          26.104  42.446  18.794  0.00  0.00     0.083 H 
ATOM     16  H6  HNT d          26.512  41.714  16.050  0.00  0.00     0.088 H 
ATOM     17  H7  HNT d          27.289  45.298  13.841  0.00  0.00     0.087 H 
ATOM     18  H8  HNT d          27.979  46.430  15.928  0.00  0.00     0.084 H 
ATOM     19  H12 HNT d          27.632  42.858  20.467  0.00  0.00     0.278 HD
ATOM     20  H13 HNT d          28.858  43.214  19.428  0.00  0.00     0.278 HD
ENDROOT
BRANCH   2  21
ATOM     21  C22 HNT d          27.970  45.368  20.944  0.00  0.00     0.044 C 
ATOM     22  H10 HNT d          27.990  46.461  20.819  0.00  0.00     0.077 H 
ATOM     23  H11 HNT d          28.980  45.008  21.191  0.00  0.00     0.077 H 
BRANCH  21  24
ATOM     24  O22 HNT d          27.070  45.026  22.001  0.00  0.00    -0.399 OA
ATOM     25  H9  HNT d          26.939  44.085  22.011  0.00  0.00     0.209 HD
ENDBRANCH  21  24
ENDBRANCH   2  21
BRANCH   5  26
ATOM     26  N1  HNT d          26.553  42.799  13.675  0.00  0.00    -0.116 N 
ATOM     27  O2  HNT d          26.117  43.529  12.537  0.00  0.00    -0.532 OA
ATOM     28  O3  HNT d          26.661  41.385  13.588  0.00  0.00    -0.532 OA
ENDBRANCH   5  26
TORSDOF 3
ENDMDL
MODEL 2
REMARK VINA RESULT:      -7.7      1.053      1.931
REMARK  3 active torsions:
REMARK  status: ('A' for Active; 'I' for Inactive)
REMARK    1  A    between atoms: C2_2  and  C22_10 
REMARK    2  A    between atoms: C6_6  and  N1_12 
REMARK    3  A    between atoms: C22_10  and  O22_9 
ROOT
ATOM      1  C1  HNT d          27.069  43.666  19.272  0.00  0.00    -0.012 C 
ATOM      2  C2  HNT d          28.140  44.736  19.497  0.00  0.00     0.126 C 
ATOM      3  C4  HNT d          28.063  45.657  17.240  0.00  0.00     0.106 C 
ATOM      4  C5  HNT d          27.277  44.060  15.471  0.00  0.00    -0.043 A 
ATOM      5  C6  HNT d          26.700  42.872  15.039  0.00  0.00     0.103 A 
ATOM      6  C7  HNT d          26.252  41.950  15.981  0.00  0.00    -0.050 A 
ATOM      7  C8  HNT d          26.377  42.221  17.341  0.00  0.00    -0.074 A 
ATOM      8  C8A HNT d          26.952  43.413  17.768  0.00  0.00    -0.048 A 
ATOM      9  C4A HNT d          27.406  44.337  16.831  0.00  0.00    -0.024 A 
ATOM     10  N41 HNT d          27.855  45.921  18.674  0.00  0.00    -0.065 N 
ATOM     11  H1  HNT d          26.104  44.017  19.667  0.00  0.00     0.043 H 
ATOM     12  H2  HNT d          27.358  42.737  19.784  0.00  0.00     0.043 H 
ATOM     13  H3  HNT d          29.109  44.324  19.178  0.00  0.00     0.088 H 
ATOM     14  H4  HNT d          27.622  46.477  16.655  0.00  0.00     0.083 H 
ATOM     15  H5  HNT d          29.143  45.601  17.037  0.00  0.00     0.083 H 
ATOM     16  H6  HNT d          27.631  44.780  14.741  0.00  0.00     0.088 H 
ATOM     17  H7  HNT d          25.804  41.017  15.655  0.00  0.00     0.087 H 
ATOM     18  H8  HNT d          26.025  41.501  18.070  0.00  0.00     0.084 H 
ATOM     19  H12 HNT d          28.465  46.671  18.960  0.00  0.00     0.278 HD
ATOM     20  H13 HNT d          26.896  46.196  18.818  0.00  0.00     0.278 HD
ENDROOT
BRANCH   2  21
ATOM     21  C22 HNT d          28.243  45.089  20.983  0.00  0.00     0.044 C 
ATOM     22  H10 HNT d          28.727  46.071  21.094  0.00  0.00     0.077 H 
ATOM     23  H11 HNT d          28.841  44.325  21.501  0.00  0.00     0.077 H 
BRANCH  21  24
ATOM     24  O22 HNT d          26.933  45.137  21.552  0.00  0.00    -0.399 OA
ATOM     25  H9  HNT d          26.944  44.719  22.405  0.00  0.00     0.209 HD
ENDBRANCH  21  24
ENDBRANCH   2  21
BRANCH   5  26
ATOM     26  N1  HNT d          26.519  42.640  13.739  0.00  0.00    -0.116 N 
ATOM     27  O2  HNT d          25.969  43.642  12.894  0.00  0.00    -0.532 OA
ATOM     28  O3  HNT d          26.877  41.385  13.178  0.00  0.00    -0.532 OA
ENDBRANCH   5  26
TORSDOF 3
ENDMDL
MODEL 3
REMARK VINA RESULT:      -7.4      1.350      5.999
REMARK  3 active torsions:
REMARK  status: ('A' for Active; 'I' for Inactive)
REMARK    1  A    between atoms: C2_2  and  C22_10 
REMARK    2  A    between atoms: C6_6  and  N1_12 
REMARK    3  A    between atoms: C22_10  and  O22_9 
ROOT
ATOM      1  C1  HNT d          26.714  42.523  15.694  0.00  0.00    -0.012 C 
ATOM      2  C2  HNT d          26.412  43.466  14.529  0.00  0.00     0.126 C 
ATOM      3  C4  HNT d          27.650  45.374  15.411  0.00  0.00     0.106 C 
ATOM      4  C5  HNT d          27.894  45.412  17.909  0.00  0.00    -0.043 A 
ATOM      5  C6  HNT d          27.809  44.842  19.174  0.00  0.00     0.103 A 
ATOM      6  C7  HNT d          27.365  43.529  19.301  0.00  0.00    -0.050 A 
ATOM      7  C8  HNT d          27.018  42.795  18.170  0.00  0.00    -0.074 A 
ATOM      8  C8A HNT d          27.108  43.368  16.907  0.00  0.00    -0.048 A 
ATOM      9  C4A HNT d          27.546  44.683  16.774  0.00  0.00    -0.024 A 
ATOM     10  N41 HNT d          27.536  44.392  14.319  0.00  0.00    -0.065 N 
ATOM     11  H1  HNT d          27.542  41.851  15.424  0.00  0.00     0.043 H 
ATOM     12  H2  HNT d          25.822  41.926  15.931  0.00  0.00     0.043 H 
ATOM     13  H3  HNT d          25.524  44.062  14.790  0.00  0.00     0.088 H 
ATOM     14  H4  HNT d          28.622  45.883  15.338  0.00  0.00     0.083 H 
ATOM     15  H5  HNT d          26.841  46.112  15.319  0.00  0.00     0.083 H 
ATOM     16  H6  HNT d          28.235  46.437  17.805  0.00  0.00     0.088 H 
ATOM     17  H7  HNT d          27.290  43.076  20.284  0.00  0.00     0.087 H 
ATOM     18  H8  HNT d          26.675  41.772  18.275  0.00  0.00     0.084 H 
ATOM     19  H12 HNT d          27.394  44.885  13.451  0.00  0.00     0.278 HD
ATOM     20  H13 HNT d          28.391  43.861  14.269  0.00  0.00     0.278 HD
ENDROOT
BRANCH   2  21
ATOM     21  C22 HNT d          26.090  42.670  13.262  0.00  0.00     0.044 C 
ATOM     22  H10 HNT d          26.471  43.210  12.382  0.00  0.00     0.077 H 
ATOM     23  H11 HNT d          25.000  42.548  13.173  0.00  0.00     0.077 H 
BRANCH  21  24
ATOM     24  O22 HNT d          26.710  41.385  13.338  0.00  0.00    -0.399 OA
ATOM     25  H9  HNT d          27.012  41.232  14.225  0.00  0.00     0.209 HD
ENDBRANCH  21  24
ENDBRANCH   2  21
BRANCH   5  26
ATOM     26  N1  HNT d          28.204  45.522  20.251  0.00  0.00    -0.116 N 
ATOM     27  O2  HNT d          27.826  45.099  21.553  0.00  0.00    -0.532 OA
ATOM     28  O3  HNT d          29.015  46.680  20.110  0.00  0.00    -0.532 OA
ENDBRANCH   5  26
TORSDOF 3
ENDMDL
