MODEL 1
REMARK VINA RESULT:      -7.9      0.000      0.000
REMARK  17 active torsions:
REMARK  status: ('A' for Active; 'I' for Inactive)
REMARK    1  A    between atoms: CBD_3  and  OAI_4 
REMARK    2  A    between atoms: CBF_7  and  CAV_8 
REMARK    3  A    between atoms: CAV_8  and  CBI_9 
REMARK    4  A    between atoms: CBI_9  and  PBK_10 
REMARK    5  A    between atoms: CBI_9  and  NAY_14 
REMARK       I    between atoms: NAY_14  and  C_15 
REMARK    6  A    between atoms: C_15  and  CA_17 
REMARK    7  A    between atoms: CA_17  and  N_18 
REMARK    8  A    between atoms: CA_17  and  CB_30 
REMARK       I    between atoms: N_18  and  CBB_19 
REMARK    9  A    between atoms: CBB_19  and  CBJ_21 
REMARK   10  A    between atoms: CBJ_21  and  CBG_22 
REMARK   11  A    between atoms: CBJ_21  and  NAX_26 
REMARK   12  A    between atoms: CBG_22  and  CAC_23 
REMARK   13  A    between atoms: CBG_22  and  CAT_24 
REMARK   14  A    between atoms: CAT_24  and  CAA_25 
REMARK       I    between atoms: NAX_26  and  CAZ_27 
REMARK   15  A    between atoms: CAZ_27  and  CAB_28 
REMARK   16  A    between atoms: CB_30  and  CG_31 
REMARK   17  A    between atoms: CZ_34  and  OH_35 
ROOT
ATOM      1  CA  K26 d          -9.190  22.471 -13.730  0.00  0.00     0.093 C 
ATOM      2  H10 K26 d          -9.003  21.576 -13.119  0.00  0.00     0.088 H 
ENDROOT
BRANCH   1   3
ATOM      3  C   K26 d          -7.912  23.313 -13.771  0.00  0.00     0.241 C 
ATOM      4  NAY K26 d          -6.781  22.624 -13.946  0.00  0.00    -0.342 N 
ATOM      5  H9  K26 d          -6.836  21.641 -14.121  0.00  0.00     0.163 HD
ATOM      6  O   K26 d          -7.977  24.532 -13.607  0.00  0.00    -0.271 OA
BRANCH   4   7
ATOM      7  CBI K26 d          -5.455  23.262 -13.891  0.00  0.00     0.124 C 
ATOM      8  H8  K26 d          -5.582  24.331 -13.662  0.00  0.00     0.095 H 
BRANCH   7   9
ATOM      9  CAV K26 d          -4.658  22.602 -12.743  0.00  0.00    -0.010 C 
ATOM     10  H6  K26 d          -5.216  21.728 -12.378  0.00  0.00     0.044 H 
ATOM     11  H7  K26 d          -3.680  22.277 -13.129  0.00  0.00     0.044 H 
BRANCH   9  12
ATOM     12  CBF K26 d          -4.434  23.575 -11.574  0.00  0.00    -0.055 A 
ATOM     13  CAR K26 d          -3.150  24.049 -11.315  0.00  0.00    -0.074 A 
ATOM     14  CAN K26 d          -2.927  24.940 -10.268  0.00  0.00    -0.051 A 
ATOM     15  H1  K26 d          -2.321  23.722 -11.931  0.00  0.00     0.084 H 
ATOM     16  CBD K26 d          -3.994  25.363  -9.475  0.00  0.00     0.065 A 
ATOM     17  H2  K26 d          -1.925  25.305 -10.071  0.00  0.00     0.087 H 
ATOM     18  CAO K26 d          -5.289  24.902  -9.731  0.00  0.00    -0.051 A 
ATOM     19  CAS K26 d          -5.505  24.006 -10.779  0.00  0.00    -0.074 A 
ATOM     20  H4  K26 d          -6.119  25.238  -9.120  0.00  0.00     0.087 H 
ATOM     21  H5  K26 d          -6.506  23.641 -10.979  0.00  0.00     0.084 H 
BRANCH  16  22
ATOM     22  OAI K26 d          -3.759  26.233  -8.455  0.00  0.00    -0.361 OA
ATOM     23  H3  K26 d          -4.569  26.397  -7.987  0.00  0.00     0.217 HD
ENDBRANCH  16  22
ENDBRANCH   9  12
ENDBRANCH   7   9
BRANCH   7  24
ATOM     24  PBK K26 d          -4.592  23.125 -15.514  0.00  0.00     0.283 P 
ATOM     25  OAJ K26 d          -4.109  24.589 -15.873  0.00  0.00    -0.638 OA
ATOM     26  OAK K26 d          -3.274  22.229 -15.167  0.00  0.00    -0.638 OA
ATOM     27  OAG K26 d          -5.442  22.535 -16.583  0.00  0.00    -0.638 OA
ENDBRANCH   7  24
ENDBRANCH   4   7
ENDBRANCH   1   3
BRANCH   1  28
ATOM     28  N   K26 d         -10.267  23.267 -13.108  0.00  0.00    -0.346 N 
ATOM     29  CBB K26 d         -10.915  22.915 -11.990  0.00  0.00     0.241 C 
ATOM     30  OAF K26 d         -10.714  21.876 -11.359  0.00  0.00    -0.271 OA
ATOM     31  H11 K26 d         -10.531  24.125 -13.550  0.00  0.00     0.163 HD
BRANCH  29  32
ATOM     32  CBJ K26 d         -12.033  23.885 -11.567  0.00  0.00     0.092 C 
ATOM     33  H12 K26 d         -12.546  24.246 -12.469  0.00  0.00     0.088 H 
BRANCH  32  34
ATOM     34  CBG K26 d         -11.502  25.110 -10.813  0.00  0.00    -0.030 C 
ATOM     35  H13 K26 d         -11.039  25.795 -11.540  0.00  0.00     0.043 H 
BRANCH  34  36
ATOM     36  CAC K26 d         -12.659  25.839 -10.118  0.00  0.00    -0.071 C 
ATOM     37  H14 K26 d         -13.101  26.570 -10.812  0.00  0.00     0.028 H 
ATOM     38  H15 K26 d         -12.281  26.361  -9.227  0.00  0.00     0.028 H 
ATOM     39  H16 K26 d         -13.425  25.109  -9.818  0.00  0.00     0.028 H 
ENDBRANCH  34  36
BRANCH  34  40
ATOM     40  CAT K26 d         -10.437  24.703  -9.781  0.00  0.00    -0.063 C 
ATOM     41  H17 K26 d         -10.352  23.606  -9.778  0.00  0.00     0.033 H 
ATOM     42  H18 K26 d         -10.760  25.049  -8.788  0.00  0.00     0.033 H 
BRANCH  40  43
ATOM     43  CAA K26 d          -9.064  25.300 -10.086  0.00  0.00    -0.076 C 
ATOM     44  H19 K26 d          -8.305  24.505 -10.062  0.00  0.00     0.027 H 
ATOM     45  H20 K26 d          -8.820  26.062  -9.331  0.00  0.00     0.027 H 
ATOM     46  H21 K26 d          -9.079  25.764 -11.084  0.00  0.00     0.027 H 
ENDBRANCH  40  43
ENDBRANCH  34  40
ENDBRANCH  32  34
BRANCH  32  47
ATOM     47  NAX K26 d         -12.987  23.101 -10.757  0.00  0.00    -0.348 N 
ATOM     48  CAZ K26 d         -14.242  22.881 -11.155  0.00  0.00     0.214 C 
ATOM     49  OAD K26 d         -14.735  23.350 -12.179  0.00  0.00    -0.274 OA
ATOM     50  H22 K26 d         -12.684  22.723  -9.882  0.00  0.00     0.163 HD
BRANCH  48  51
ATOM     51  CAB K26 d         -15.083  22.011 -10.219  0.00  0.00    -0.003 C 
ATOM     52  H23 K26 d         -15.141  22.487  -9.229  0.00  0.00     0.040 H 
ATOM     53  H24 K26 d         -14.617  21.019 -10.123  0.00  0.00     0.040 H 
ATOM     54  H25 K26 d         -16.097  21.902 -10.633  0.00  0.00     0.040 H 
ENDBRANCH  48  51
ENDBRANCH  32  47
ENDBRANCH  29  32
ENDBRANCH   1  28
BRANCH   1  55
ATOM     55  CB  K26 d          -9.628  22.026 -15.119  0.00  0.00    -0.014 C 
ATOM     56  H26 K26 d         -10.594  21.505 -15.052  0.00  0.00     0.043 H 
ATOM     57  H27 K26 d          -8.875  21.347 -15.545  0.00  0.00     0.043 H 
BRANCH  55  58
ATOM     58  CG  K26 d          -9.771  23.266 -16.016  0.00  0.00    -0.056 A 
ATOM     59  CD1 K26 d          -8.699  23.685 -16.800  0.00  0.00    -0.074 A 
ATOM     60  CE1 K26 d          -8.829  24.802 -17.629  0.00  0.00    -0.051 A 
ATOM     61  H28 K26 d          -7.761  23.142 -16.767  0.00  0.00     0.084 H 
ATOM     62  CZ  K26 d         -10.035  25.502 -17.677  0.00  0.00     0.065 A 
ATOM     63  H29 K26 d          -7.991  25.125 -18.237  0.00  0.00     0.087 H 
ATOM     64  CE2 K26 d         -11.110  25.079 -16.896  0.00  0.00    -0.051 A 
ATOM     65  CD2 K26 d         -10.982  23.960 -16.070  0.00  0.00    -0.074 A 
ATOM     66  H31 K26 d         -12.048  25.620 -16.930  0.00  0.00     0.087 H 
ATOM     67  H32 K26 d         -11.823  23.630 -15.470  0.00  0.00     0.084 H 
BRANCH  62  68
ATOM     68  OH  K26 d         -10.155  26.603 -18.481  0.00  0.00    -0.361 OA
ATOM     69  H30 K26 d         -11.074  26.821 -18.582  0.00  0.00     0.217 HD
ENDBRANCH  62  68
ENDBRANCH  55  58
ENDBRANCH   1  55
TORSDOF 17
ENDMDL
MODEL 2
REMARK VINA RESULT:      -7.6      2.364      5.338
REMARK  17 active torsions:
REMARK  status: ('A' for Active; 'I' for Inactive)
REMARK    1  A    between atoms: CBD_3  and  OAI_4 
REMARK    2  A    between atoms: CBF_7  and  CAV_8 
REMARK    3  A    between atoms: CAV_8  and  CBI_9 
REMARK    4  A    between atoms: CBI_9  and  PBK_10 
REMARK    5  A    between atoms: CBI_9  and  NAY_14 
REMARK       I    between atoms: NAY_14  and  C_15 
REMARK    6  A    between atoms: C_15  and  CA_17 
REMARK    7  A    between atoms: CA_17  and  N_18 
REMARK    8  A    between atoms: CA_17  and  CB_30 
REMARK       I    between atoms: N_18  and  CBB_19 
REMARK    9  A    between atoms: CBB_19  and  CBJ_21 
REMARK   10  A    between atoms: CBJ_21  and  CBG_22 
REMARK   11  A    between atoms: CBJ_21  and  NAX_26 
REMARK   12  A    between atoms: CBG_22  and  CAC_23 
REMARK   13  A    between atoms: CBG_22  and  CAT_24 
REMARK   14  A    between atoms: CAT_24  and  CAA_25 
REMARK       I    between atoms: NAX_26  and  CAZ_27 
REMARK   15  A    between atoms: CAZ_27  and  CAB_28 
REMARK   16  A    between atoms: CB_30  and  CG_31 
REMARK   17  A    between atoms: CZ_34  and  OH_35 
ROOT
ATOM      1  CA  K26 d          -7.894  25.515 -11.644  0.00  0.00     0.093 C 
ATOM      2  H10 K26 d          -7.429  26.469 -11.356  0.00  0.00     0.088 H 
ENDROOT
BRANCH   1   3
ATOM      3  C   K26 d          -7.843  25.385 -13.169  0.00  0.00     0.241 C 
ATOM      4  NAY K26 d          -7.915  24.137 -13.638  0.00  0.00    -0.342 N 
ATOM      5  H9  K26 d          -8.079  23.389 -12.996  0.00  0.00     0.163 HD
ATOM      6  O   K26 d          -7.704  26.393 -13.863  0.00  0.00    -0.271 OA
BRANCH   4   7
ATOM      7  CBI K26 d          -7.763  23.825 -15.069  0.00  0.00     0.124 C 
ATOM      8  H8  K26 d          -7.457  24.737 -15.603  0.00  0.00     0.095 H 
BRANCH   7   9
ATOM      9  CAV K26 d          -6.639  22.772 -15.207  0.00  0.00    -0.010 C 
ATOM     10  H6  K26 d          -7.027  21.794 -14.886  0.00  0.00     0.044 H 
ATOM     11  H7  K26 d          -6.330  22.716 -16.262  0.00  0.00     0.044 H 
BRANCH   9  12
ATOM     12  CBF K26 d          -5.416  23.130 -14.348  0.00  0.00    -0.055 A 
ATOM     13  CAR K26 d          -4.663  24.258 -14.667  0.00  0.00    -0.074 A 
ATOM     14  CAN K26 d          -3.558  24.608 -13.896  0.00  0.00    -0.051 A 
ATOM     15  H1  K26 d          -4.939  24.866 -15.521  0.00  0.00     0.084 H 
ATOM     16  CBD K26 d          -3.202  23.827 -12.795  0.00  0.00     0.065 A 
ATOM     17  H2  K26 d          -2.975  25.486 -14.150  0.00  0.00     0.087 H 
ATOM     18  CAO K26 d          -3.955  22.698 -12.459  0.00  0.00    -0.051 A 
ATOM     19  CAS K26 d          -5.059  22.351 -13.239  0.00  0.00    -0.074 A 
ATOM     20  H4  K26 d          -3.684  22.097 -11.599  0.00  0.00     0.087 H 
ATOM     21  H5  K26 d          -5.644  21.474 -12.986  0.00  0.00     0.084 H 
BRANCH  16  22
ATOM     22  OAI K26 d          -2.118  24.182 -12.053  0.00  0.00    -0.361 OA
ATOM     23  H3  K26 d          -1.421  23.552 -12.191  0.00  0.00     0.217 HD
ENDBRANCH  16  22
ENDBRANCH   9  12
ENDBRANCH   7   9
BRANCH   7  24
ATOM     24  PBK K26 d          -9.358  23.248 -15.789  0.00  0.00     0.283 P 
ATOM     25  OAJ K26 d         -10.487  24.097 -15.075  0.00  0.00    -0.638 OA
ATOM     26  OAK K26 d          -9.268  23.732 -17.344  0.00  0.00    -0.638 OA
ATOM     27  OAG K26 d          -9.575  21.784 -15.639  0.00  0.00    -0.638 OA
ENDBRANCH   7  24
ENDBRANCH   4   7
ENDBRANCH   1   3
BRANCH   1  28
ATOM     28  N   K26 d          -9.306  25.513 -11.210  0.00  0.00    -0.346 N 
ATOM     29  CBB K26 d         -10.091  24.428 -11.204  0.00  0.00     0.241 C 
ATOM     30  OAF K26 d          -9.745  23.308 -11.581  0.00  0.00    -0.271 OA
ATOM     31  H11 K26 d          -9.702  26.378 -10.902  0.00  0.00     0.163 HD
BRANCH  29  32
ATOM     32  CBJ K26 d         -11.540  24.691 -10.756  0.00  0.00     0.092 C 
ATOM     33  H12 K26 d         -12.044  25.291 -11.527  0.00  0.00     0.088 H 
BRANCH  32  34
ATOM     34  CBG K26 d         -11.623  25.467  -9.437  0.00  0.00    -0.030 C 
ATOM     35  H13 K26 d         -10.809  26.207  -9.414  0.00  0.00     0.043 H 
BRANCH  34  36
ATOM     36  CAC K26 d         -12.963  26.208  -9.348  0.00  0.00    -0.071 C 
ATOM     37  H14 K26 d         -12.789  27.291  -9.435  0.00  0.00     0.028 H 
ATOM     38  H15 K26 d         -13.440  25.990  -8.382  0.00  0.00     0.028 H 
ATOM     39  H16 K26 d         -13.621  25.875 -10.165  0.00  0.00     0.028 H 
ENDBRANCH  34  36
BRANCH  34  40
ATOM     40  CAT K26 d         -11.458  24.525  -8.233  0.00  0.00    -0.063 C 
ATOM     41  H17 K26 d         -11.612  23.490  -8.573  0.00  0.00     0.033 H 
ATOM     42  H18 K26 d         -12.219  24.780  -7.480  0.00  0.00     0.033 H 
BRANCH  40  43
ATOM     43  CAA K26 d         -10.077  24.630  -7.589  0.00  0.00    -0.076 C 
ATOM     44  H19 K26 d          -9.564  23.660  -7.661  0.00  0.00     0.027 H 
ATOM     45  H20 K26 d         -10.186  24.909  -6.530  0.00  0.00     0.027 H 
ATOM     46  H21 K26 d          -9.486  25.397  -8.111  0.00  0.00     0.027 H 
ENDBRANCH  40  43
ENDBRANCH  34  40
ENDBRANCH  32  34
BRANCH  32  47
ATOM     47  NAX K26 d         -12.201  23.373 -10.672  0.00  0.00    -0.348 N 
ATOM     48  CAZ K26 d         -13.248  23.054 -11.436  0.00  0.00     0.214 C 
ATOM     49  OAD K26 d         -13.792  23.827 -12.223  0.00  0.00    -0.274 OA
ATOM     50  H22 K26 d         -11.854  22.698 -10.020  0.00  0.00     0.163 HD
BRANCH  48  51
ATOM     51  CAB K26 d         -13.783  21.632 -11.253  0.00  0.00    -0.003 C 
ATOM     52  H23 K26 d         -13.165  20.930 -11.832  0.00  0.00     0.040 H 
ATOM     53  H24 K26 d         -14.823  21.584 -11.608  0.00  0.00     0.040 H 
ATOM     54  H25 K26 d         -13.746  21.361 -10.188  0.00  0.00     0.040 H 
ENDBRANCH  48  51
ENDBRANCH  32  47
ENDBRANCH  29  32
ENDBRANCH   1  28
BRANCH   1  55
ATOM     55  CB  K26 d          -7.150  24.383 -10.947  0.00  0.00    -0.014 C 
ATOM     56  H26 K26 d          -6.514  23.856 -11.674  0.00  0.00     0.043 H 
ATOM     57  H27 K26 d          -7.873  23.676 -10.513  0.00  0.00     0.043 H 
BRANCH  55  58
ATOM     58  CG  K26 d          -6.276  24.977  -9.831  0.00  0.00    -0.056 A 
ATOM     59  CD1 K26 d          -6.769  25.060  -8.531  0.00  0.00    -0.074 A 
ATOM     60  CE1 K26 d          -5.973  25.584  -7.509  0.00  0.00    -0.051 A 
ATOM     61  H28 K26 d          -7.774  24.716  -8.311  0.00  0.00     0.084 H 
ATOM     62  CZ  K26 d          -4.678  26.025  -7.787  0.00  0.00     0.065 A 
ATOM     63  H29 K26 d          -6.361  25.648  -6.499  0.00  0.00     0.087 H 
ATOM     64  CE2 K26 d          -4.183  25.937  -9.088  0.00  0.00    -0.051 A 
ATOM     65  CD2 K26 d          -4.977  25.409 -10.109  0.00  0.00    -0.074 A 
ATOM     66  H31 K26 d          -3.178  26.278  -9.307  0.00  0.00     0.087 H 
ATOM     67  H32 K26 d          -4.585  25.335 -11.117  0.00  0.00     0.084 H 
BRANCH  62  68
ATOM     68  OH  K26 d          -3.905  26.549  -6.787  0.00  0.00    -0.361 OA
ATOM     69  H30 K26 d          -4.246  27.399  -6.537  0.00  0.00     0.217 HD
ENDBRANCH  62  68
ENDBRANCH  55  58
ENDBRANCH   1  55
TORSDOF 17
ENDMDL
MODEL 3
REMARK VINA RESULT:      -7.6      1.744      2.395
REMARK  17 active torsions:
REMARK  status: ('A' for Active; 'I' for Inactive)
REMARK    1  A    between atoms: CBD_3  and  OAI_4 
REMARK    2  A    between atoms: CBF_7  and  CAV_8 
REMARK    3  A    between atoms: CAV_8  and  CBI_9 
REMARK    4  A    between atoms: CBI_9  and  PBK_10 
REMARK    5  A    between atoms: CBI_9  and  NAY_14 
REMARK       I    between atoms: NAY_14  and  C_15 
REMARK    6  A    between atoms: C_15  and  CA_17 
REMARK    7  A    between atoms: CA_17  and  N_18 
REMARK    8  A    between atoms: CA_17  and  CB_30 
REMARK       I    between atoms: N_18  and  CBB_19 
REMARK    9  A    between atoms: CBB_19  and  CBJ_21 
REMARK   10  A    between atoms: CBJ_21  and  CBG_22 
REMARK   11  A    between atoms: CBJ_21  and  NAX_26 
REMARK   12  A    between atoms: CBG_22  and  CAC_23 
REMARK   13  A    between atoms: CBG_22  and  CAT_24 
REMARK   14  A    between atoms: CAT_24  and  CAA_25 
REMARK       I    between atoms: NAX_26  and  CAZ_27 
REMARK   15  A    between atoms: CAZ_27  and  CAB_28 
REMARK   16  A    between atoms: CB_30  and  CG_31 
REMARK   17  A    between atoms: CZ_34  and  OH_35 
ROOT
ATOM      1  CA  K26 d          -7.506  23.199 -14.825  0.00  0.00     0.093 C 
ATOM      2  H10 K26 d          -7.803  22.166 -15.059  0.00  0.00     0.088 H 
ENDROOT
BRANCH   1   3
ATOM      3  C   K26 d          -6.195  23.165 -14.036  0.00  0.00     0.241 C 
ATOM      4  NAY K26 d          -5.752  24.352 -13.614  0.00  0.00    -0.342 N 
ATOM      5  H9  K26 d          -6.324  25.160 -13.758  0.00  0.00     0.163 HD
ATOM      6  O   K26 d          -5.611  22.094 -13.866  0.00  0.00    -0.271 OA
BRANCH   4   7
ATOM      7  CBI K26 d          -4.451  24.514 -12.945  0.00  0.00     0.124 C 
ATOM      8  H8  K26 d          -4.396  25.522 -12.509  0.00  0.00     0.095 H 
BRANCH   7   9
ATOM      9  CAV K26 d          -4.372  23.476 -11.802  0.00  0.00    -0.010 C 
ATOM     10  H6  K26 d          -4.681  22.494 -12.191  0.00  0.00     0.044 H 
ATOM     11  H7  K26 d          -3.334  23.418 -11.443  0.00  0.00     0.044 H 
BRANCH   9  12
ATOM     12  CBF K26 d          -5.286  23.856 -10.626  0.00  0.00    -0.055 A 
ATOM     13  CAR K26 d          -6.442  23.115 -10.391  0.00  0.00    -0.074 A 
ATOM     14  CAN K26 d          -7.278  23.435  -9.324  0.00  0.00    -0.051 A 
ATOM     15  H1  K26 d          -6.692  22.286 -11.042  0.00  0.00     0.084 H 
ATOM     16  CBD K26 d          -6.957  24.501  -8.484  0.00  0.00     0.065 A 
ATOM     17  H2  K26 d          -8.177  22.855  -9.146  0.00  0.00     0.087 H 
ATOM     18  CAO K26 d          -5.794  25.246  -8.703  0.00  0.00    -0.051 A 
ATOM     19  CAS K26 d          -4.964  24.923  -9.777  0.00  0.00    -0.074 A 
ATOM     20  H4  K26 d          -5.541  26.069  -8.045  0.00  0.00     0.087 H 
ATOM     21  H5  K26 d          -4.063  25.501  -9.955  0.00  0.00     0.084 H 
BRANCH  16  22
ATOM     22  OAI K26 d          -7.785  24.802  -7.447  0.00  0.00    -0.361 OA
ATOM     23  H3  K26 d          -7.283  25.208  -6.749  0.00  0.00     0.217 HD
ENDBRANCH  16  22
ENDBRANCH   9  12
ENDBRANCH   7   9
BRANCH   7  24
ATOM     24  PBK K26 d          -3.067  24.337 -14.149  0.00  0.00     0.283 P 
ATOM     25  OAJ K26 d          -2.284  25.712 -14.114  0.00  0.00    -0.638 OA
ATOM     26  OAK K26 d          -2.118  23.197 -13.470  0.00  0.00    -0.638 OA
ATOM     27  OAG K26 d          -3.522  23.984 -15.521  0.00  0.00    -0.638 OA
ENDBRANCH   7  24
ENDBRANCH   4   7
ENDBRANCH   1   3
BRANCH   1  28
ATOM     28  N   K26 d          -8.551  23.827 -13.990  0.00  0.00    -0.346 N 
ATOM     29  CBB K26 d          -9.528  23.152 -13.372  0.00  0.00     0.241 C 
ATOM     30  OAF K26 d          -9.694  21.933 -13.443  0.00  0.00    -0.271 OA
ATOM     31  H11 K26 d          -8.528  24.820 -13.880  0.00  0.00     0.163 HD
BRANCH  29  32
ATOM     32  CBJ K26 d         -10.526  24.034 -12.602  0.00  0.00     0.092 C 
ATOM     33  H12 K26 d         -11.120  24.610 -13.327  0.00  0.00     0.088 H 
BRANCH  32  34
ATOM     34  CBG K26 d          -9.836  25.036 -11.669  0.00  0.00    -0.030 C 
ATOM     35  H13 K26 d          -8.749  24.870 -11.719  0.00  0.00     0.043 H 
BRANCH  34  36
ATOM     36  CAC K26 d         -10.136  26.469 -12.124  0.00  0.00    -0.071 C 
ATOM     37  H14 K26 d          -9.196  27.038 -12.189  0.00  0.00     0.028 H 
ATOM     38  H15 K26 d         -10.807  26.952 -11.399  0.00  0.00     0.028 H 
ATOM     39  H16 K26 d         -10.620  26.447 -13.112  0.00  0.00     0.028 H 
ENDBRANCH  34  36
BRANCH  34  40
ATOM     40  CAT K26 d         -10.293  24.837 -10.214  0.00  0.00    -0.063 C 
ATOM     41  H17 K26 d          -9.405  24.830  -9.564  0.00  0.00     0.033 H 
ATOM     42  H18 K26 d         -10.810  23.870 -10.137  0.00  0.00     0.033 H 
BRANCH  40  43
ATOM     43  CAA K26 d         -11.240  25.938  -9.739  0.00  0.00    -0.076 C 
ATOM     44  H19 K26 d         -11.482  26.601 -10.582  0.00  0.00     0.027 H 
ATOM     45  H20 K26 d         -10.754  26.521  -8.942  0.00  0.00     0.027 H 
ATOM     46  H21 K26 d         -12.163  25.485  -9.350  0.00  0.00     0.027 H 
ENDBRANCH  40  43
ENDBRANCH  34  40
ENDBRANCH  32  34
BRANCH  32  47
ATOM     47  NAX K26 d         -11.425  23.118 -11.872  0.00  0.00    -0.348 N 
ATOM     48  CAZ K26 d         -12.754  23.222 -11.942  0.00  0.00     0.214 C 
ATOM     49  OAD K26 d         -13.347  24.107 -12.555  0.00  0.00    -0.274 OA
ATOM     50  H22 K26 d         -11.026  22.396 -11.306  0.00  0.00     0.163 HD
BRANCH  48  51
ATOM     51  CAB K26 d         -13.536  22.164 -11.161  0.00  0.00    -0.003 C 
ATOM     52  H23 K26 d         -13.339  21.171 -11.591  0.00  0.00     0.040 H 
ATOM     53  H24 K26 d         -14.612  22.384 -11.222  0.00  0.00     0.040 H 
ATOM     54  H25 K26 d         -13.218  22.177 -10.108  0.00  0.00     0.040 H 
ENDBRANCH  48  51
ENDBRANCH  32  47
ENDBRANCH  29  32
ENDBRANCH   1  28
BRANCH   1  55
ATOM     55  CB  K26 d          -7.370  23.971 -16.131  0.00  0.00    -0.014 C 
ATOM     56  H26 K26 d          -6.970  23.309 -16.912  0.00  0.00     0.043 H 
ATOM     57  H27 K26 d          -6.688  24.823 -15.988  0.00  0.00     0.043 H 
BRANCH  55  58
ATOM     58  CG  K26 d          -8.757  24.485 -16.550  0.00  0.00    -0.056 A 
ATOM     59  CD1 K26 d          -9.834  23.604 -16.616  0.00  0.00    -0.074 A 
ATOM     60  CE1 K26 d         -11.101  24.069 -16.981  0.00  0.00    -0.051 A 
ATOM     61  H28 K26 d          -9.690  22.555 -16.384  0.00  0.00     0.084 H 
ATOM     62  CZ  K26 d         -11.292  25.419 -17.278  0.00  0.00     0.065 A 
ATOM     63  H29 K26 d         -11.936  23.380 -17.033  0.00  0.00     0.087 H 
ATOM     64  CE2 K26 d         -10.214  26.301 -17.205  0.00  0.00    -0.051 A 
ATOM     65  CD2 K26 d          -8.949  25.838 -16.837  0.00  0.00    -0.074 A 
ATOM     66  H31 K26 d         -10.359  27.350 -17.435  0.00  0.00     0.087 H 
ATOM     67  H32 K26 d          -8.116  26.529 -16.774  0.00  0.00     0.084 H 
BRANCH  62  68
ATOM     68  OH  K26 d         -12.531  25.869 -17.646  0.00  0.00    -0.361 OA
ATOM     69  H30 K26 d         -12.495  26.200 -18.535  0.00  0.00     0.217 HD
ENDBRANCH  62  68
ENDBRANCH  55  58
ENDBRANCH   1  55
TORSDOF 17
ENDMDL
MODEL 4
REMARK VINA RESULT:      -7.3      2.280      5.233
REMARK  17 active torsions:
REMARK  status: ('A' for Active; 'I' for Inactive)
REMARK    1  A    between atoms: CBD_3  and  OAI_4 
REMARK    2  A    between atoms: CBF_7  and  CAV_8 
REMARK    3  A    between atoms: CAV_8  and  CBI_9 
REMARK    4  A    between atoms: CBI_9  and  PBK_10 
REMARK    5  A    between atoms: CBI_9  and  NAY_14 
REMARK       I    between atoms: NAY_14  and  C_15 
REMARK    6  A    between atoms: C_15  and  CA_17 
REMARK    7  A    between atoms: CA_17  and  N_18 
REMARK    8  A    between atoms: CA_17  and  CB_30 
REMARK       I    between atoms: N_18  and  CBB_19 
REMARK    9  A    between atoms: CBB_19  and  CBJ_21 
REMARK   10  A    between atoms: CBJ_21  and  CBG_22 
REMARK   11  A    between atoms: CBJ_21  and  NAX_26 
REMARK   12  A    between atoms: CBG_22  and  CAC_23 
REMARK   13  A    between atoms: CBG_22  and  CAT_24 
REMARK   14  A    between atoms: CAT_24  and  CAA_25 
REMARK       I    between atoms: NAX_26  and  CAZ_27 
REMARK   15  A    between atoms: CAZ_27  and  CAB_28 
REMARK   16  A    between atoms: CB_30  and  CG_31 
REMARK   17  A    between atoms: CZ_34  and  OH_35 
ROOT
ATOM      1  CA  K26 d          -7.885  25.907 -12.587  0.00  0.00     0.093 C 
ATOM      2  H10 K26 d          -7.355  26.798 -12.219  0.00  0.00     0.088 H 
ENDROOT
BRANCH   1   3
ATOM      3  C   K26 d          -8.027  26.014 -14.107  0.00  0.00     0.241 C 
ATOM      4  NAY K26 d          -8.026  24.851 -14.764  0.00  0.00    -0.342 N 
ATOM      5  H9  K26 d          -8.019  24.000 -14.239  0.00  0.00     0.163 HD
ATOM      6  O   K26 d          -8.094  27.123 -14.639  0.00  0.00    -0.271 OA
BRANCH   4   7
ATOM      7  CBI K26 d          -8.035  24.777 -16.234  0.00  0.00     0.124 C 
ATOM      8  H8  K26 d          -7.624  25.713 -16.641  0.00  0.00     0.095 H 
BRANCH   7   9
ATOM      9  CAV K26 d          -7.116  23.609 -16.657  0.00  0.00    -0.010 C 
ATOM     10  H6  K26 d          -7.682  22.668 -16.590  0.00  0.00     0.044 H 
ATOM     11  H7  K26 d          -6.790  23.768 -17.696  0.00  0.00     0.044 H 
BRANCH   9  12
ATOM     12  CBF K26 d          -5.875  23.508 -15.756  0.00  0.00    -0.055 A 
ATOM     13  CAR K26 d          -5.787  22.476 -14.825  0.00  0.00    -0.074 A 
ATOM     14  CAN K26 d          -4.666  22.359 -14.006  0.00  0.00    -0.051 A 
ATOM     15  H1  K26 d          -6.596  21.759 -14.737  0.00  0.00     0.084 H 
ATOM     16  CBD K26 d          -3.623  23.278 -14.119  0.00  0.00     0.065 A 
ATOM     17  H2  K26 d          -4.604  21.553 -13.283  0.00  0.00     0.087 H 
ATOM     18  CAO K26 d          -3.695  24.314 -15.056  0.00  0.00    -0.051 A 
ATOM     19  CAS K26 d          -4.823  24.428 -15.870  0.00  0.00    -0.074 A 
ATOM     20  H4  K26 d          -2.881  25.023 -15.149  0.00  0.00     0.087 H 
ATOM     21  H5  K26 d          -4.886  25.232 -16.595  0.00  0.00     0.084 H 
BRANCH  16  22
ATOM     22  OAI K26 d          -2.536  23.152 -13.310  0.00  0.00    -0.361 OA
ATOM     23  H3  K26 d          -1.876  23.784 -13.569  0.00  0.00     0.217 HD
ENDBRANCH  16  22
ENDBRANCH   9  12
ENDBRANCH   7   9
BRANCH   7  24
ATOM     24  PBK K26 d          -9.754  24.583 -16.872  0.00  0.00     0.283 P 
ATOM     25  OAJ K26 d         -10.589  25.767 -16.233  0.00  0.00    -0.638 OA
ATOM     26  OAK K26 d          -9.600  24.878 -18.469  0.00  0.00    -0.638 OA
ATOM     27  OAG K26 d         -10.345  23.252 -16.572  0.00  0.00    -0.638 OA
ENDBRANCH   7  24
ENDBRANCH   4   7
ENDBRANCH   1   3
BRANCH   1  28
ATOM     28  N   K26 d          -9.232  25.860 -11.983  0.00  0.00    -0.346 N 
ATOM     29  CBB K26 d         -10.006  24.767 -11.950  0.00  0.00     0.241 C 
ATOM     30  OAF K26 d          -9.705  23.678 -12.441  0.00  0.00    -0.271 OA
ATOM     31  H11 K26 d          -9.590  26.698 -11.571  0.00  0.00     0.163 HD
BRANCH  29  32
ATOM     32  CBJ K26 d         -11.389  24.982 -11.310  0.00  0.00     0.092 C 
ATOM     33  H12 K26 d         -12.042  25.481 -12.041  0.00  0.00     0.088 H 
BRANCH  32  34
ATOM     34  CBG K26 d         -11.334  25.868 -10.060  0.00  0.00    -0.030 C 
ATOM     35  H13 K26 d         -10.852  26.821 -10.326  0.00  0.00     0.043 H 
BRANCH  34  36
ATOM     36  CAC K26 d         -12.754  26.158  -9.560  0.00  0.00    -0.071 C 
ATOM     37  H14 K26 d         -12.735  26.314  -8.471  0.00  0.00     0.028 H 
ATOM     38  H15 K26 d         -13.408  25.306  -9.797  0.00  0.00     0.028 H 
ATOM     39  H16 K26 d         -13.139  27.063 -10.054  0.00  0.00     0.028 H 
ENDBRANCH  34  36
BRANCH  34  40
ATOM     40  CAT K26 d         -10.509  25.198  -8.948  0.00  0.00    -0.063 C 
ATOM     41  H17 K26 d         -10.041  24.290  -9.356  0.00  0.00     0.033 H 
ATOM     42  H18 K26 d         -11.184  24.925  -8.125  0.00  0.00     0.033 H 
BRANCH  40  43
ATOM     43  CAA K26 d          -9.412  26.110  -8.399  0.00  0.00    -0.076 C 
ATOM     44  H19 K26 d          -9.461  26.122  -7.301  0.00  0.00     0.027 H 
ATOM     45  H20 K26 d          -9.557  27.131  -8.783  0.00  0.00     0.027 H 
ATOM     46  H21 K26 d          -8.429  25.735  -8.720  0.00  0.00     0.027 H 
ENDBRANCH  40  43
ENDBRANCH  34  40
ENDBRANCH  32  34
BRANCH  32  47
ATOM     47  NAX K26 d         -11.934  23.641 -11.022  0.00  0.00    -0.348 N 
ATOM     48  CAZ K26 d         -13.026  23.173 -11.630  0.00  0.00     0.214 C 
ATOM     49  OAD K26 d         -13.706  23.819 -12.425  0.00  0.00    -0.274 OA
ATOM     50  H22 K26 d         -11.471  23.064 -10.348  0.00  0.00     0.163 HD
BRANCH  48  51
ATOM     51  CAB K26 d         -13.428  21.747 -11.248  0.00  0.00    -0.003 C 
ATOM     52  H23 K26 d         -14.445  21.752 -10.830  0.00  0.00     0.040 H 
ATOM     53  H24 K26 d         -12.724  21.356 -10.498  0.00  0.00     0.040 H 
ATOM     54  H25 K26 d         -13.403  21.107 -12.143  0.00  0.00     0.040 H 
ENDBRANCH  48  51
ENDBRANCH  32  47
ENDBRANCH  29  32
ENDBRANCH   1  28
BRANCH   1  55
ATOM     55  CB  K26 d          -7.100  24.670 -12.170  0.00  0.00    -0.014 C 
ATOM     56  H26 K26 d          -6.926  24.030 -13.047  0.00  0.00     0.043 H 
ATOM     57  H27 K26 d          -7.669  24.109 -11.414  0.00  0.00     0.043 H 
BRANCH  55  58
ATOM     58  CG  K26 d          -5.753  25.114 -11.577  0.00  0.00    -0.056 A 
ATOM     59  CD1 K26 d          -5.009  26.108 -12.210  0.00  0.00    -0.074 A 
ATOM     60  CE1 K26 d          -3.792  26.526 -11.667  0.00  0.00    -0.051 A 
ATOM     61  H28 K26 d          -5.376  26.558 -13.126  0.00  0.00     0.084 H 
ATOM     62  CZ  K26 d          -3.316  25.952 -10.487  0.00  0.00     0.065 A 
ATOM     63  H29 K26 d          -3.215  27.298 -12.163  0.00  0.00     0.087 H 
ATOM     64  CE2 K26 d          -4.065  24.962  -9.852  0.00  0.00    -0.051 A 
ATOM     65  CD2 K26 d          -5.284  24.545 -10.392  0.00  0.00    -0.074 A 
ATOM     66  H31 K26 d          -3.699  24.514  -8.935  0.00  0.00     0.087 H 
ATOM     67  H32 K26 d          -5.866  23.781  -9.890  0.00  0.00     0.084 H 
BRANCH  62  68
ATOM     68  OH  K26 d          -2.118  26.356  -9.964  0.00  0.00    -0.361 OA
ATOM     69  H30 K26 d          -1.412  26.050 -10.520  0.00  0.00     0.217 HD
ENDBRANCH  62  68
ENDBRANCH  55  58
ENDBRANCH   1  55
TORSDOF 17
ENDMDL
MODEL 5
REMARK VINA RESULT:      -7.3      2.629      5.651
REMARK  17 active torsions:
REMARK  status: ('A' for Active; 'I' for Inactive)
REMARK    1  A    between atoms: CBD_3  and  OAI_4 
REMARK    2  A    between atoms: CBF_7  and  CAV_8 
REMARK    3  A    between atoms: CAV_8  and  CBI_9 
REMARK    4  A    between atoms: CBI_9  and  PBK_10 
REMARK    5  A    between atoms: CBI_9  and  NAY_14 
REMARK       I    between atoms: NAY_14  and  C_15 
REMARK    6  A    between atoms: C_15  and  CA_17 
REMARK    7  A    between atoms: CA_17  and  N_18 
REMARK    8  A    between atoms: CA_17  and  CB_30 
REMARK       I    between atoms: N_18  and  CBB_19 
REMARK    9  A    between atoms: CBB_19  and  CBJ_21 
REMARK   10  A    between atoms: CBJ_21  and  CBG_22 
REMARK   11  A    between atoms: CBJ_21  and  NAX_26 
REMARK   12  A    between atoms: CBG_22  and  CAC_23 
REMARK   13  A    between atoms: CBG_22  and  CAT_24 
REMARK   14  A    between atoms: CAT_24  and  CAA_25 
REMARK       I    between atoms: NAX_26  and  CAZ_27 
REMARK   15  A    between atoms: CAZ_27  and  CAB_28 
REMARK   16  A    between atoms: CB_30  and  CG_31 
REMARK   17  A    between atoms: CZ_34  and  OH_35 
ROOT
ATOM      1  CA  K26 d          -7.479  26.391 -12.657  0.00  0.00     0.093 C 
ATOM      2  H10 K26 d          -7.808  27.432 -12.522  0.00  0.00     0.088 H 
ENDROOT
BRANCH   1   3
ATOM      3  C   K26 d          -7.261  26.136 -14.151  0.00  0.00     0.241 C 
ATOM      4  NAY K26 d          -8.039  25.192 -14.688  0.00  0.00    -0.342 N 
ATOM      5  H9  K26 d          -8.754  24.779 -14.126  0.00  0.00     0.163 HD
ATOM      6  O   K26 d          -6.387  26.758 -14.756  0.00  0.00    -0.271 OA
BRANCH   4   7
ATOM      7  CBI K26 d          -7.879  24.740 -16.080  0.00  0.00     0.124 C 
ATOM      8  H8  K26 d          -7.066  25.313 -16.551  0.00  0.00     0.095 H 
BRANCH   7   9
ATOM      9  CAV K26 d          -7.479  23.247 -16.051  0.00  0.00    -0.010 C 
ATOM     10  H6  K26 d          -8.282  22.672 -15.567  0.00  0.00     0.044 H 
ATOM     11  H7  K26 d          -7.345  22.892 -17.084  0.00  0.00     0.044 H 
BRANCH   9  12
ATOM     12  CBF K26 d          -6.170  23.024 -15.275  0.00  0.00    -0.055 A 
ATOM     13  CAR K26 d          -4.952  23.256 -15.909  0.00  0.00    -0.074 A 
ATOM     14  CAN K26 d          -3.754  23.073 -15.222  0.00  0.00    -0.051 A 
ATOM     15  H1  K26 d          -4.936  23.580 -16.943  0.00  0.00     0.084 H 
ATOM     16  CBD K26 d          -3.773  22.657 -13.891  0.00  0.00     0.065 A 
ATOM     17  H2  K26 d          -2.809  23.253 -15.721  0.00  0.00     0.087 H 
ATOM     18  CAO K26 d          -4.990  22.431 -13.240  0.00  0.00    -0.051 A 
ATOM     19  CAS K26 d          -6.185  22.612 -13.935  0.00  0.00    -0.074 A 
ATOM     20  H4  K26 d          -5.004  22.116 -12.203  0.00  0.00     0.087 H 
ATOM     21  H5  K26 d          -7.132  22.433 -13.437  0.00  0.00     0.084 H 
BRANCH  16  22
ATOM     22  OAI K26 d          -2.594  22.481 -13.234  0.00  0.00    -0.361 OA
ATOM     23  H3  K26 d          -2.430  21.551 -13.125  0.00  0.00     0.217 HD
ENDBRANCH  16  22
ENDBRANCH   9  12
ENDBRANCH   7   9
BRANCH   7  24
ATOM     24  PBK K26 d          -9.419  25.034 -17.047  0.00  0.00     0.283 P 
ATOM     25  OAJ K26 d         -10.162  26.231 -16.325  0.00  0.00    -0.638 OA
ATOM     26  OAK K26 d          -8.867  25.575 -18.484  0.00  0.00    -0.638 OA
ATOM     27  OAG K26 d         -10.280  23.826 -17.163  0.00  0.00    -0.638 OA
ENDBRANCH   7  24
ENDBRANCH   4   7
ENDBRANCH   1   3
BRANCH   1  28
ATOM     28  N   K26 d          -8.534  25.481 -12.166  0.00  0.00    -0.346 N 
ATOM     29  CBB K26 d          -9.845  25.748 -12.219  0.00  0.00     0.241 C 
ATOM     30  OAF K26 d         -10.332  26.791 -12.658  0.00  0.00    -0.271 OA
ATOM     31  H11 K26 d          -8.251  24.609 -11.766  0.00  0.00     0.163 HD
BRANCH  29  32
ATOM     32  CBJ K26 d         -10.744  24.665 -11.597  0.00  0.00     0.092 C 
ATOM     33  H12 K26 d         -11.786  24.864 -11.884  0.00  0.00     0.088 H 
BRANCH  32  34
ATOM     34  CBG K26 d         -10.680  24.648 -10.065  0.00  0.00    -0.030 C 
ATOM     35  H13 K26 d          -9.762  24.125  -9.758  0.00  0.00     0.043 H 
BRANCH  34  36
ATOM     36  CAC K26 d         -10.631  26.083  -9.527  0.00  0.00    -0.071 C 
ATOM     37  H14 K26 d         -10.424  26.063  -8.447  0.00  0.00     0.028 H 
ATOM     38  H15 K26 d         -11.598  26.576  -9.706  0.00  0.00     0.028 H 
ATOM     39  H16 K26 d          -9.835  26.641 -10.043  0.00  0.00     0.028 H 
ENDBRANCH  34  36
BRANCH  34  40
ATOM     40  CAT K26 d         -11.887  23.902  -9.473  0.00  0.00    -0.063 C 
ATOM     41  H17 K26 d         -11.752  23.821  -8.384  0.00  0.00     0.033 H 
ATOM     42  H18 K26 d         -11.929  22.895  -9.913  0.00  0.00     0.033 H 
BRANCH  40  43
ATOM     43  CAA K26 d         -13.212  24.613  -9.750  0.00  0.00    -0.076 C 
ATOM     44  H19 K26 d         -13.762  24.070 -10.532  0.00  0.00     0.027 H 
ATOM     45  H20 K26 d         -13.012  25.641 -10.089  0.00  0.00     0.027 H 
ATOM     46  H21 K26 d         -13.812  24.641  -8.829  0.00  0.00     0.027 H 
ENDBRANCH  40  43
ENDBRANCH  34  40
ENDBRANCH  32  34
BRANCH  32  47
ATOM     47  NAX K26 d         -10.325  23.378 -12.188  0.00  0.00    -0.348 N 
ATOM     48  CAZ K26 d         -10.700  23.003 -13.412  0.00  0.00     0.214 C 
ATOM     49  OAD K26 d         -11.464  23.647 -14.129  0.00  0.00    -0.274 OA
ATOM     50  H22 K26 d          -9.741  22.766 -11.652  0.00  0.00     0.163 HD
BRANCH  48  51
ATOM     51  CAB K26 d         -10.139  21.661 -13.888  0.00  0.00    -0.003 C 
ATOM     52  H23 K26 d         -10.350  20.888 -13.135  0.00  0.00     0.040 H 
ATOM     53  H24 K26 d          -9.052  21.748 -14.030  0.00  0.00     0.040 H 
ATOM     54  H25 K26 d         -10.612  21.384 -14.841  0.00  0.00     0.040 H 
ENDBRANCH  48  51
ENDBRANCH  32  47
ENDBRANCH  29  32
ENDBRANCH   1  28
BRANCH   1  55
ATOM     55  CB  K26 d          -6.208  26.176 -11.846  0.00  0.00    -0.014 C 
ATOM     56  H26 K26 d          -5.653  27.122 -11.771  0.00  0.00     0.043 H 
ATOM     57  H27 K26 d          -5.578  25.421 -12.340  0.00  0.00     0.043 H 
BRANCH  55  58
ATOM     58  CG  K26 d          -6.592  25.689 -10.440  0.00  0.00    -0.056 A 
ATOM     59  CD1 K26 d          -6.827  26.613  -9.424  0.00  0.00    -0.074 A 
ATOM     60  CE1 K26 d          -7.193  26.176  -8.148  0.00  0.00    -0.051 A 
ATOM     61  H28 K26 d          -6.725  27.674  -9.624  0.00  0.00     0.084 H 
ATOM     62  CZ  K26 d          -7.327  24.812  -7.887  0.00  0.00     0.065 A 
ATOM     63  H29 K26 d          -7.372  26.898  -7.360  0.00  0.00     0.087 H 
ATOM     64  CE2 K26 d          -7.099  23.888  -8.906  0.00  0.00    -0.051 A 
ATOM     65  CD2 K26 d          -6.736  24.324 -10.183  0.00  0.00    -0.074 A 
ATOM     66  H31 K26 d          -7.202  22.828  -8.707  0.00  0.00     0.087 H 
ATOM     67  H32 K26 d          -6.568  23.603 -10.974  0.00  0.00     0.084 H 
BRANCH  62  68
ATOM     68  OH  K26 d          -7.675  24.387  -6.633  0.00  0.00    -0.361 OA
ATOM     69  H30 K26 d          -8.438  23.825  -6.691  0.00  0.00     0.217 HD
ENDBRANCH  62  68
ENDBRANCH  55  58
ENDBRANCH   1  55
TORSDOF 17
ENDMDL
MODEL 6
REMARK VINA RESULT:      -7.1      1.891      6.748
REMARK  17 active torsions:
REMARK  status: ('A' for Active; 'I' for Inactive)
REMARK    1  A    between atoms: CBD_3  and  OAI_4 
REMARK    2  A    between atoms: CBF_7  and  CAV_8 
REMARK    3  A    between atoms: CAV_8  and  CBI_9 
REMARK    4  A    between atoms: CBI_9  and  PBK_10 
REMARK    5  A    between atoms: CBI_9  and  NAY_14 
REMARK       I    between atoms: NAY_14  and  C_15 
REMARK    6  A    between atoms: C_15  and  CA_17 
REMARK    7  A    between atoms: CA_17  and  N_18 
REMARK    8  A    between atoms: CA_17  and  CB_30 
REMARK       I    between atoms: N_18  and  CBB_19 
REMARK    9  A    between atoms: CBB_19  and  CBJ_21 
REMARK   10  A    between atoms: CBJ_21  and  CBG_22 
REMARK   11  A    between atoms: CBJ_21  and  NAX_26 
REMARK   12  A    between atoms: CBG_22  and  CAC_23 
REMARK   13  A    between atoms: CBG_22  and  CAT_24 
REMARK   14  A    between atoms: CAT_24  and  CAA_25 
REMARK       I    between atoms: NAX_26  and  CAZ_27 
REMARK   15  A    between atoms: CAZ_27  and  CAB_28 
REMARK   16  A    between atoms: CB_30  and  CG_31 
REMARK   17  A    between atoms: CZ_34  and  OH_35 
ROOT
ATOM      1  CA  K26 d          -6.652  24.813 -12.033  0.00  0.00     0.093 C 
ATOM      2  H10 K26 d          -6.630  25.842 -11.643  0.00  0.00     0.088 H 
ENDROOT
BRANCH   1   3
ATOM      3  C   K26 d          -6.417  24.857 -13.545  0.00  0.00     0.241 C 
ATOM      4  NAY K26 d          -6.871  23.800 -14.223  0.00  0.00    -0.342 N 
ATOM      5  H9  K26 d          -7.396  23.103 -13.736  0.00  0.00     0.163 HD
ATOM      6  O   K26 d          -5.811  25.807 -14.043  0.00  0.00    -0.271 OA
BRANCH   4   7
ATOM      7  CBI K26 d          -6.625  23.626 -15.664  0.00  0.00     0.124 C 
ATOM      8  H8  K26 d          -7.323  22.871 -16.057  0.00  0.00     0.095 H 
BRANCH   7   9
ATOM      9  CAV K26 d          -6.913  24.976 -16.362  0.00  0.00    -0.010 C 
ATOM     10  H6  K26 d          -6.637  25.794 -15.680  0.00  0.00     0.044 H 
ATOM     11  H7  K26 d          -6.306  25.041 -17.277  0.00  0.00     0.044 H 
BRANCH   9  12
ATOM     12  CBF K26 d          -8.397  25.116 -16.736  0.00  0.00    -0.055 A 
ATOM     13  CAR K26 d          -9.280  24.084 -16.429  0.00  0.00    -0.074 A 
ATOM     14  CAN K26 d         -10.631  24.195 -16.748  0.00  0.00    -0.051 A 
ATOM     15  H1  K26 d          -8.914  23.189 -15.939  0.00  0.00     0.084 H 
ATOM     16  CBD K26 d         -11.105  25.346 -17.378  0.00  0.00     0.065 A 
ATOM     17  H2  K26 d         -11.314  23.387 -16.508  0.00  0.00     0.087 H 
ATOM     18  CAO K26 d         -10.230  26.393 -17.683  0.00  0.00    -0.051 A 
ATOM     19  CAS K26 d          -8.877  26.274 -17.364  0.00  0.00    -0.074 A 
ATOM     20  H4  K26 d         -10.601  27.291 -18.164  0.00  0.00     0.087 H 
ATOM     21  H5  K26 d          -8.193  27.080 -17.603  0.00  0.00     0.084 H 
BRANCH  16  22
ATOM     22  OAI K26 d         -12.428  25.438 -17.685  0.00  0.00    -0.361 OA
ATOM     23  H3  K26 d         -12.663  24.736 -18.281  0.00  0.00     0.217 HD
ENDBRANCH  16  22
ENDBRANCH   9  12
ENDBRANCH   7   9
BRANCH   7  24
ATOM     24  PBK K26 d          -4.908  23.031 -15.970  0.00  0.00     0.283 P 
ATOM     25  OAJ K26 d          -4.937  22.339 -17.394  0.00  0.00    -0.638 OA
ATOM     26  OAK K26 d          -4.046  24.410 -16.096  0.00  0.00    -0.638 OA
ATOM     27  OAG K26 d          -4.405  22.116 -14.911  0.00  0.00    -0.638 OA
ENDBRANCH   7  24
ENDBRANCH   4   7
ENDBRANCH   1   3
BRANCH   1  28
ATOM     28  N   K26 d          -7.981  24.224 -11.771  0.00  0.00    -0.346 N 
ATOM     29  CBB K26 d          -9.132  24.721 -12.242  0.00  0.00     0.241 C 
ATOM     30  OAF K26 d          -9.229  25.741 -12.926  0.00  0.00    -0.271 OA
ATOM     31  H11 K26 d          -8.024  23.400 -11.206  0.00  0.00     0.163 HD
BRANCH  29  32
ATOM     32  CBJ K26 d         -10.389  23.958 -11.790  0.00  0.00     0.092 C 
ATOM     33  H12 K26 d         -10.079  23.086 -11.197  0.00  0.00     0.088 H 
BRANCH  32  34
ATOM     34  CBG K26 d         -11.226  23.442 -12.967  0.00  0.00    -0.030 C 
ATOM     35  H13 K26 d         -11.237  24.212 -13.753  0.00  0.00     0.043 H 
BRANCH  34  36
ATOM     36  CAC K26 d         -10.596  22.166 -13.538  0.00  0.00    -0.071 C 
ATOM     37  H14 K26 d         -10.629  21.369 -12.780  0.00  0.00     0.028 H 
ATOM     38  H15 K26 d          -9.550  22.365 -13.815  0.00  0.00     0.028 H 
ATOM     39  H16 K26 d         -11.156  21.847 -14.430  0.00  0.00     0.028 H 
ENDBRANCH  34  36
BRANCH  34  40
ATOM     40  CAT K26 d         -12.675  23.168 -12.533  0.00  0.00    -0.063 C 
ATOM     41  H17 K26 d         -13.261  22.885 -13.420  0.00  0.00     0.033 H 
ATOM     42  H18 K26 d         -13.092  24.088 -12.098  0.00  0.00     0.033 H 
BRANCH  40  43
ATOM     43  CAA K26 d         -12.778  22.047 -11.500  0.00  0.00    -0.076 C 
ATOM     44  H19 K26 d         -11.984  22.168 -10.748  0.00  0.00     0.027 H 
ATOM     45  H20 K26 d         -12.663  21.074 -12.001  0.00  0.00     0.027 H 
ATOM     46  H21 K26 d         -13.760  22.091 -11.007  0.00  0.00     0.027 H 
ENDBRANCH  40  43
ENDBRANCH  34  40
ENDBRANCH  32  34
BRANCH  32  47
ATOM     47  NAX K26 d         -11.152  24.877 -10.923  0.00  0.00    -0.348 N 
ATOM     48  CAZ K26 d         -10.827  25.082  -9.645  0.00  0.00     0.214 C 
ATOM     49  OAD K26 d          -9.921  24.492  -9.059  0.00  0.00    -0.274 OA
ATOM     50  H22 K26 d         -11.939  25.363 -11.305  0.00  0.00     0.163 HD
BRANCH  48  51
ATOM     51  CAB K26 d         -11.694  26.101  -8.903  0.00  0.00    -0.003 C 
ATOM     52  H23 K26 d         -11.616  27.079  -9.399  0.00  0.00     0.040 H 
ATOM     53  H24 K26 d         -11.348  26.188  -7.862  0.00  0.00     0.040 H 
ATOM     54  H25 K26 d         -12.742  25.767  -8.914  0.00  0.00     0.040 H 
ENDBRANCH  48  51
ENDBRANCH  32  47
ENDBRANCH  29  32
ENDBRANCH   1  28
BRANCH   1  55
ATOM     55  CB  K26 d          -5.586  23.999 -11.310  0.00  0.00    -0.014 C 
ATOM     56  H26 K26 d          -4.705  23.885 -11.959  0.00  0.00     0.043 H 
ATOM     57  H27 K26 d          -5.987  23.006 -11.059  0.00  0.00     0.043 H 
BRANCH  55  58
ATOM     58  CG  K26 d          -5.188  24.736 -10.021  0.00  0.00    -0.056 A 
ATOM     59  CD1 K26 d          -3.929  25.323  -9.917  0.00  0.00    -0.074 A 
ATOM     60  CE1 K26 d          -3.568  26.008  -8.754  0.00  0.00    -0.051 A 
ATOM     61  H28 K26 d          -3.227  25.249 -10.741  0.00  0.00     0.084 H 
ATOM     62  CZ  K26 d          -4.467  26.109  -7.692  0.00  0.00     0.065 A 
ATOM     63  H29 K26 d          -2.586  26.462  -8.676  0.00  0.00     0.087 H 
ATOM     64  CE2 K26 d          -5.730  25.526  -7.800  0.00  0.00    -0.051 A 
ATOM     65  CD2 K26 d          -6.093  24.844  -8.964  0.00  0.00    -0.074 A 
ATOM     66  H31 K26 d          -6.431  25.602  -6.977  0.00  0.00     0.087 H 
ATOM     67  H32 K26 d          -7.079  24.399  -9.046  0.00  0.00     0.084 H 
BRANCH  62  68
ATOM     68  OH  K26 d          -4.106  26.770  -6.550  0.00  0.00    -0.361 OA
ATOM     69  H30 K26 d          -4.680  27.516  -6.423  0.00  0.00     0.217 HD
ENDBRANCH  62  68
ENDBRANCH  55  58
ENDBRANCH   1  55
TORSDOF 17
ENDMDL
MODEL 7
REMARK VINA RESULT:      -6.9      2.686      7.283
REMARK  17 active torsions:
REMARK  status: ('A' for Active; 'I' for Inactive)
REMARK    1  A    between atoms: CBD_3  and  OAI_4 
REMARK    2  A    between atoms: CBF_7  and  CAV_8 
REMARK    3  A    between atoms: CAV_8  and  CBI_9 
REMARK    4  A    between atoms: CBI_9  and  PBK_10 
REMARK    5  A    between atoms: CBI_9  and  NAY_14 
REMARK       I    between atoms: NAY_14  and  C_15 
REMARK    6  A    between atoms: C_15  and  CA_17 
REMARK    7  A    between atoms: CA_17  and  N_18 
REMARK    8  A    between atoms: CA_17  and  CB_30 
REMARK       I    between atoms: N_18  and  CBB_19 
REMARK    9  A    between atoms: CBB_19  and  CBJ_21 
REMARK   10  A    between atoms: CBJ_21  and  CBG_22 
REMARK   11  A    between atoms: CBJ_21  and  NAX_26 
REMARK   12  A    between atoms: CBG_22  and  CAC_23 
REMARK   13  A    between atoms: CBG_22  and  CAT_24 
REMARK   14  A    between atoms: CAT_24  and  CAA_25 
REMARK       I    between atoms: NAX_26  and  CAZ_27 
REMARK   15  A    between atoms: CAZ_27  and  CAB_28 
REMARK   16  A    between atoms: CB_30  and  CG_31 
REMARK   17  A    between atoms: CZ_34  and  OH_35 
ROOT
ATOM      1  CA  K26 d          -8.122  25.980 -12.502  0.00  0.00     0.093 C 
ATOM      2  H10 K26 d          -8.240  26.922 -13.057  0.00  0.00     0.088 H 
ENDROOT
BRANCH   1   3
ATOM      3  C   K26 d          -8.042  26.298 -11.006  0.00  0.00     0.241 C 
ATOM      4  NAY K26 d          -8.926  25.656 -10.238  0.00  0.00    -0.342 N 
ATOM      5  H9  K26 d          -9.514  24.963 -10.654  0.00  0.00     0.163 HD
ATOM      6  O   K26 d          -7.226  27.127 -10.601  0.00  0.00    -0.271 OA
BRANCH   4   7
ATOM      7  CBI K26 d          -9.064  25.933  -8.799  0.00  0.00     0.124 C 
ATOM      8  H8  K26 d          -8.709  26.954  -8.596  0.00  0.00     0.095 H 
BRANCH   7   9
ATOM      9  CAV K26 d         -10.566  25.852  -8.442  0.00  0.00    -0.010 C 
ATOM     10  H6  K26 d         -10.686  25.229  -7.544  0.00  0.00     0.044 H 
ATOM     11  H7  K26 d         -10.940  26.867  -8.237  0.00  0.00     0.044 H 
BRANCH   9  12
ATOM     12  CBF K26 d         -11.389  25.241  -9.587  0.00  0.00    -0.055 A 
ATOM     13  CAR K26 d         -11.377  23.861  -9.777  0.00  0.00    -0.074 A 
ATOM     14  CAN K26 d         -12.125  23.284 -10.801  0.00  0.00    -0.051 A 
ATOM     15  H1  K26 d         -10.782  23.233  -9.125  0.00  0.00     0.084 H 
ATOM     16  CBD K26 d         -12.893  24.091 -11.641  0.00  0.00     0.065 A 
ATOM     17  H2  K26 d         -12.110  22.209 -10.945  0.00  0.00     0.087 H 
ATOM     18  CAO K26 d         -12.921  25.476 -11.455  0.00  0.00    -0.051 A 
ATOM     19  CAS K26 d         -12.166  26.048 -10.430  0.00  0.00    -0.074 A 
ATOM     20  H4  K26 d         -13.525  26.102 -12.102  0.00  0.00     0.087 H 
ATOM     21  H5  K26 d         -12.181  27.122 -10.284  0.00  0.00     0.084 H 
BRANCH  16  22
ATOM     22  OAI K26 d         -13.616  23.512 -12.638  0.00  0.00    -0.361 OA
ATOM     23  H3  K26 d         -13.729  22.588 -12.450  0.00  0.00     0.217 HD
ENDBRANCH  16  22
ENDBRANCH   9  12
ENDBRANCH   7   9
BRANCH   7  24
ATOM     24  PBK K26 d          -8.044  24.765  -7.804  0.00  0.00     0.283 P 
ATOM     25  OAJ K26 d          -8.991  24.237  -6.650  0.00  0.00    -0.638 OA
ATOM     26  OAK K26 d          -7.767  23.532  -8.835  0.00  0.00    -0.638 OA
ATOM     27  OAG K26 d          -6.798  25.379  -7.271  0.00  0.00    -0.638 OA
ENDBRANCH   7  24
ENDBRANCH   4   7
ENDBRANCH   1   3
BRANCH   1  28
ATOM     28  N   K26 d          -6.866  25.325 -12.920  0.00  0.00    -0.346 N 
ATOM     29  CBB K26 d          -6.544  24.058 -12.629  0.00  0.00     0.241 C 
ATOM     30  OAF K26 d          -7.238  23.293 -11.958  0.00  0.00    -0.271 OA
ATOM     31  H11 K26 d          -6.213  25.862 -13.454  0.00  0.00     0.163 HD
BRANCH  29  32
ATOM     32  CBJ K26 d          -5.157  23.620 -13.133  0.00  0.00     0.092 C 
ATOM     33  H12 K26 d          -5.284  22.777 -13.827  0.00  0.00     0.088 H 
BRANCH  32  34
ATOM     34  CBG K26 d          -4.234  23.152 -12.001  0.00  0.00    -0.030 C 
ATOM     35  H13 K26 d          -4.855  22.736 -11.192  0.00  0.00     0.043 H 
BRANCH  34  36
ATOM     36  CAC K26 d          -3.293  22.054 -12.512  0.00  0.00    -0.071 C 
ATOM     37  H14 K26 d          -2.635  22.469 -13.290  0.00  0.00     0.028 H 
ATOM     38  H15 K26 d          -3.886  21.230 -12.935  0.00  0.00     0.028 H 
ATOM     39  H16 K26 d          -2.683  21.677 -11.678  0.00  0.00     0.028 H 
ENDBRANCH  34  36
BRANCH  34  40
ATOM     40  CAT K26 d          -3.420  24.326 -11.434  0.00  0.00    -0.063 C 
ATOM     41  H17 K26 d          -3.394  25.131 -12.185  0.00  0.00     0.033 H 
ATOM     42  H18 K26 d          -2.396  23.980 -11.233  0.00  0.00     0.033 H 
BRANCH  40  43
ATOM     43  CAA K26 d          -4.012  24.883 -10.140  0.00  0.00    -0.076 C 
ATOM     44  H19 K26 d          -4.532  24.078  -9.600  0.00  0.00     0.027 H 
ATOM     45  H20 K26 d          -4.725  25.686 -10.378  0.00  0.00     0.027 H 
ATOM     46  H21 K26 d          -3.204  25.285  -9.511  0.00  0.00     0.027 H 
ENDBRANCH  40  43
ENDBRANCH  34  40
ENDBRANCH  32  34
BRANCH  32  47
ATOM     47  NAX K26 d          -4.595  24.766 -13.874  0.00  0.00    -0.348 N 
ATOM     48  CAZ K26 d          -4.093  24.639 -15.103  0.00  0.00     0.214 C 
ATOM     49  OAD K26 d          -3.992  23.571 -15.703  0.00  0.00    -0.274 OA
ATOM     50  H22 K26 d          -4.590  25.668 -13.440  0.00  0.00     0.163 HD
BRANCH  48  51
ATOM     51  CAB K26 d          -3.594  25.936 -15.745  0.00  0.00    -0.003 C 
ATOM     52  H23 K26 d          -3.935  26.795 -15.149  0.00  0.00     0.040 H 
ATOM     53  H24 K26 d          -3.993  26.017 -16.767  0.00  0.00     0.040 H 
ATOM     54  H25 K26 d          -2.495  25.928 -15.781  0.00  0.00     0.040 H 
ENDBRANCH  48  51
ENDBRANCH  32  47
ENDBRANCH  29  32
ENDBRANCH   1  28
BRANCH   1  55
ATOM     55  CB  K26 d          -9.300  25.072 -12.833  0.00  0.00    -0.014 C 
ATOM     56  H26 K26 d         -10.192  25.411 -12.286  0.00  0.00     0.043 H 
ATOM     57  H27 K26 d          -9.063  24.038 -12.542  0.00  0.00     0.043 H 
BRANCH  55  58
ATOM     58  CG  K26 d          -9.565  25.135 -14.345  0.00  0.00    -0.056 A 
ATOM     59  CD1 K26 d         -10.429  24.217 -14.939  0.00  0.00    -0.074 A 
ATOM     60  CE1 K26 d         -10.687  24.281 -16.311  0.00  0.00    -0.051 A 
ATOM     61  H28 K26 d         -10.903  23.452 -14.334  0.00  0.00     0.084 H 
ATOM     62  CZ  K26 d         -10.081  25.266 -17.092  0.00  0.00     0.065 A 
ATOM     63  H29 K26 d         -11.358  23.563 -16.769  0.00  0.00     0.087 H 
ATOM     64  CE2 K26 d          -9.222  26.188 -16.496  0.00  0.00    -0.051 A 
ATOM     65  CD2 K26 d          -8.967  26.128 -15.124  0.00  0.00    -0.074 A 
ATOM     66  H31 K26 d          -8.750  26.954 -17.100  0.00  0.00     0.087 H 
ATOM     67  H32 K26 d          -8.304  26.852 -14.663  0.00  0.00     0.084 H 
BRANCH  62  68
ATOM     68  OH  K26 d         -10.327  25.318 -18.437  0.00  0.00    -0.361 OA
ATOM     69  H30 K26 d         -11.228  25.579 -18.583  0.00  0.00     0.217 HD
ENDBRANCH  62  68
ENDBRANCH  55  58
ENDBRANCH   1  55
TORSDOF 17
ENDMDL
MODEL 8
REMARK VINA RESULT:      -6.7      2.776      5.763
REMARK  17 active torsions:
REMARK  status: ('A' for Active; 'I' for Inactive)
REMARK    1  A    between atoms: CBD_3  and  OAI_4 
REMARK    2  A    between atoms: CBF_7  and  CAV_8 
REMARK    3  A    between atoms: CAV_8  and  CBI_9 
REMARK    4  A    between atoms: CBI_9  and  PBK_10 
REMARK    5  A    between atoms: CBI_9  and  NAY_14 
REMARK       I    between atoms: NAY_14  and  C_15 
REMARK    6  A    between atoms: C_15  and  CA_17 
REMARK    7  A    between atoms: CA_17  and  N_18 
REMARK    8  A    between atoms: CA_17  and  CB_30 
REMARK       I    between atoms: N_18  and  CBB_19 
REMARK    9  A    between atoms: CBB_19  and  CBJ_21 
REMARK   10  A    between atoms: CBJ_21  and  CBG_22 
REMARK   11  A    between atoms: CBJ_21  and  NAX_26 
REMARK   12  A    between atoms: CBG_22  and  CAC_23 
REMARK   13  A    between atoms: CBG_22  and  CAT_24 
REMARK   14  A    between atoms: CAT_24  and  CAA_25 
REMARK       I    between atoms: NAX_26  and  CAZ_27 
REMARK   15  A    between atoms: CAZ_27  and  CAB_28 
REMARK   16  A    between atoms: CB_30  and  CG_31 
REMARK   17  A    between atoms: CZ_34  and  OH_35 
ROOT
ATOM      1  CA  K26 d          -7.369  26.491 -12.585  0.00  0.00     0.093 C 
ATOM      2  H10 K26 d          -7.839  27.479 -12.477  0.00  0.00     0.088 H 
ENDROOT
BRANCH   1   3
ATOM      3  C   K26 d          -6.953  26.302 -14.046  0.00  0.00     0.241 C 
ATOM      4  NAY K26 d          -7.773  25.545 -14.779  0.00  0.00    -0.342 N 
ATOM      5  H9  K26 d          -8.628  25.225 -14.372  0.00  0.00     0.163 HD
ATOM      6  O   K26 d          -5.904  26.803 -14.452  0.00  0.00    -0.271 OA
BRANCH   4   7
ATOM      7  CBI K26 d          -7.462  25.166 -16.168  0.00  0.00     0.124 C 
ATOM      8  H8  K26 d          -6.555  25.701 -16.489  0.00  0.00     0.095 H 
BRANCH   7   9
ATOM      9  CAV K26 d          -7.175  23.647 -16.192  0.00  0.00    -0.010 C 
ATOM     10  H6  K26 d          -8.051  23.113 -15.798  0.00  0.00     0.044 H 
ATOM     11  H7  K26 d          -6.991  23.335 -17.231  0.00  0.00     0.044 H 
BRANCH   9  12
ATOM     12  CBF K26 d          -5.947  23.288 -15.340  0.00  0.00    -0.055 A 
ATOM     13  CAR K26 d          -4.672  23.573 -15.823  0.00  0.00    -0.074 A 
ATOM     14  CAN K26 d          -3.546  23.267 -15.063  0.00  0.00    -0.051 A 
ATOM     15  H1  K26 d          -4.556  24.035 -16.796  0.00  0.00     0.084 H 
ATOM     16  CBD K26 d          -3.693  22.673 -13.809  0.00  0.00     0.065 A 
ATOM     17  H2  K26 d          -2.556  23.490 -15.445  0.00  0.00     0.087 H 
ATOM     18  CAO K26 d          -4.968  22.391 -13.308  0.00  0.00    -0.051 A 
ATOM     19  CAS K26 d          -6.092  22.696 -14.077  0.00  0.00    -0.074 A 
ATOM     20  H4  K26 d          -5.082  21.937 -12.330  0.00  0.00     0.087 H 
ATOM     21  H5  K26 d          -7.082  22.475 -13.696  0.00  0.00     0.084 H 
BRANCH  16  22
ATOM     22  OAI K26 d          -2.583  22.378 -13.079  0.00  0.00    -0.361 OA
ATOM     23  H3  K26 d          -2.166  21.605 -13.438  0.00  0.00     0.217 HD
ENDBRANCH  16  22
ENDBRANCH   9  12
ENDBRANCH   7   9
BRANCH   7  24
ATOM     24  PBK K26 d          -8.836  25.638 -17.301  0.00  0.00     0.283 P 
ATOM     25  OAJ K26 d          -9.549  24.283 -17.704  0.00  0.00    -0.638 OA
ATOM     26  OAK K26 d          -9.851  26.476 -16.337  0.00  0.00    -0.638 OA
ATOM     27  OAG K26 d          -8.380  26.408 -18.489  0.00  0.00    -0.638 OA
ENDBRANCH   7  24
ENDBRANCH   4   7
ENDBRANCH   1   3
BRANCH   1  28
ATOM     28  N   K26 d          -8.350  25.446 -12.228  0.00  0.00    -0.346 N 
ATOM     29  CBB K26 d          -9.678  25.601 -12.305  0.00  0.00     0.241 C 
ATOM     30  OAF K26 d         -10.245  26.638 -12.654  0.00  0.00    -0.271 OA
ATOM     31  H11 K26 d          -8.001  24.565 -11.909  0.00  0.00     0.163 HD
BRANCH  29  32
ATOM     32  CBJ K26 d         -10.492  24.385 -11.830  0.00  0.00     0.092 C 
ATOM     33  H12 K26 d          -9.899  23.831 -11.088  0.00  0.00     0.088 H 
BRANCH  32  34
ATOM     34  CBG K26 d         -10.830  23.415 -12.969  0.00  0.00    -0.030 C 
ATOM     35  H13 K26 d         -11.607  22.719 -12.618  0.00  0.00     0.043 H 
BRANCH  34  36
ATOM     36  CAC K26 d         -11.374  24.192 -14.174  0.00  0.00    -0.071 C 
ATOM     37  H14 K26 d         -12.475  24.185 -14.149  0.00  0.00     0.028 H 
ATOM     38  H15 K26 d         -11.027  23.717 -15.104  0.00  0.00     0.028 H 
ATOM     39  H16 K26 d         -11.013  25.230 -14.136  0.00  0.00     0.028 H 
ENDBRANCH  34  36
BRANCH  34  40
ATOM     40  CAT K26 d          -9.595  22.598 -13.380  0.00  0.00    -0.063 C 
ATOM     41  H17 K26 d          -9.387  21.855 -12.595  0.00  0.00     0.033 H 
ATOM     42  H18 K26 d          -8.737  23.280 -13.475  0.00  0.00     0.033 H 
BRANCH  40  43
ATOM     43  CAA K26 d          -9.788  21.867 -14.708  0.00  0.00    -0.076 C 
ATOM     44  H19 K26 d          -8.807  21.584 -15.117  0.00  0.00     0.027 H 
ATOM     45  H20 K26 d         -10.305  22.528 -15.419  0.00  0.00     0.027 H 
ATOM     46  H21 K26 d         -10.392  20.962 -14.544  0.00  0.00     0.027 H 
ENDBRANCH  40  43
ENDBRANCH  34  40
ENDBRANCH  32  34
BRANCH  32  47
ATOM     47  NAX K26 d         -11.702  24.917 -11.172  0.00  0.00    -0.348 N 
ATOM     48  CAZ K26 d         -11.761  25.125  -9.855  0.00  0.00     0.214 C 
ATOM     49  OAD K26 d         -10.859  24.842  -9.069  0.00  0.00    -0.274 OA
ATOM     50  H22 K26 d         -12.505  25.129 -11.732  0.00  0.00     0.163 HD
BRANCH  48  51
ATOM     51  CAB K26 d         -13.073  25.723  -9.344  0.00  0.00    -0.003 C 
ATOM     52  H23 K26 d         -12.897  26.228  -8.383  0.00  0.00     0.040 H 
ATOM     53  H24 K26 d         -13.813  24.921  -9.207  0.00  0.00     0.040 H 
ATOM     54  H25 K26 d         -13.453  26.452 -10.076  0.00  0.00     0.040 H 
ENDBRANCH  48  51
ENDBRANCH  32  47
ENDBRANCH  29  32
ENDBRANCH   1  28
BRANCH   1  55
ATOM     55  CB  K26 d          -6.181  26.413 -11.635  0.00  0.00    -0.014 C 
ATOM     56  H26 K26 d          -5.732  27.411 -11.521  0.00  0.00     0.043 H 
ATOM     57  H27 K26 d          -5.429  25.718 -12.038  0.00  0.00     0.043 H 
BRANCH  55  58
ATOM     58  CG  K26 d          -6.670  25.908 -10.268  0.00  0.00    -0.056 A 
ATOM     59  CD1 K26 d          -6.603  24.550  -9.964  0.00  0.00    -0.074 A 
ATOM     60  CE1 K26 d          -7.031  24.088  -8.717  0.00  0.00    -0.051 A 
ATOM     61  H28 K26 d          -6.218  23.850 -10.697  0.00  0.00     0.084 H 
ATOM     62  CZ  K26 d          -7.526  24.985  -7.769  0.00  0.00     0.065 A 
ATOM     63  H29 K26 d          -6.980  23.030  -8.484  0.00  0.00     0.087 H 
ATOM     64  CE2 K26 d          -7.587  26.345  -8.073  0.00  0.00    -0.051 A 
ATOM     65  CD2 K26 d          -7.155  26.808  -9.318  0.00  0.00    -0.074 A 
ATOM     66  H31 K26 d          -7.970  27.045  -7.339  0.00  0.00     0.087 H 
ATOM     67  H32 K26 d          -7.197  27.867  -9.546  0.00  0.00     0.084 H 
BRANCH  62  68
ATOM     68  OH  K26 d          -7.955  24.528  -6.553  0.00  0.00    -0.361 OA
ATOM     69  H30 K26 d          -7.611  23.655  -6.405  0.00  0.00     0.217 HD
ENDBRANCH  62  68
ENDBRANCH  55  58
ENDBRANCH   1  55
TORSDOF 17
ENDMDL
MODEL 9
REMARK VINA RESULT:      -6.7      2.854      7.606
REMARK  17 active torsions:
REMARK  status: ('A' for Active; 'I' for Inactive)
REMARK    1  A    between atoms: CBD_3  and  OAI_4 
REMARK    2  A    between atoms: CBF_7  and  CAV_8 
REMARK    3  A    between atoms: CAV_8  and  CBI_9 
REMARK    4  A    between atoms: CBI_9  and  PBK_10 
REMARK    5  A    between atoms: CBI_9  and  NAY_14 
REMARK       I    between atoms: NAY_14  and  C_15 
REMARK    6  A    between atoms: C_15  and  CA_17 
REMARK    7  A    between atoms: CA_17  and  N_18 
REMARK    8  A    between atoms: CA_17  and  CB_30 
REMARK       I    between atoms: N_18  and  CBB_19 
REMARK    9  A    between atoms: CBB_19  and  CBJ_21 
REMARK   10  A    between atoms: CBJ_21  and  CBG_22 
REMARK   11  A    between atoms: CBJ_21  and  NAX_26 
REMARK   12  A    between atoms: CBG_22  and  CAC_23 
REMARK   13  A    between atoms: CBG_22  and  CAT_24 
REMARK   14  A    between atoms: CAT_24  and  CAA_25 
REMARK       I    between atoms: NAX_26  and  CAZ_27 
REMARK   15  A    between atoms: CAZ_27  and  CAB_28 
REMARK   16  A    between atoms: CB_30  and  CG_31 
REMARK   17  A    between atoms: CZ_34  and  OH_35 
ROOT
ATOM      1  CA  K26 d          -5.722  23.353 -11.391  0.00  0.00     0.093 C 
ATOM      2  H10 K26 d          -5.478  22.280 -11.406  0.00  0.00     0.088 H 
ENDROOT
BRANCH   1   3
ATOM      3  C   K26 d          -6.837  23.588 -10.369  0.00  0.00     0.241 C 
ATOM      4  NAY K26 d          -7.242  24.854 -10.247  0.00  0.00    -0.342 N 
ATOM      5  H9  K26 d          -6.868  25.543 -10.869  0.00  0.00     0.163 HD
ATOM      6  O   K26 d          -7.266  22.644  -9.704  0.00  0.00    -0.271 OA
BRANCH   4   7
ATOM      7  CBI K26 d          -8.221  25.273  -9.230  0.00  0.00     0.124 C 
ATOM      8  H8  K26 d          -8.643  26.247  -9.520  0.00  0.00     0.095 H 
BRANCH   7   9
ATOM      9  CAV K26 d          -9.359  24.227  -9.208  0.00  0.00    -0.010 C 
ATOM     10  H6  K26 d          -8.930  23.230  -9.382  0.00  0.00     0.044 H 
ATOM     11  H7  K26 d          -9.846  24.250  -8.221  0.00  0.00     0.044 H 
BRANCH   9  12
ATOM     12  CBF K26 d         -10.414  24.513 -10.289  0.00  0.00    -0.055 A 
ATOM     13  CAR K26 d         -10.481  25.781 -10.862  0.00  0.00    -0.074 A 
ATOM     14  CAN K26 d         -11.420  26.058 -11.851  0.00  0.00    -0.051 A 
ATOM     15  H1  K26 d          -9.797  26.556 -10.534  0.00  0.00     0.084 H 
ATOM     16  CBD K26 d         -12.299  25.061 -12.276  0.00  0.00     0.065 A 
ATOM     17  H2  K26 d         -11.468  27.048 -12.292  0.00  0.00     0.087 H 
ATOM     18  CAO K26 d         -12.235  23.781 -11.716  0.00  0.00    -0.051 A 
ATOM     19  CAS K26 d         -11.295  23.512 -10.722  0.00  0.00    -0.074 A 
ATOM     20  H4  K26 d         -12.913  23.005 -12.052  0.00  0.00     0.087 H 
ATOM     21  H5  K26 d         -11.245  22.522 -10.280  0.00  0.00     0.084 H 
BRANCH  16  22
ATOM     22  OAI K26 d         -13.212  25.349 -13.243  0.00  0.00    -0.361 OA
ATOM     23  H3  K26 d         -12.760  25.626 -14.031  0.00  0.00     0.217 HD
ENDBRANCH  16  22
ENDBRANCH   9  12
ENDBRANCH   7   9
BRANCH   7  24
ATOM     24  PBK K26 d          -7.415  25.467  -7.584  0.00  0.00     0.283 P 
ATOM     25  OAJ K26 d          -7.655  24.101  -6.821  0.00  0.00    -0.638 OA
ATOM     26  OAK K26 d          -5.828  25.570  -7.950  0.00  0.00    -0.638 OA
ATOM     27  OAG K26 d          -7.921  26.636  -6.816  0.00  0.00    -0.638 OA
ENDBRANCH   7  24
ENDBRANCH   4   7
ENDBRANCH   1   3
BRANCH   1  28
ATOM     28  N   K26 d          -6.203  23.761 -12.726  0.00  0.00    -0.346 N 
ATOM     29  CBB K26 d          -6.226  22.957 -13.797  0.00  0.00     0.241 C 
ATOM     30  OAF K26 d          -5.828  21.792 -13.809  0.00  0.00    -0.271 OA
ATOM     31  H11 K26 d          -6.532  24.699 -12.839  0.00  0.00     0.163 HD
BRANCH  29  32
ATOM     32  CBJ K26 d          -6.724  23.628 -15.089  0.00  0.00     0.092 C 
ATOM     33  H12 K26 d          -6.295  24.638 -15.150  0.00  0.00     0.088 H 
BRANCH  32  34
ATOM     34  CBG K26 d          -8.250  23.769 -15.135  0.00  0.00    -0.030 C 
ATOM     35  H13 K26 d          -8.501  24.838 -15.219  0.00  0.00     0.043 H 
BRANCH  34  36
ATOM     36  CAC K26 d          -8.808  23.036 -16.361  0.00  0.00    -0.071 C 
ATOM     37  H14 K26 d          -8.068  23.068 -17.175  0.00  0.00     0.028 H 
ATOM     38  H15 K26 d          -9.737  23.524 -16.690  0.00  0.00     0.028 H 
ATOM     39  H16 K26 d          -9.018  21.989 -16.098  0.00  0.00     0.028 H 
ENDBRANCH  34  36
BRANCH  34  40
ATOM     40  CAT K26 d          -8.893  23.219 -13.851  0.00  0.00    -0.063 C 
ATOM     41  H17 K26 d          -9.425  24.037 -13.345  0.00  0.00     0.033 H 
ATOM     42  H18 K26 d          -8.096  22.838 -13.195  0.00  0.00     0.033 H 
BRANCH  40  43
ATOM     43  CAA K26 d          -9.882  22.087 -14.127  0.00  0.00    -0.076 C 
ATOM     44  H19 K26 d         -10.780  22.227 -13.508  0.00  0.00     0.027 H 
ATOM     45  H20 K26 d          -9.414  21.122 -13.882  0.00  0.00     0.027 H 
ATOM     46  H21 K26 d         -10.164  22.098 -15.191  0.00  0.00     0.027 H 
ENDBRANCH  40  43
ENDBRANCH  34  40
ENDBRANCH  32  34
BRANCH  32  47
ATOM     47  NAX K26 d          -6.204  22.822 -16.211  0.00  0.00    -0.348 N 
ATOM     48  CAZ K26 d          -5.365  23.326 -17.118  0.00  0.00     0.214 C 
ATOM     49  OAD K26 d          -4.999  24.499 -17.146  0.00  0.00    -0.274 OA
ATOM     50  H22 K26 d          -6.490  21.866 -16.295  0.00  0.00     0.163 HD
BRANCH  48  51
ATOM     51  CAB K26 d          -4.887  22.341 -18.188  0.00  0.00    -0.003 C 
ATOM     52  H23 K26 d          -5.611  21.518 -18.278  0.00  0.00     0.040 H 
ATOM     53  H24 K26 d          -3.905  21.936 -17.900  0.00  0.00     0.040 H 
ATOM     54  H25 K26 d          -4.801  22.862 -19.153  0.00  0.00     0.040 H 
ENDBRANCH  48  51
ENDBRANCH  32  47
ENDBRANCH  29  32
ENDBRANCH   1  28
BRANCH   1  55
ATOM     55  CB  K26 d          -4.458  24.131 -11.049  0.00  0.00    -0.014 C 
ATOM     56  H26 K26 d          -3.749  23.474 -10.525  0.00  0.00     0.043 H 
ATOM     57  H27 K26 d          -4.712  24.985 -10.402  0.00  0.00     0.043 H 
BRANCH  55  58
ATOM     58  CG  K26 d          -3.822  24.642 -12.352  0.00  0.00    -0.056 A 
ATOM     59  CD1 K26 d          -2.914  23.843 -13.042  0.00  0.00    -0.074 A 
ATOM     60  CE1 K26 d          -2.346  24.295 -14.236  0.00  0.00    -0.051 A 
ATOM     61  H28 K26 d          -2.648  22.866 -12.653  0.00  0.00     0.084 H 
ATOM     62  CZ  K26 d          -2.687  25.550 -14.743  0.00  0.00     0.065 A 
ATOM     63  H29 K26 d          -1.638  23.671 -14.770  0.00  0.00     0.087 H 
ATOM     64  CE2 K26 d          -3.601  26.347 -14.053  0.00  0.00    -0.051 A 
ATOM     65  CD2 K26 d          -4.172  25.894 -12.862  0.00  0.00    -0.074 A 
ATOM     66  H31 K26 d          -3.868  27.322 -14.444  0.00  0.00     0.087 H 
ATOM     67  H32 K26 d          -4.888  26.513 -12.334  0.00  0.00     0.084 H 
BRANCH  62  68
ATOM     68  OH  K26 d          -2.120  25.995 -15.906  0.00  0.00    -0.361 OA
ATOM     69  H30 K26 d          -1.912  26.918 -15.822  0.00  0.00     0.217 HD
ENDBRANCH  62  68
ENDBRANCH  55  58
ENDBRANCH   1  55
TORSDOF 17
ENDMDL
MODEL 10
REMARK VINA RESULT:      -6.6      1.997      2.551
REMARK  17 active torsions:
REMARK  status: ('A' for Active; 'I' for Inactive)
REMARK    1  A    between atoms: CBD_3  and  OAI_4 
REMARK    2  A    between atoms: CBF_7  and  CAV_8 
REMARK    3  A    between atoms: CAV_8  and  CBI_9 
REMARK    4  A    between atoms: CBI_9  and  PBK_10 
REMARK    5  A    between atoms: CBI_9  and  NAY_14 
REMARK       I    between atoms: NAY_14  and  C_15 
REMARK    6  A    between atoms: C_15  and  CA_17 
REMARK    7  A    between atoms: CA_17  and  N_18 
REMARK    8  A    between atoms: CA_17  and  CB_30 
REMARK       I    between atoms: N_18  and  CBB_19 
REMARK    9  A    between atoms: CBB_19  and  CBJ_21 
REMARK   10  A    between atoms: CBJ_21  and  CBG_22 
REMARK   11  A    between atoms: CBJ_21  and  NAX_26 
REMARK   12  A    between atoms: CBG_22  and  CAC_23 
REMARK   13  A    between atoms: CBG_22  and  CAT_24 
REMARK   14  A    between atoms: CAT_24  and  CAA_25 
REMARK       I    between atoms: NAX_26  and  CAZ_27 
REMARK   15  A    between atoms: CAZ_27  and  CAB_28 
REMARK   16  A    between atoms: CB_30  and  CG_31 
REMARK   17  A    between atoms: CZ_34  and  OH_35 
ROOT
ATOM      1  CA  K26 d          -8.148  22.736 -13.542  0.00  0.00     0.093 C 
ATOM      2  H10 K26 d          -7.624  21.942 -12.989  0.00  0.00     0.088 H 
ENDROOT
BRANCH   1   3
ATOM      3  C   K26 d          -7.121  23.525 -14.358  0.00  0.00     0.241 C 
ATOM      4  NAY K26 d          -6.395  22.801 -15.214  0.00  0.00    -0.342 N 
ATOM      5  H9  K26 d          -6.612  21.833 -15.333  0.00  0.00     0.163 HD
ATOM      6  O   K26 d          -6.987  24.735 -14.168  0.00  0.00    -0.271 OA
BRANCH   4   7
ATOM      7  CBI K26 d          -5.285  23.380 -15.988  0.00  0.00     0.124 C 
ATOM      8  H8  K26 d          -5.228  24.459 -15.780  0.00  0.00     0.095 H 
BRANCH   7   9
ATOM      9  CAV K26 d          -3.974  22.715 -15.509  0.00  0.00    -0.010 C 
ATOM     10  H6  K26 d          -4.155  21.641 -15.354  0.00  0.00     0.044 H 
ATOM     11  H7  K26 d          -3.202  22.848 -16.282  0.00  0.00     0.044 H 
BRANCH   9  12
ATOM     12  CBF K26 d          -3.472  23.332 -14.193  0.00  0.00    -0.055 A 
ATOM     13  CAR K26 d          -2.822  24.563 -14.219  0.00  0.00    -0.074 A 
ATOM     14  CAN K26 d          -2.371  25.146 -13.038  0.00  0.00    -0.051 A 
ATOM     15  H1  K26 d          -2.668  25.071 -15.164  0.00  0.00     0.084 H 
ATOM     16  CBD K26 d          -2.571  24.496 -11.820  0.00  0.00     0.065 A 
ATOM     17  H2  K26 d          -1.864  26.105 -13.065  0.00  0.00     0.087 H 
ATOM     18  CAO K26 d          -3.230  23.263 -11.780  0.00  0.00    -0.051 A 
ATOM     19  CAS K26 d          -3.676  22.683 -12.967  0.00  0.00    -0.074 A 
ATOM     20  H4  K26 d          -3.393  22.762 -10.832  0.00  0.00     0.087 H 
ATOM     21  H5  K26 d          -4.184  21.725 -12.943  0.00  0.00     0.084 H 
BRANCH  16  22
ATOM     22  OAI K26 d          -2.121  25.077 -10.675  0.00  0.00    -0.361 OA
ATOM     23  H3  K26 d          -1.682  25.893 -10.886  0.00  0.00     0.217 HD
ENDBRANCH  16  22
ENDBRANCH   9  12
ENDBRANCH   7   9
BRANCH   7  24
ATOM     24  PBK K26 d          -5.561  23.161 -17.797  0.00  0.00     0.283 P 
ATOM     25  OAJ K26 d          -5.109  24.519 -18.472  0.00  0.00    -0.638 OA
ATOM     26  OAK K26 d          -4.482  22.008 -18.208  0.00  0.00    -0.638 OA
ATOM     27  OAG K26 d          -6.964  22.804 -18.138  0.00  0.00    -0.638 OA
ENDBRANCH   7  24
ENDBRANCH   4   7
ENDBRANCH   1   3
BRANCH   1  28
ATOM     28  N   K26 d          -8.797  23.649 -12.579  0.00  0.00    -0.346 N 
ATOM     29  CBB K26 d          -8.338  23.895 -11.346  0.00  0.00     0.241 C 
ATOM     30  OAF K26 d          -7.337  23.374 -10.852  0.00  0.00    -0.271 OA
ATOM     31  H11 K26 d          -9.635  24.114 -12.867  0.00  0.00     0.163 HD
BRANCH  29  32
ATOM     32  CBJ K26 d          -9.217  24.844 -10.513  0.00  0.00     0.092 C 
ATOM     33  H12 K26 d          -9.496  25.706 -11.138  0.00  0.00     0.088 H 
BRANCH  32  34
ATOM     34  CBG K26 d          -8.498  25.386  -9.272  0.00  0.00    -0.030 C 
ATOM     35  H13 K26 d          -7.550  25.845  -9.589  0.00  0.00     0.043 H 
BRANCH  34  36
ATOM     36  CAC K26 d          -9.360  26.458  -8.593  0.00  0.00    -0.071 C 
ATOM     37  H14 K26 d         -10.312  26.560  -9.135  0.00  0.00     0.028 H 
ATOM     38  H15 K26 d          -8.826  27.419  -8.605  0.00  0.00     0.028 H 
ATOM     39  H16 K26 d          -9.560  26.163  -7.553  0.00  0.00     0.028 H 
ENDBRANCH  34  36
BRANCH  34  40
ATOM     40  CAT K26 d          -8.184  24.254  -8.281  0.00  0.00    -0.063 C 
ATOM     41  H17 K26 d          -7.432  23.589  -8.732  0.00  0.00     0.033 H 
ATOM     42  H18 K26 d          -9.107  23.687  -8.090  0.00  0.00     0.033 H 
BRANCH  40  43
ATOM     43  CAA K26 d          -7.643  24.771  -6.949  0.00  0.00    -0.076 C 
ATOM     44  H19 K26 d          -6.603  25.105  -7.080  0.00  0.00     0.027 H 
ATOM     45  H20 K26 d          -7.677  23.965  -6.201  0.00  0.00     0.027 H 
ATOM     46  H21 K26 d          -8.259  25.615  -6.606  0.00  0.00     0.027 H 
ENDBRANCH  40  43
ENDBRANCH  34  40
ENDBRANCH  32  34
BRANCH  32  47
ATOM     47  NAX K26 d         -10.440  24.093 -10.167  0.00  0.00    -0.348 N 
ATOM     48  CAZ K26 d         -11.643  24.442 -10.628  0.00  0.00     0.214 C 
ATOM     49  OAD K26 d         -11.857  25.436 -11.318  0.00  0.00    -0.274 OA
ATOM     50  H22 K26 d         -10.365  23.295  -9.567  0.00  0.00     0.163 HD
BRANCH  48  51
ATOM     51  CAB K26 d         -12.796  23.527 -10.209  0.00  0.00    -0.003 C 
ATOM     52  H23 K26 d         -12.400  22.679  -9.632  0.00  0.00     0.040 H 
ATOM     53  H24 K26 d         -13.311  23.153 -11.106  0.00  0.00     0.040 H 
ATOM     54  H25 K26 d         -13.506  24.094  -9.588  0.00  0.00     0.040 H 
ENDBRANCH  48  51
ENDBRANCH  32  47
ENDBRANCH  29  32
ENDBRANCH   1  28
BRANCH   1  55
ATOM     55  CB  K26 d          -9.210  22.093 -14.424  0.00  0.00    -0.014 C 
ATOM     56  H26 K26 d          -9.965  21.600 -13.794  0.00  0.00     0.043 H 
ATOM     57  H27 K26 d          -8.741  21.348 -15.084  0.00  0.00     0.043 H 
BRANCH  55  58
ATOM     58  CG  K26 d          -9.879  23.186 -15.273  0.00  0.00    -0.056 A 
ATOM     59  CD1 K26 d          -9.478  23.385 -16.592  0.00  0.00    -0.074 A 
ATOM     60  CE1 K26 d         -10.094  24.366 -17.373  0.00  0.00    -0.051 A 
ATOM     61  H28 K26 d          -8.686  22.776 -17.014  0.00  0.00     0.084 H 
ATOM     62  CZ  K26 d         -11.115  25.151 -16.835  0.00  0.00     0.065 A 
ATOM     63  H29 K26 d          -9.778  24.519 -18.399  0.00  0.00     0.087 H 
ATOM     64  CE2 K26 d         -11.520  24.947 -15.516  0.00  0.00    -0.051 A 
ATOM     65  CD2 K26 d         -10.907  23.963 -14.736  0.00  0.00    -0.074 A 
ATOM     66  H31 K26 d         -12.313  25.554 -15.095  0.00  0.00     0.087 H 
ATOM     67  H32 K26 d         -11.231  23.803 -13.714  0.00  0.00     0.084 H 
BRANCH  62  68
ATOM     68  OH  K26 d         -11.708  26.118 -17.599  0.00  0.00    -0.361 OA
ATOM     69  H30 K26 d         -12.481  25.759 -18.018  0.00  0.00     0.217 HD
ENDBRANCH  62  68
ENDBRANCH  55  58
ENDBRANCH   1  55
TORSDOF 17
ENDMDL
