MODEL 1
REMARK VINA RESULT:      -8.8      0.000      0.000
REMARK  16 active torsions:
REMARK  status: ('A' for Active; 'I' for Inactive)
REMARK    1  A    between atoms: CA_4  and  C_1 
REMARK    2  A    between atoms: N_2  and  CA_4 
REMARK    3  A    between atoms: CBI_33  and  N_2 
REMARK    4  A    between atoms: CA_4  and  CB_5 
REMARK    5  A    between atoms: CB_5  and  CAT_23 
REMARK    6  A    between atoms: CAQ_20  and  NAA_6 
REMARK    7  A    between atoms: CAR_21  and  CAQ_20 
REMARK    8  A    between atoms: CAS_22  and  CAR_21 
REMARK    9  A    between atoms: CAU_24  and  CAS_22 
REMARK   10  A    between atoms: CAT_23  and  CBD_29 
REMARK   11  A    between atoms: CBI_33  and  CAU_24 
REMARK   12  A    between atoms: CBE_30  and  CAW_25 
REMARK   13  A    between atoms: CAW_25  and  CBJ_34 
REMARK       I    between atoms: NAX_26  and  CBC_28 
REMARK   14  A    between atoms: CBJ_34  and  NAX_26 
REMARK   15  A    between atoms: CBJ_34  and  CBB_27 
REMARK   16  A    between atoms: CBC_28  and  CBI_33 
ROOT
ATOM      1  CBI LSW d          42.060   8.107 112.725  0.00  0.00     0.179 C 
ATOM      2  H32 LSW d          41.433   7.209 112.824  0.00  0.00     0.099 H 
ENDROOT
BRANCH   1   3
ATOM      3  N   LSW d          42.733   8.345 114.001  0.00  0.00    -0.048 N 
ATOM      4  H1  LSW d          43.350   9.137 113.915  0.00  0.00     0.279 HD
ATOM      5  H2  LSW d          42.046   8.531 114.716  0.00  0.00     0.279 HD
BRANCH   3   6
ATOM      6  CA  LSW d          43.510   7.152 114.365  0.00  0.00     0.185 C 
ATOM      7  H3  LSW d          43.936   6.709 113.451  0.00  0.00     0.101 H 
BRANCH   6   8
ATOM      8  C   LSW d          42.598   6.125 115.045  0.00  0.00     0.204 C 
ATOM      9  O   LSW d          42.611   4.943 114.639  0.00  0.00    -0.646 OA
ATOM     10  OXT LSW d          41.871   6.492 115.993  0.00  0.00    -0.646 OA
ENDBRANCH   6   8
BRANCH   6  11
ATOM     11  CB  LSW d          44.649   7.530 115.316  0.00  0.00    -0.025 C 
ATOM     12  H4  LSW d          44.223   7.931 116.248  0.00  0.00     0.037 H 
ATOM     13  H5  LSW d          45.278   8.297 114.840  0.00  0.00     0.037 H 
BRANCH  11  14
ATOM     14  CAT LSW d          45.509   6.306 115.642  0.00  0.00    -0.039 C 
ATOM     15  H25 LSW d          46.460   6.388 115.096  0.00  0.00     0.040 H 
ATOM     16  H26 LSW d          44.973   5.402 115.314  0.00  0.00     0.040 H 
BRANCH  14  17
ATOM     17  CBD LSW d          45.812   6.179 117.138  0.00  0.00    -0.058 A 
ATOM     18  CAL LSW d          46.045   4.924 117.690  0.00  0.00    -0.077 A 
ATOM     19  CAH LSW d          46.379   4.800 119.034  0.00  0.00    -0.082 A 
ATOM     20  H14 LSW d          45.966   4.038 117.070  0.00  0.00     0.084 H 
ATOM     21  CAG LSW d          46.478   5.934 119.832  0.00  0.00    -0.083 A 
ATOM     22  H10 LSW d          46.561   3.820 119.460  0.00  0.00     0.083 H 
ATOM     23  CAI LSW d          46.243   7.190 119.283  0.00  0.00    -0.082 A 
ATOM     24  H9  LSW d          46.740   5.840 120.880  0.00  0.00     0.083 H 
ATOM     25  CAM LSW d          45.910   7.312 117.938  0.00  0.00    -0.077 A 
ATOM     26  H11 LSW d          46.319   8.075 119.904  0.00  0.00     0.083 H 
ATOM     27  H15 LSW d          45.727   8.292 117.512  0.00  0.00     0.084 H 
ENDBRANCH  14  17
ENDBRANCH  11  14
ENDBRANCH   6  11
ENDBRANCH   3   6
ENDBRANCH   1   3
BRANCH   1  28
ATOM     28  CAU LSW d          41.154   9.301 112.366  0.00  0.00    -0.030 C 
ATOM     29  H27 LSW d          40.707   9.099 111.382  0.00  0.00     0.036 H 
ATOM     30  H28 LSW d          40.360   9.359 113.125  0.00  0.00     0.036 H 
BRANCH  28  31
ATOM     31  CAS LSW d          41.840  10.684 112.296  0.00  0.00    -0.061 C 
ATOM     32  H23 LSW d          41.829  11.149 113.293  0.00  0.00     0.033 H 
ATOM     33  H24 LSW d          42.880  10.559 111.961  0.00  0.00     0.033 H 
BRANCH  31  34
ATOM     34  CAR LSW d          41.083  11.588 111.298  0.00  0.00    -0.043 C 
ATOM     35  H21 LSW d          41.057  11.084 110.320  0.00  0.00     0.035 H 
ATOM     36  H22 LSW d          40.056  11.729 111.664  0.00  0.00     0.035 H 
BRANCH  34  37
ATOM     37  CAQ LSW d          41.734  12.970 111.118  0.00  0.00     0.080 C 
ATOM     38  H19 LSW d          42.288  13.225 112.033  0.00  0.00     0.075 H 
ATOM     39  H20 LSW d          42.430  12.929 110.267  0.00  0.00     0.075 H 
BRANCH  37  40
ATOM     40  NAA LSW d          40.709  14.033 110.857  0.00  0.00    -0.079 N 
ATOM     41  H6  LSW d          41.169  14.923 110.745  0.00  0.00     0.274 HD
ATOM     42  H7  LSW d          40.070  14.081 111.634  0.00  0.00     0.274 HD
ATOM     43  H8  LSW d          40.200  13.809 110.016  0.00  0.00     0.274 HD
ENDBRANCH  37  40
ENDBRANCH  34  37
ENDBRANCH  31  34
ENDBRANCH  28  31
ENDBRANCH   1  28
BRANCH   1  44
ATOM     44  CBC LSW d          43.081   7.868 111.610  0.00  0.00     0.249 C 
ATOM     45  OAD LSW d          44.256   7.637 111.897  0.00  0.00    -0.271 OA
ATOM     46  NAX LSW d          42.648   7.902 110.346  0.00  0.00    -0.344 N 
ATOM     47  H31 LSW d          41.680   8.057 110.153  0.00  0.00     0.163 HD
BRANCH  46  48
ATOM     48  CBJ LSW d          43.597   7.711 109.240  0.00  0.00     0.100 C 
ATOM     49  H33 LSW d          44.318   6.934 109.534  0.00  0.00     0.090 H 
BRANCH  48  50
ATOM     50  CAW LSW d          42.901   7.271 107.942  0.00  0.00    -0.011 C 
ATOM     51  H29 LSW d          43.052   8.063 107.194  0.00  0.00     0.044 H 
ATOM     52  H30 LSW d          43.384   6.344 107.599  0.00  0.00     0.044 H 
BRANCH  50  53
ATOM     53  CBE LSW d          41.447   7.013 108.045  0.00  0.00    -0.028 A 
ATOM     54  CAP LSW d          40.829   5.792 108.144  0.00  0.00    -0.015 A 
ATOM     55  NXZ LSW d          39.445   5.970 108.182  0.00  0.00    -0.365 N 
ATOM     56  H18 LSW d          41.339   4.831 108.186  0.00  0.00     0.112 H 
ATOM     57  CBF LSW d          39.172   7.312 108.110  0.00  0.00     0.042 A 
ATOM     58  H34 LSW d          38.744   5.218 108.253  0.00  0.00     0.165 HD
ATOM     59  CAN LSW d          37.944   7.978 108.110  0.00  0.00    -0.056 A 
ATOM     60  CBG LSW d          40.408   7.999 108.027  0.00  0.00    -0.002 A 
ATOM     61  CAJ LSW d          37.965   9.349 108.025  0.00  0.00    -0.081 A 
ATOM     62  H16 LSW d          37.010   7.433 108.175  0.00  0.00     0.086 H 
ATOM     63  CAK LSW d          39.178  10.066 107.944  0.00  0.00    -0.082 A 
ATOM     64  H12 LSW d          37.028   9.893 108.020  0.00  0.00     0.083 H 
ATOM     65  CAO LSW d          40.402   9.400 107.946  0.00  0.00    -0.070 A 
ATOM     66  H13 LSW d          39.157  11.148 107.880  0.00  0.00     0.083 H 
ATOM     67  H17 LSW d          41.332   9.953 107.885  0.00  0.00     0.084 H 
ENDBRANCH  50  53
ENDBRANCH  48  50
BRANCH  48  68
ATOM     68  CBB LSW d          44.353   9.017 108.960  0.00  0.00     0.197 C 
ATOM     69  OAC LSW d          45.591   8.969 108.749  0.00  0.00    -0.646 OA
ATOM     70  OAF LSW d          43.691  10.078 108.931  0.00  0.00    -0.646 OA
ENDBRANCH  48  68
ENDBRANCH  46  48
ENDBRANCH   1  44
TORSDOF 16
ENDMDL
