MODEL 1
REMARK VINA RESULT:     -11.2      0.000      0.000
REMARK  1 active torsions:
REMARK  status: ('A' for Active; 'I' for Inactive)
REMARK    1  A    between atoms: CAI_24  and  OAJ_25 
ROOT
ATOM      1  CAV SY9 d         -42.670   7.234 -16.960  0.00  0.00     0.118 C 
ATOM      2  CAU SY9 d         -41.766   6.863 -18.142  0.00  0.00    -0.030 C 
ATOM      3  CAT SY9 d         -40.569   6.067 -17.648  0.00  0.00    -0.021 C 
ATOM      4  CAN SY9 d         -41.067   4.739 -17.073  0.00  0.00    -0.001 C 
ATOM      5  CAK SY9 d         -42.032   4.932 -15.909  0.00  0.00     0.034 C 
ATOM      6  NAH SY9 d         -42.823   3.693 -15.859  0.00  0.00    -0.347 N 
ATOM      7  CAA SY9 d         -44.174   3.926 -16.106  0.00  0.00     0.040 A 
ATOM      8  CAF SY9 d         -45.202   3.000 -16.294  0.00  0.00    -0.057 A 
ATOM      9  CAE SY9 d         -46.480   3.425 -16.618  0.00  0.00    -0.081 A 
ATOM     10  CAD SY9 d         -46.713   4.783 -16.794  0.00  0.00    -0.082 A 
ATOM     11  CAC SY9 d         -45.681   5.706 -16.639  0.00  0.00    -0.074 A 
ATOM     12  CAB SY9 d         -44.395   5.282 -16.340  0.00  0.00    -0.019 A 
ATOM     13  CAG SY9 d         -43.087   6.046 -16.050  0.00  0.00     0.040 C 
ATOM     14  CAW SY9 d         -43.308   6.737 -14.706  0.00  0.00    -0.027 C 
ATOM     15  CAX SY9 d         -42.068   7.618 -14.656  0.00  0.00     0.085 C 
ATOM     16  NAY SY9 d         -41.949   8.168 -16.034  0.00  0.00    -0.062 N 
ATOM     17  CAS SY9 d         -40.504   8.295 -16.303  0.00  0.00     0.104 C 
ATOM     18  CAR SY9 d         -39.931   6.912 -16.585  0.00  0.00    -0.051 C 
ATOM     19  CAQ SY9 d         -38.860   6.554 -15.785  0.00  0.00    -0.076 C 
ATOM     20  CAP SY9 d         -38.251   5.309 -15.911  0.00  0.00     0.035 C 
ATOM     21  OAO SY9 d         -39.041   4.124 -15.646  0.00  0.00    -0.382 OA
ATOM     22  CAM SY9 d         -39.979   3.725 -16.643  0.00  0.00     0.049 C 
ATOM     23  CAL SY9 d         -40.596   2.497 -15.886  0.00  0.00     0.000 C 
ATOM     24  CAI SY9 d         -42.126   2.494 -15.931  0.00  0.00     0.105 C 
ATOM     25  H1  SY9 d         -43.573   7.718 -17.361  0.00  0.00     0.086 H 
ATOM     26  H2  SY9 d         -41.416   7.782 -18.636  0.00  0.00     0.037 H 
ATOM     27  H3  SY9 d         -42.336   6.257 -18.862  0.00  0.00     0.037 H 
ATOM     28  H4  SY9 d         -39.858   5.876 -18.465  0.00  0.00     0.048 H 
ATOM     29  H5  SY9 d         -41.632   4.259 -17.886  0.00  0.00     0.048 H 
ATOM     30  H6  SY9 d         -41.457   5.089 -14.984  0.00  0.00     0.075 H 
ATOM     31  H7  SY9 d         -44.999   1.941 -16.187  0.00  0.00     0.086 H 
ATOM     32  H8  SY9 d         -47.286   2.709 -16.733  0.00  0.00     0.083 H 
ATOM     33  H9  SY9 d         -47.707   5.128 -17.053  0.00  0.00     0.083 H 
ATOM     34  H10 SY9 d         -45.885   6.765 -16.754  0.00  0.00     0.084 H 
ATOM     35  H11 SY9 d         -43.329   6.016 -13.875  0.00  0.00     0.037 H 
ATOM     36  H12 SY9 d         -44.233   7.332 -14.699  0.00  0.00     0.037 H 
ATOM     37  H13 SY9 d         -41.178   7.026 -14.395  0.00  0.00     0.076 H 
ATOM     38  H14 SY9 d         -42.196   8.429 -13.924  0.00  0.00     0.076 H 
ATOM     39  H15 SY9 d         -42.378   9.078 -16.090  0.00  0.00     0.280 HD
ATOM     40  H16 SY9 d         -40.002   8.731 -15.427  0.00  0.00     0.083 H 
ATOM     41  H17 SY9 d         -40.347   8.945 -17.178  0.00  0.00     0.083 H 
ATOM     42  H18 SY9 d         -38.486   7.260 -15.044  0.00  0.00     0.080 H 
ATOM     43  H19 SY9 d         -37.399   5.292 -15.216  0.00  0.00     0.080 H 
ATOM     44  H20 SY9 d         -37.883   5.230 -16.944  0.00  0.00     0.080 H 
ATOM     45  H21 SY9 d         -39.447   3.408 -17.553  0.00  0.00     0.084 H 
ATOM     46  H22 SY9 d         -40.273   2.532 -14.835  0.00  0.00     0.043 H 
ATOM     47  H23 SY9 d         -40.227   1.572 -16.352  0.00  0.00     0.043 H 
ATOM     48  H24 SY9 d         -42.119   2.524 -17.030  0.00  0.00     0.117 H 
ENDROOT
BRANCH  24  49
ATOM     49  OAJ SY9 d         -42.830   1.328 -15.931  0.00  0.00    -0.377 OA
ATOM     50  H25 SY9 d         -43.388   1.297 -16.700  0.00  0.00     0.212 HD
ENDBRANCH  24  49
TORSDOF 1
ENDMDL
MODEL 2
REMARK VINA RESULT:     -10.7      1.298      4.827
REMARK  1 active torsions:
REMARK  status: ('A' for Active; 'I' for Inactive)
REMARK    1  A    between atoms: CAI_24  and  OAJ_25 
ROOT
ATOM      1  CAV SY9 d         -41.517   7.274 -16.014  0.00  0.00     0.118 C 
ATOM      2  CAU SY9 d         -42.359   7.145 -14.740  0.00  0.00    -0.030 C 
ATOM      3  CAT SY9 d         -43.499   6.164 -14.971  0.00  0.00    -0.021 C 
ATOM      4  CAN SY9 d         -42.906   4.776 -15.220  0.00  0.00    -0.001 C 
ATOM      5  CAK SY9 d         -41.987   4.743 -16.436  0.00  0.00     0.034 C 
ATOM      6  NAH SY9 d         -41.098   3.592 -16.211  0.00  0.00    -0.347 N 
ATOM      7  CAA SY9 d         -39.766   3.978 -16.087  0.00  0.00     0.040 A 
ATOM      8  CAF SY9 d         -38.661   3.208 -15.720  0.00  0.00    -0.057 A 
ATOM      9  CAE SY9 d         -37.415   3.793 -15.566  0.00  0.00    -0.081 A 
ATOM     10  CAD SY9 d         -37.291   5.165 -15.742  0.00  0.00    -0.082 A 
ATOM     11  CAC SY9 d         -38.398   5.942 -16.075  0.00  0.00    -0.074 A 
ATOM     12  CAB SY9 d         -39.652   5.363 -16.206  0.00  0.00    -0.019 A 
ATOM     13  CAG SY9 d         -41.024   5.931 -16.619  0.00  0.00     0.040 C 
ATOM     14  CAW SY9 d         -40.892   6.278 -18.101  0.00  0.00    -0.027 C 
ATOM     15  CAX SY9 d         -42.201   7.025 -18.314  0.00  0.00     0.085 C 
ATOM     16  NAY SY9 d         -42.333   7.891 -17.111  0.00  0.00    -0.062 N 
ATOM     17  CAS SY9 d         -43.777   7.975 -16.820  0.00  0.00     0.104 C 
ATOM     18  CAR SY9 d         -44.228   6.667 -16.181  0.00  0.00    -0.051 C 
ATOM     19  CAQ SY9 d         -45.284   6.043 -16.821  0.00  0.00    -0.076 C 
ATOM     20  CAP SY9 d         -45.785   4.827 -16.366  0.00  0.00     0.035 C 
ATOM     21  OAO SY9 d         -44.907   3.676 -16.363  0.00  0.00    -0.382 OA
ATOM     22  CAM SY9 d         -43.917   3.609 -15.339  0.00  0.00     0.049 C 
ATOM     23  CAL SY9 d         -43.218   2.279 -15.795  0.00  0.00     0.000 C 
ATOM     24  CAI SY9 d         -41.692   2.401 -15.815  0.00  0.00     0.105 C 
ATOM     25  H1  SY9 d         -40.648   7.908 -15.785  0.00  0.00     0.086 H 
ATOM     26  H2  SY9 d         -42.773   8.129 -14.474  0.00  0.00     0.037 H 
ATOM     27  H3  SY9 d         -41.726   6.782 -13.918  0.00  0.00     0.037 H 
ATOM     28  H4  SY9 d         -44.173   6.132 -14.102  0.00  0.00     0.048 H 
ATOM     29  H5  SY9 d         -42.285   4.557 -14.339  0.00  0.00     0.048 H 
ATOM     30  H6  SY9 d         -42.594   4.620 -17.345  0.00  0.00     0.075 H 
ATOM     31  H7  SY9 d         -38.779   2.143 -15.553  0.00  0.00     0.086 H 
ATOM     32  H8  SY9 d         -36.551   3.190 -15.312  0.00  0.00     0.083 H 
ATOM     33  H9  SY9 d         -36.323   5.637 -15.618  0.00  0.00     0.083 H 
ATOM     34  H10 SY9 d         -38.279   7.007 -16.235  0.00  0.00     0.084 H 
ATOM     35  H11 SY9 d         -40.830   5.376 -18.728  0.00  0.00     0.037 H 
ATOM     36  H12 SY9 d         -40.019   6.919 -18.294  0.00  0.00     0.037 H 
ATOM     37  H13 SY9 d         -43.045   6.322 -18.383  0.00  0.00     0.076 H 
ATOM     38  H14 SY9 d         -42.156   7.634 -19.229  0.00  0.00     0.076 H 
ATOM     39  H15 SY9 d         -41.979   8.816 -17.301  0.00  0.00     0.280 HD
ATOM     40  H16 SY9 d         -44.333   8.140 -17.755  0.00  0.00     0.083 H 
ATOM     41  H17 SY9 d         -43.966   8.809 -16.128  0.00  0.00     0.083 H 
ATOM     42  H18 SY9 d         -45.731   6.511 -17.698  0.00  0.00     0.080 H 
ATOM     43  H19 SY9 d         -46.649   4.574 -16.998  0.00  0.00     0.080 H 
ATOM     44  H20 SY9 d         -46.122   4.982 -15.330  0.00  0.00     0.080 H 
ATOM     45  H21 SY9 d         -44.400   3.491 -14.357  0.00  0.00     0.084 H 
ATOM     46  H22 SY9 d         -43.567   2.026 -16.807  0.00  0.00     0.043 H 
ATOM     47  H23 SY9 d         -43.499   1.476 -15.098  0.00  0.00     0.043 H 
ATOM     48  H24 SY9 d         -41.677   2.704 -14.758  0.00  0.00     0.117 H 
ENDROOT
BRANCH  24  49
ATOM     49  OAJ SY9 d         -40.896   1.328 -15.556  0.00  0.00    -0.377 OA
ATOM     50  H25 SY9 d         -40.781   1.238 -14.617  0.00  0.00     0.212 HD
ENDBRANCH  24  49
TORSDOF 1
ENDMDL
MODEL 3
REMARK VINA RESULT:      -9.4      1.810      3.287
REMARK  1 active torsions:
REMARK  status: ('A' for Active; 'I' for Inactive)
REMARK    1  A    between atoms: CAI_24  and  OAJ_25 
ROOT
ATOM      1  CAV SY9 d         -44.007   6.230 -16.697  0.00  0.00     0.118 C 
ATOM      2  CAU SY9 d         -43.588   6.569 -18.133  0.00  0.00    -0.030 C 
ATOM      3  CAT SY9 d         -42.294   7.369 -18.118  0.00  0.00    -0.021 C 
ATOM      4  CAN SY9 d         -41.178   6.485 -17.557  0.00  0.00    -0.001 C 
ATOM      5  CAK SY9 d         -41.468   6.010 -16.137  0.00  0.00     0.034 C 
ATOM      6  NAH SY9 d         -40.665   4.789 -15.972  0.00  0.00    -0.347 N 
ATOM      7  CAA SY9 d         -41.460   3.665 -15.763  0.00  0.00     0.040 A 
ATOM      8  CAF SY9 d         -41.084   2.322 -15.717  0.00  0.00    -0.057 A 
ATOM      9  CAE SY9 d         -42.040   1.328 -15.583  0.00  0.00    -0.081 A 
ATOM     10  CAD SY9 d         -43.381   1.687 -15.537  0.00  0.00    -0.082 A 
ATOM     11  CAC SY9 d         -43.762   3.025 -15.617  0.00  0.00    -0.074 A 
ATOM     12  CAB SY9 d         -42.809   4.020 -15.776  0.00  0.00    -0.019 A 
ATOM     13  CAG SY9 d         -42.908   5.558 -15.830  0.00  0.00     0.040 C 
ATOM     14  CAW SY9 d         -43.306   5.990 -14.420  0.00  0.00    -0.027 C 
ATOM     15  CAX SY9 d         -43.591   7.465 -14.667  0.00  0.00     0.085 C 
ATOM     16  NAY SY9 d         -44.345   7.486 -15.950  0.00  0.00    -0.062 N 
ATOM     17  CAS SY9 d         -43.950   8.728 -16.639  0.00  0.00     0.104 C 
ATOM     18  CAR SY9 d         -42.555   8.545 -17.225  0.00  0.00    -0.051 C 
ATOM     19  CAQ SY9 d         -41.633   9.502 -16.838  0.00  0.00    -0.076 C 
ATOM     20  CAP SY9 d         -40.312   9.447 -17.274  0.00  0.00     0.035 C 
ATOM     21  OAO SY9 d         -39.509   8.301 -16.900  0.00  0.00    -0.382 OA
ATOM     22  CAM SY9 d         -39.749   7.079 -17.593  0.00  0.00     0.049 C 
ATOM     23  CAL SY9 d         -38.727   6.179 -16.811  0.00  0.00     0.000 C 
ATOM     24  CAI SY9 d         -39.338   4.844 -16.379  0.00  0.00     0.105 C 
ATOM     25  H1  SY9 d         -44.885   5.569 -16.746  0.00  0.00     0.086 H 
ATOM     26  H2  SY9 d         -44.379   7.163 -18.614  0.00  0.00     0.037 H 
ATOM     27  H3  SY9 d         -43.435   5.638 -18.698  0.00  0.00     0.037 H 
ATOM     28  H4  SY9 d         -42.029   7.707 -19.131  0.00  0.00     0.048 H 
ATOM     29  H5  SY9 d         -41.158   5.592 -18.199  0.00  0.00     0.048 H 
ATOM     30  H6  SY9 d         -41.172   6.795 -15.426  0.00  0.00     0.075 H 
ATOM     31  H7  SY9 d         -40.037   2.054 -15.787  0.00  0.00     0.086 H 
ATOM     32  H8  SY9 d         -41.746   0.286 -15.515  0.00  0.00     0.083 H 
ATOM     33  H9  SY9 d         -44.139   0.919 -15.439  0.00  0.00     0.083 H 
ATOM     34  H10 SY9 d         -44.811   3.289 -15.553  0.00  0.00     0.084 H 
ATOM     35  H11 SY9 d         -42.485   5.848 -13.702  0.00  0.00     0.037 H 
ATOM     36  H12 SY9 d         -44.199   5.454 -14.065  0.00  0.00     0.037 H 
ATOM     37  H13 SY9 d         -42.653   8.033 -14.757  0.00  0.00     0.076 H 
ATOM     38  H14 SY9 d         -44.198   7.885 -13.852  0.00  0.00     0.076 H 
ATOM     39  H15 SY9 d         -45.338   7.505 -15.776  0.00  0.00     0.280 HD
ATOM     40  H16 SY9 d         -43.942   9.563 -15.922  0.00  0.00     0.083 H 
ATOM     41  H17 SY9 d         -44.664   8.945 -17.447  0.00  0.00     0.083 H 
ATOM     42  H18 SY9 d         -41.947  10.312 -16.181  0.00  0.00     0.080 H 
ATOM     43  H19 SY9 d         -39.804  10.341 -16.883  0.00  0.00     0.080 H 
ATOM     44  H20 SY9 d         -40.330   9.487 -18.372  0.00  0.00     0.080 H 
ATOM     45  H21 SY9 d         -39.463   7.184 -18.650  0.00  0.00     0.084 H 
ATOM     46  H22 SY9 d         -38.393   6.722 -15.914  0.00  0.00     0.043 H 
ATOM     47  H23 SY9 d         -37.863   5.979 -17.462  0.00  0.00     0.043 H 
ATOM     48  H24 SY9 d         -39.611   4.604 -17.418  0.00  0.00     0.117 H 
ENDROOT
BRANCH  24  49
ATOM     49  OAJ SY9 d         -38.578   3.719 -16.281  0.00  0.00    -0.377 OA
ATOM     50  H25 SY9 d         -39.027   3.080 -15.739  0.00  0.00     0.212 HD
ENDBRANCH  24  49
TORSDOF 1
ENDMDL
MODEL 4
REMARK VINA RESULT:      -9.3      1.166      1.575
REMARK  1 active torsions:
REMARK  status: ('A' for Active; 'I' for Inactive)
REMARK    1  A    between atoms: CAI_24  and  OAJ_25 
ROOT
ATOM      1  CAV SY9 d         -41.462   7.253 -17.522  0.00  0.00     0.118 C 
ATOM      2  CAU SY9 d         -40.916   6.317 -18.607  0.00  0.00    -0.030 C 
ATOM      3  CAT SY9 d         -40.252   5.110 -17.961  0.00  0.00    -0.021 C 
ATOM      4  CAN SY9 d         -41.318   4.305 -17.215  0.00  0.00    -0.001 C 
ATOM      5  CAK SY9 d         -42.007   5.118 -16.125  0.00  0.00     0.034 C 
ATOM      6  NAH SY9 d         -43.307   4.459 -15.920  0.00  0.00    -0.347 N 
ATOM      7  CAA SY9 d         -44.372   5.295 -16.244  0.00  0.00     0.040 A 
ATOM      8  CAF SY9 d         -45.731   4.989 -16.329  0.00  0.00    -0.057 A 
ATOM      9  CAE SY9 d         -46.642   5.942 -16.753  0.00  0.00    -0.081 A 
ATOM     10  CAD SY9 d         -46.176   7.195 -17.133  0.00  0.00    -0.082 A 
ATOM     11  CAC SY9 d         -44.816   7.493 -17.081  0.00  0.00    -0.074 A 
ATOM     12  CAB SY9 d         -43.899   6.532 -16.680  0.00  0.00    -0.019 A 
ATOM     13  CAG SY9 d         -42.373   6.576 -16.463  0.00  0.00     0.040 C 
ATOM     14  CAW SY9 d         -42.162   7.469 -15.242  0.00  0.00    -0.027 C 
ATOM     15  CAX SY9 d         -40.646   7.612 -15.280  0.00  0.00     0.085 C 
ATOM     16  NAY SY9 d         -40.331   7.826 -16.719  0.00  0.00    -0.062 N 
ATOM     17  CAS SY9 d         -39.028   7.177 -16.956  0.00  0.00     0.104 C 
ATOM     18  CAR SY9 d         -39.232   5.667 -17.013  0.00  0.00    -0.051 C 
ATOM     19  CAQ SY9 d         -38.446   4.942 -16.134  0.00  0.00    -0.076 C 
ATOM     20  CAP SY9 d         -38.544   3.556 -16.056  0.00  0.00     0.035 C 
ATOM     21  OAO SY9 d         -39.805   2.975 -15.647  0.00  0.00    -0.382 OA
ATOM     22  CAM SY9 d         -40.860   2.958 -16.606  0.00  0.00     0.049 C 
ATOM     23  CAL SY9 d         -41.972   2.323 -15.698  0.00  0.00     0.000 C 
ATOM     24  CAI SY9 d         -43.302   3.076 -15.793  0.00  0.00     0.105 C 
ATOM     25  H1  SY9 d         -42.021   8.059 -18.019  0.00  0.00     0.086 H 
ATOM     26  H2  SY9 d         -40.177   6.857 -19.217  0.00  0.00     0.037 H 
ATOM     27  H3  SY9 d         -41.743   5.979 -19.248  0.00  0.00     0.037 H 
ATOM     28  H4  SY9 d         -39.767   4.476 -18.717  0.00  0.00     0.048 H 
ATOM     29  H5  SY9 d         -42.082   4.060 -17.967  0.00  0.00     0.048 H 
ATOM     30  H6  SY9 d         -41.390   5.098 -15.214  0.00  0.00     0.075 H 
ATOM     31  H7  SY9 d         -46.077   3.998 -16.060  0.00  0.00     0.086 H 
ATOM     32  H8  SY9 d         -47.702   5.715 -16.789  0.00  0.00     0.083 H 
ATOM     33  H9  SY9 d         -46.877   7.948 -17.474  0.00  0.00     0.083 H 
ATOM     34  H10 SY9 d         -44.472   8.483 -17.357  0.00  0.00     0.084 H 
ATOM     35  H11 SY9 d         -42.502   6.983 -14.316  0.00  0.00     0.037 H 
ATOM     36  H12 SY9 d         -42.667   8.440 -15.353  0.00  0.00     0.037 H 
ATOM     37  H13 SY9 d         -40.159   6.700 -14.906  0.00  0.00     0.076 H 
ATOM     38  H14 SY9 d         -40.322   8.475 -14.679  0.00  0.00     0.076 H 
ATOM     39  H15 SY9 d         -40.253   8.810 -16.922  0.00  0.00     0.280 HD
ATOM     40  H16 SY9 d         -38.337   7.425 -16.137  0.00  0.00     0.083 H 
ATOM     41  H17 SY9 d         -38.609   7.528 -17.910  0.00  0.00     0.083 H 
ATOM     42  H18 SY9 d         -37.739   5.466 -15.492  0.00  0.00     0.080 H 
ATOM     43  H19 SY9 d         -37.783   3.217 -15.338  0.00  0.00     0.080 H 
ATOM     44  H20 SY9 d         -38.310   3.157 -17.054  0.00  0.00     0.080 H 
ATOM     45  H21 SY9 d         -40.597   2.291 -17.441  0.00  0.00     0.084 H 
ATOM     46  H22 SY9 d         -41.629   2.343 -14.653  0.00  0.00     0.043 H 
ATOM     47  H23 SY9 d         -42.133   1.282 -16.011  0.00  0.00     0.043 H 
ATOM     48  H24 SY9 d         -43.329   2.941 -16.884  0.00  0.00     0.117 H 
ENDROOT
BRANCH  24  49
ATOM     49  OAJ SY9 d         -44.491   2.430 -15.646  0.00  0.00    -0.377 OA
ATOM     50  H25 SY9 d         -44.690   2.340 -14.721  0.00  0.00     0.212 HD
ENDBRANCH  24  49
TORSDOF 1
ENDMDL
MODEL 5
REMARK VINA RESULT:      -8.4      1.911      2.972
REMARK  1 active torsions:
REMARK  status: ('A' for Active; 'I' for Inactive)
REMARK    1  A    between atoms: CAI_24  and  OAJ_25 
ROOT
ATOM      1  CAV SY9 d         -40.871   7.741 -17.488  0.00  0.00     0.118 C 
ATOM      2  CAU SY9 d         -40.628   6.647 -18.533  0.00  0.00    -0.030 C 
ATOM      3  CAT SY9 d         -40.619   5.283 -17.860  0.00  0.00    -0.021 C 
ATOM      4  CAN SY9 d         -42.012   5.009 -17.289  0.00  0.00    -0.001 C 
ATOM      5  CAK SY9 d         -42.436   6.052 -16.261  0.00  0.00     0.034 C 
ATOM      6  NAH SY9 d         -43.906   6.001 -16.249  0.00  0.00    -0.347 N 
ATOM      7  CAA SY9 d         -44.473   7.201 -16.669  0.00  0.00     0.040 A 
ATOM      8  CAF SY9 d         -45.812   7.492 -16.937  0.00  0.00    -0.057 A 
ATOM      9  CAE SY9 d         -46.178   8.732 -17.433  0.00  0.00    -0.081 A 
ATOM     10  CAD SY9 d         -45.187   9.669 -17.698  0.00  0.00    -0.082 A 
ATOM     11  CAC SY9 d         -43.846   9.370 -17.463  0.00  0.00    -0.074 A 
ATOM     12  CAB SY9 d         -43.475   8.120 -16.990  0.00  0.00    -0.019 A 
ATOM     13  CAG SY9 d         -42.113   7.524 -16.581  0.00  0.00     0.040 C 
ATOM     14  CAW SY9 d         -41.711   8.264 -15.306  0.00  0.00    -0.027 C 
ATOM     15  CAX SY9 d         -40.284   7.759 -15.148  0.00  0.00     0.085 C 
ATOM     16  NAY SY9 d         -39.722   7.800 -16.525  0.00  0.00    -0.062 N 
ATOM     17  CAS SY9 d         -38.789   6.661 -16.623  0.00  0.00     0.104 C 
ATOM     18  CAR SY9 d         -39.595   5.375 -16.769  0.00  0.00    -0.051 C 
ATOM     19  CAQ SY9 d         -39.306   4.401 -15.829  0.00  0.00    -0.076 C 
ATOM     20  CAP SY9 d         -39.982   3.184 -15.822  0.00  0.00     0.035 C 
ATOM     21  OAO SY9 d         -41.413   3.191 -15.600  0.00  0.00    -0.382 OA
ATOM     22  CAM SY9 d         -42.242   3.603 -16.684  0.00  0.00     0.049 C 
ATOM     23  CAL SY9 d         -43.626   3.506 -15.950  0.00  0.00     0.000 C 
ATOM     24  CAI SY9 d         -44.496   4.745 -16.180  0.00  0.00     0.105 C 
ATOM     25  H1  SY9 d         -40.973   8.700 -18.017  0.00  0.00     0.086 H 
ATOM     26  H2  SY9 d         -39.658   6.819 -19.022  0.00  0.00     0.037 H 
ATOM     27  H3  SY9 d         -41.428   6.677 -19.287  0.00  0.00     0.037 H 
ATOM     28  H4  SY9 d         -40.347   4.492 -18.576  0.00  0.00     0.048 H 
ATOM     29  H5  SY9 d         -42.702   5.096 -18.141  0.00  0.00     0.048 H 
ATOM     30  H6  SY9 d         -42.009   5.789 -15.282  0.00  0.00     0.075 H 
ATOM     31  H7  SY9 d         -46.572   6.740 -16.756  0.00  0.00     0.086 H 
ATOM     32  H8  SY9 d         -47.221   8.969 -17.611  0.00  0.00     0.083 H 
ATOM     33  H9  SY9 d         -45.458  10.641 -18.092  0.00  0.00     0.083 H 
ATOM     34  H10 SY9 d         -43.088  10.121 -17.651  0.00  0.00     0.084 H 
ATOM     35  H11 SY9 d         -42.342   7.979 -14.452  0.00  0.00     0.037 H 
ATOM     36  H12 SY9 d         -41.747   9.356 -15.440  0.00  0.00     0.037 H 
ATOM     37  H13 SY9 d         -40.275   6.732 -14.754  0.00  0.00     0.076 H 
ATOM     38  H14 SY9 d         -39.712   8.415 -14.475  0.00  0.00     0.076 H 
ATOM     39  H15 SY9 d         -39.214   8.658 -16.675  0.00  0.00     0.280 HD
ATOM     40  H16 SY9 d         -38.173   6.609 -15.714  0.00  0.00     0.083 H 
ATOM     41  H17 SY9 d         -38.139   6.791 -17.501  0.00  0.00     0.083 H 
ATOM     42  H18 SY9 d         -38.536   4.590 -15.082  0.00  0.00     0.080 H 
ATOM     43  H19 SY9 d         -39.533   2.568 -15.029  0.00  0.00     0.080 H 
ATOM     44  H20 SY9 d         -39.806   2.709 -16.798  0.00  0.00     0.080 H 
ATOM     45  H21 SY9 d         -42.173   2.876 -17.507  0.00  0.00     0.084 H 
ATOM     46  H22 SY9 d         -43.447   3.395 -14.871  0.00  0.00     0.043 H 
ATOM     47  H23 SY9 d         -44.164   2.623 -16.325  0.00  0.00     0.043 H 
ATOM     48  H24 SY9 d         -44.433   4.618 -17.271  0.00  0.00     0.117 H 
ENDROOT
BRANCH  24  49
ATOM     49  OAJ SY9 d         -45.854   4.659 -16.212  0.00  0.00    -0.377 OA
ATOM     50  H25 SY9 d         -46.199   5.318 -16.803  0.00  0.00     0.212 HD
ENDBRANCH  24  49
TORSDOF 1
ENDMDL
MODEL 6
REMARK VINA RESULT:      -8.3      2.209      4.325
REMARK  1 active torsions:
REMARK  status: ('A' for Active; 'I' for Inactive)
REMARK    1  A    between atoms: CAI_24  and  OAJ_25 
ROOT
ATOM      1  CAV SY9 d         -41.070   6.289 -15.949  0.00  0.00     0.118 C 
ATOM      2  CAU SY9 d         -41.707   7.168 -14.866  0.00  0.00    -0.030 C 
ATOM      3  CAT SY9 d         -42.926   7.881 -15.431  0.00  0.00    -0.021 C 
ATOM      4  CAN SY9 d         -43.982   6.835 -15.792  0.00  0.00    -0.001 C 
ATOM      5  CAK SY9 d         -43.483   5.837 -16.831  0.00  0.00     0.034 C 
ATOM      6  NAH SY9 d         -44.322   4.642 -16.646  0.00  0.00    -0.347 N 
ATOM      7  CAA SY9 d         -43.574   3.537 -16.246  0.00  0.00     0.040 A 
ATOM      8  CAF SY9 d         -44.021   2.282 -15.827  0.00  0.00    -0.057 A 
ATOM      9  CAE SY9 d         -43.121   1.328 -15.381  0.00  0.00    -0.081 A 
ATOM     10  CAD SY9 d         -41.772   1.653 -15.319  0.00  0.00    -0.082 A 
ATOM     11  CAC SY9 d         -41.327   2.916 -15.705  0.00  0.00    -0.074 A 
ATOM     12  CAB SY9 d         -42.229   3.882 -16.127  0.00  0.00    -0.019 A 
ATOM     13  CAG SY9 d         -42.043   5.315 -16.667  0.00  0.00     0.040 C 
ATOM     14  CAW SY9 d         -41.382   5.153 -18.034  0.00  0.00    -0.027 C 
ATOM     15  CAX SY9 d         -41.052   6.607 -18.341  0.00  0.00     0.085 C 
ATOM     16  NAY SY9 d         -40.529   7.146 -17.055  0.00  0.00    -0.062 N 
ATOM     17  CAS SY9 d         -40.958   8.556 -16.996  0.00  0.00     0.104 C 
ATOM     18  CAR SY9 d         -42.442   8.607 -16.651  0.00  0.00    -0.051 C 
ATOM     19  CAQ SY9 d         -43.222   9.320 -17.545  0.00  0.00    -0.076 C 
ATOM     20  CAP SY9 d         -44.598   9.428 -17.373  0.00  0.00     0.035 C 
ATOM     21  OAO SY9 d         -45.396   8.220 -17.405  0.00  0.00    -0.382 OA
ATOM     22  CAM SY9 d         -45.356   7.378 -16.256  0.00  0.00     0.049 C 
ATOM     23  CAL SY9 d         -46.283   6.230 -16.792  0.00  0.00     0.000 C 
ATOM     24  CAI SY9 d         -45.692   4.840 -16.543  0.00  0.00     0.105 C 
ATOM     25  H1  SY9 d         -40.257   5.712 -15.484  0.00  0.00     0.086 H 
ATOM     26  H2  SY9 d         -40.974   7.913 -14.522  0.00  0.00     0.037 H 
ATOM     27  H3  SY9 d         -42.013   6.538 -14.018  0.00  0.00     0.037 H 
ATOM     28  H4  SY9 d         -43.339   8.592 -14.700  0.00  0.00     0.048 H 
ATOM     29  H5  SY9 d         -44.169   6.272 -14.866  0.00  0.00     0.048 H 
ATOM     30  H6  SY9 d         -43.603   6.269 -17.835  0.00  0.00     0.075 H 
ATOM     31  H7  SY9 d         -45.080   2.053 -15.850  0.00  0.00     0.086 H 
ATOM     32  H8  SY9 d         -43.464   0.343 -15.086  0.00  0.00     0.083 H 
ATOM     33  H9  SY9 d         -41.058   0.918 -14.966  0.00  0.00     0.083 H 
ATOM     34  H10 SY9 d         -40.268   3.145 -15.674  0.00  0.00     0.084 H 
ATOM     35  H11 SY9 d         -42.075   4.727 -18.775  0.00  0.00     0.037 H 
ATOM     36  H12 SY9 d         -40.477   4.530 -17.979  0.00  0.00     0.037 H 
ATOM     37  H13 SY9 d         -41.953   7.154 -18.655  0.00  0.00     0.076 H 
ATOM     38  H14 SY9 d         -40.288   6.674 -19.129  0.00  0.00     0.076 H 
ATOM     39  H15 SY9 d         -39.522   7.105 -17.038  0.00  0.00     0.280 HD
ATOM     40  H16 SY9 d         -40.790   9.035 -17.972  0.00  0.00     0.083 H 
ATOM     41  H17 SY9 d         -40.381   9.085 -16.223  0.00  0.00     0.083 H 
ATOM     42  H18 SY9 d         -42.749   9.804 -18.399  0.00  0.00     0.080 H 
ATOM     43  H19 SY9 d         -44.974  10.087 -18.170  0.00  0.00     0.080 H 
ATOM     44  H20 SY9 d         -44.767   9.903 -16.396  0.00  0.00     0.080 H 
ATOM     45  H21 SY9 d         -45.813   7.893 -15.397  0.00  0.00     0.084 H 
ATOM     46  H22 SY9 d         -46.423   6.366 -17.875  0.00  0.00     0.043 H 
ATOM     47  H23 SY9 d         -47.257   6.296 -16.285  0.00  0.00     0.043 H 
ATOM     48  H24 SY9 d         -45.618   5.037 -15.464  0.00  0.00     0.117 H 
ENDROOT
BRANCH  24  49
ATOM     49  OAJ SY9 d         -46.494   3.761 -16.327  0.00  0.00    -0.377 OA
ATOM     50  H25 SY9 d         -46.371   3.448 -15.438  0.00  0.00     0.212 HD
ENDBRANCH  24  49
TORSDOF 1
ENDMDL
