MODEL 1
REMARK VINA RESULT:     -10.0      0.000      0.000
REMARK  7 active torsions:
REMARK  status: ('A' for Active; 'I' for Inactive)
REMARK    1  A    between atoms: N12_26  and  C2_2 
REMARK       I    between atoms: C13_5  and  N12_26 
REMARK       I    between atoms: N14_27  and  C13_5 
REMARK    2  A    between atoms: C16_6  and  N14_27 
REMARK    3  A    between atoms: O22_12  and  C19_9 
REMARK    4  A    between atoms: C23_29  and  O22_12 
REMARK    5  A    between atoms: C29_31  and  C27_15 
REMARK    6  A    between atoms: N30_17  and  C31_18 
REMARK       I    between atoms: N30_17  and  C29_31 
REMARK    7  A    between atoms: C6_20  and  C7_21 
ROOT
ATOM      1  C16 BAX d         -21.255  -3.447  19.516  0.00  0.00     0.036 A 
ATOM      2  C17 BAX d         -20.390  -2.508  20.073  0.00  0.00    -0.054 A 
ATOM      3  C18 BAX d         -20.868  -1.478  20.891  0.00  0.00    -0.048 A 
ATOM      4  C19 BAX d         -22.251  -1.366  21.095  0.00  0.00     0.076 A 
ATOM      5  C20 BAX d         -23.121  -2.292  20.544  0.00  0.00    -0.048 A 
ATOM      6  C21 BAX d         -22.633  -3.327  19.758  0.00  0.00    -0.054 A 
ATOM      7  H4  BAX d         -19.328  -2.577  19.869  0.00  0.00     0.087 H 
ATOM      8  H5  BAX d         -20.182  -0.779  21.356  0.00  0.00     0.087 H 
ATOM      9  H6  BAX d         -24.186  -2.208  20.727  0.00  0.00     0.087 H 
ATOM     10  H7  BAX d         -23.320  -4.047  19.328  0.00  0.00     0.087 H 
ENDROOT
BRANCH   1  11
ATOM     11  N14 BAX d         -20.808  -4.453  18.746  0.00  0.00    -0.309 N 
ATOM     12  C13 BAX d         -19.529  -4.854  18.598  0.00  0.00     0.325 C 
ATOM     13  N12 BAX d         -19.349  -5.903  17.766  0.00  0.00    -0.309 N 
ATOM     14  O15 BAX d         -18.592  -4.306  19.205  0.00  0.00    -0.247 OA
ATOM     15  H15 BAX d         -20.163  -6.295  17.338  0.00  0.00     0.170 HD
ATOM     16  H16 BAX d         -21.498  -4.958  18.226  0.00  0.00     0.170 HD
BRANCH  13  17
ATOM     17  C2  BAX d         -18.144  -6.471  17.463  0.00  0.00     0.037 A 
ATOM     18  C1  BAX d         -17.354  -7.106  18.437  0.00  0.00    -0.041 A 
ATOM     19  C6  BAX d         -16.113  -7.676  18.106  0.00  0.00     0.071 A 
ATOM     20  H1  BAX d         -17.708  -7.158  19.460  0.00  0.00     0.088 H 
ATOM     21  C5  BAX d         -15.697  -7.622  16.781  0.00  0.00     0.049 A 
ATOM     22  C4  BAX d         -16.489  -7.017  15.779  0.00  0.00    -0.059 A 
ATOM     23 CL11 BAX d         -14.194  -8.327  16.366  0.00  0.00    -0.083 Cl
ATOM     24  C3  BAX d         -17.702  -6.444  16.139  0.00  0.00    -0.055 A 
ATOM     25  H3  BAX d         -16.155  -7.000  14.748  0.00  0.00     0.086 H 
ATOM     26  H2  BAX d         -18.314  -5.970  15.381  0.00  0.00     0.087 H 
BRANCH  19  27
ATOM     27  C7  BAX d         -15.253  -8.371  19.199  0.00  0.00     0.419 C 
ATOM     28  F8  BAX d         -14.410  -7.491  19.641  0.00  0.00    -0.166 F 
ATOM     29  F9  BAX d         -15.992  -8.802  20.222  0.00  0.00    -0.166 F 
ATOM     30  F10 BAX d         -14.503  -9.367  18.772  0.00  0.00    -0.166 F 
ENDBRANCH  19  27
ENDBRANCH  13  17
ENDBRANCH   1  11
BRANCH   4  31
ATOM     31  O22 BAX d         -22.797  -0.400  21.912  0.00  0.00    -0.311 OA
BRANCH  31  32
ATOM     32  C23 BAX d         -22.466   0.887  21.816  0.00  0.00     0.079 A 
ATOM     33  C24 BAX d         -22.068   1.623  22.922  0.00  0.00    -0.033 A 
ATOM     34  C25 BAX d         -21.712   2.960  22.726  0.00  0.00     0.006 A 
ATOM     35  H8  BAX d         -22.034   1.174  23.909  0.00  0.00     0.090 H 
ATOM     36  N26 BAX d         -21.759   3.487  21.506  0.00  0.00    -0.255 NA
ATOM     37  H9  BAX d         -21.399   3.567  23.568  0.00  0.00     0.114 H 
ATOM     38  C27 BAX d         -22.123   2.791  20.411  0.00  0.00     0.126 A 
ATOM     39  C28 BAX d         -22.479   1.450  20.549  0.00  0.00    -0.017 A 
ATOM     40  H10 BAX d         -22.761   0.861  19.683  0.00  0.00     0.091 H 
BRANCH  38  41
ATOM     41  C29 BAX d         -22.143   3.470  19.030  0.00  0.00     0.269 C 
ATOM     42  N30 BAX d         -21.891   2.665  17.994  0.00  0.00    -0.360 N 
ATOM     43  H11 BAX d         -21.706   1.692  18.132  0.00  0.00     0.162 HD
ATOM     44  O32 BAX d         -22.384   4.669  18.927  0.00  0.00    -0.266 OA
BRANCH  42  45
ATOM     45  C31 BAX d         -21.890   3.251  16.644  0.00  0.00    -0.018 C 
ATOM     46  H12 BAX d         -21.101   4.015  16.576  0.00  0.00     0.056 H 
ATOM     47  H13 BAX d         -22.867   3.715  16.445  0.00  0.00     0.056 H 
ATOM     48  H14 BAX d         -21.702   2.461  15.902  0.00  0.00     0.056 H 
ENDBRANCH  42  45
ENDBRANCH  38  41
ENDBRANCH  31  32
ENDBRANCH   4  31
TORSDOF 7
ENDMDL
MODEL 2
REMARK VINA RESULT:      -9.0      1.729      2.200
REMARK  7 active torsions:
REMARK  status: ('A' for Active; 'I' for Inactive)
REMARK    1  A    between atoms: N12_26  and  C2_2 
REMARK       I    between atoms: C13_5  and  N12_26 
REMARK       I    between atoms: N14_27  and  C13_5 
REMARK    2  A    between atoms: C16_6  and  N14_27 
REMARK    3  A    between atoms: O22_12  and  C19_9 
REMARK    4  A    between atoms: C23_29  and  O22_12 
REMARK    5  A    between atoms: C29_31  and  C27_15 
REMARK    6  A    between atoms: N30_17  and  C31_18 
REMARK       I    between atoms: N30_17  and  C29_31 
REMARK    7  A    between atoms: C6_20  and  C7_21 
ROOT
ATOM      1  C16 BAX d         -21.488  -3.052  19.083  0.00  0.00     0.036 A 
ATOM      2  C17 BAX d         -21.512  -1.761  18.561  0.00  0.00    -0.054 A 
ATOM      3  C18 BAX d         -22.069  -0.698  19.280  0.00  0.00    -0.048 A 
ATOM      4  C19 BAX d         -22.664  -0.963  20.522  0.00  0.00     0.076 A 
ATOM      5  C20 BAX d         -22.649  -2.243  21.050  0.00  0.00    -0.048 A 
ATOM      6  C21 BAX d         -22.067  -3.285  20.341  0.00  0.00    -0.054 A 
ATOM      7  H4  BAX d         -21.092  -1.577  17.579  0.00  0.00     0.087 H 
ATOM      8  H5  BAX d         -22.042   0.311  18.884  0.00  0.00     0.087 H 
ATOM      9  H6  BAX d         -23.092  -2.432  22.022  0.00  0.00     0.087 H 
ATOM     10  H7  BAX d         -22.061  -4.285  20.760  0.00  0.00     0.087 H 
ENDROOT
BRANCH   1  11
ATOM     11  N14 BAX d         -20.938  -4.077  18.412  0.00  0.00    -0.309 N 
ATOM     12  C13 BAX d         -19.684  -4.554  18.544  0.00  0.00     0.325 C 
ATOM     13  N12 BAX d         -19.384  -5.606  17.752  0.00  0.00    -0.309 N 
ATOM     14  O15 BAX d         -18.877  -4.068  19.355  0.00  0.00    -0.247 OA
ATOM     15  H15 BAX d         -20.103  -5.946  17.147  0.00  0.00     0.170 HD
ATOM     16  H16 BAX d         -21.523  -4.536  17.742  0.00  0.00     0.170 HD
BRANCH  13  17
ATOM     17  C2  BAX d         -18.176  -6.244  17.713  0.00  0.00     0.037 A 
ATOM     18  C1  BAX d         -17.489  -6.466  16.506  0.00  0.00    -0.041 A 
ATOM     19  C6  BAX d         -16.253  -7.133  16.487  0.00  0.00     0.071 A 
ATOM     20  H1  BAX d         -17.922  -6.117  15.575  0.00  0.00     0.088 H 
ATOM     21  C5  BAX d         -15.707  -7.542  17.697  0.00  0.00     0.049 A 
ATOM     22  C4  BAX d         -16.363  -7.301  18.925  0.00  0.00    -0.059 A 
ATOM     23 CL11 BAX d         -14.194  -8.340  17.685  0.00  0.00    -0.083 Cl
ATOM     24  C3  BAX d         -17.594  -6.658  18.912  0.00  0.00    -0.055 A 
ATOM     25  H3  BAX d         -15.914  -7.613  19.861  0.00  0.00     0.086 H 
ATOM     26  H2  BAX d         -18.111  -6.474  19.847  0.00  0.00     0.087 H 
BRANCH  19  27
ATOM     27  C7  BAX d         -15.513  -7.371  15.140  0.00  0.00     0.419 C 
ATOM     28  F8  BAX d         -15.508  -8.650  14.926  0.00  0.00    -0.166 F 
ATOM     29  F9  BAX d         -16.122  -6.772  14.117  0.00  0.00    -0.166 F 
ATOM     30  F10 BAX d         -14.240  -7.028  15.133  0.00  0.00    -0.166 F 
ENDBRANCH  19  27
ENDBRANCH  13  17
ENDBRANCH   1  11
BRANCH   4  31
ATOM     31  O22 BAX d         -23.204   0.033  21.305  0.00  0.00    -0.311 OA
BRANCH  31  32
ATOM     32  C23 BAX d         -22.606   1.211  21.478  0.00  0.00     0.079 A 
ATOM     33  C24 BAX d         -22.105   1.601  22.711  0.00  0.00    -0.033 A 
ATOM     34  C25 BAX d         -21.467   2.841  22.796  0.00  0.00     0.006 A 
ATOM     35  H8  BAX d         -22.206   0.963  23.582  0.00  0.00     0.090 H 
ATOM     36  N26 BAX d         -21.352   3.605  21.713  0.00  0.00    -0.255 NA
ATOM     37  H9  BAX d         -21.066   3.181  23.744  0.00  0.00     0.114 H 
ATOM     38  C27 BAX d         -21.812   3.242  20.499  0.00  0.00     0.126 A 
ATOM     39  C28 BAX d         -22.449   2.011  20.356  0.00  0.00    -0.017 A 
ATOM     40  H10 BAX d         -22.814   1.686  19.388  0.00  0.00     0.091 H 
BRANCH  38  41
ATOM     41  C29 BAX d         -21.633   4.178  19.290  0.00  0.00     0.269 C 
ATOM     42  N30 BAX d         -22.656   4.202  18.431  0.00  0.00    -0.360 N 
ATOM     43  H11 BAX d         -23.472   3.645  18.587  0.00  0.00     0.162 HD
ATOM     44  O32 BAX d         -20.610   4.843  19.160  0.00  0.00    -0.266 OA
BRANCH  42  45
ATOM     45  C31 BAX d         -22.549   5.073  17.250  0.00  0.00    -0.018 C 
ATOM     46  H12 BAX d         -23.555   5.276  16.852  0.00  0.00     0.056 H 
ATOM     47  H13 BAX d         -21.946   4.572  16.478  0.00  0.00     0.056 H 
ATOM     48  H14 BAX d         -22.068   6.020  17.534  0.00  0.00     0.056 H 
ENDBRANCH  42  45
ENDBRANCH  38  41
ENDBRANCH  31  32
ENDBRANCH   4  31
TORSDOF 7
ENDMDL
