MODEL 1
REMARK VINA RESULT:      -9.1      0.000      0.000
REMARK  7 active torsions:
REMARK  status: ('A' for Active; 'I' for Inactive)
REMARK    1  A    between atoms: C8_6  and  C7_7 
REMARK       I    between atoms: C7_7  and  N1_9 
REMARK    2  A    between atoms: N1_9  and  C1_10 
REMARK    3  A    between atoms: C5_12  and  C6_13 
REMARK    4  A    between atoms: C6_13  and  O6_14 
REMARK    5  A    between atoms: C4_15  and  O4_16 
REMARK    6  A    between atoms: C3_17  and  O3_18 
REMARK    7  A    between atoms: C2_19  and  O2_20 
ROOT
ATOM      1  C1  OAK d          33.838  22.643  27.876  0.00  0.00     0.134 C 
ATOM      2  O5  OAK d          33.563  21.227  28.154  0.00  0.00    -0.354 OA
ATOM      3  C5  OAK d          32.382  20.756  27.499  0.00  0.00     0.088 C 
ATOM      4  C4  OAK d          32.557  20.911  25.967  0.00  0.00     0.089 C 
ATOM      5  C3  OAK d          32.867  22.365  25.574  0.00  0.00     0.091 C 
ATOM      6  C2  OAK d          34.064  22.902  26.377  0.00  0.00     0.104 C 
ATOM      7  H7  OAK d          32.976  23.239  28.209  0.00  0.00     0.122 H 
ATOM      8  H8  OAK d          31.512  21.350  27.815  0.00  0.00     0.090 H 
ATOM      9  H12 OAK d          33.391  20.272  25.641  0.00  0.00     0.091 H 
ATOM     10  H14 OAK d          31.987  22.987  25.791  0.00  0.00     0.091 H 
ATOM     11  H16 OAK d          34.968  22.361  26.059  0.00  0.00     0.093 H 
ENDROOT
BRANCH   1  12
ATOM     12  N1  OAK d          35.045  23.071  28.632  0.00  0.00    -0.328 N 
ATOM     13  C7  OAK d          34.911  23.877  29.683  0.00  0.00     0.253 C 
ATOM     14  O7  OAK d          33.832  24.302  30.089  0.00  0.00    -0.268 OA
ATOM     15  H6  OAK d          35.952  22.755  28.352  0.00  0.00     0.165 HD
BRANCH  13  16
ATOM     16  C8  OAK d          36.213  24.256  30.398  0.00  0.00     0.032 A 
ATOM     17  C9  OAK d          37.233  23.320  30.540  0.00  0.00    -0.068 A 
ATOM     18  C10 OAK d          38.414  23.660  31.196  0.00  0.00    -0.082 A 
ATOM     19  H1  OAK d          37.109  22.322  30.138  0.00  0.00     0.085 H 
ATOM     20  C11 OAK d          38.583  24.941  31.715  0.00  0.00    -0.083 A 
ATOM     21  H2  OAK d          39.204  22.925  31.303  0.00  0.00     0.083 H 
ATOM     22  C12 OAK d          37.561  25.883  31.577  0.00  0.00    -0.082 A 
ATOM     23  H3  OAK d          39.502  25.206  32.225  0.00  0.00     0.083 H 
ATOM     24  C13 OAK d          36.375  25.541  30.917  0.00  0.00    -0.068 A 
ATOM     25  H4  OAK d          37.688  26.881  31.981  0.00  0.00     0.083 H 
ATOM     26  H5  OAK d          35.583  26.273  30.810  0.00  0.00     0.085 H 
ENDBRANCH  13  16
ENDBRANCH   1  12
BRANCH   6  27
ATOM     27  O2  OAK d          34.266  24.304  26.132  0.00  0.00    -0.389 OA
ATOM     28  H17 OAK d          33.454  24.771  26.288  0.00  0.00     0.210 HD
ENDBRANCH   6  27
BRANCH   3  29
ATOM     29  C6  OAK d          32.189  19.296  27.952  0.00  0.00     0.043 C 
ATOM     30  H9  OAK d          32.310  19.233  29.043  0.00  0.00     0.078 H 
ATOM     31  H10 OAK d          32.941  18.659  27.462  0.00  0.00     0.078 H 
BRANCH  29  32
ATOM     32  O6  OAK d          30.881  18.848  27.592  0.00  0.00    -0.398 OA
ATOM     33  H11 OAK d          30.938  17.980  27.211  0.00  0.00     0.209 HD
ENDBRANCH  29  32
ENDBRANCH   3  29
BRANCH   5  34
ATOM     34  O3  OAK d          33.155  22.436  24.177  0.00  0.00    -0.390 OA
ATOM     35  H15 OAK d          32.510  21.931  23.696  0.00  0.00     0.210 HD
ENDBRANCH   5  34
BRANCH   4  36
ATOM     36  O4  OAK d          31.367  20.493  25.316  0.00  0.00    -0.390 OA
ATOM     37  H13 OAK d          31.172  19.595  25.560  0.00  0.00     0.210 HD
ENDBRANCH   4  36
TORSDOF 7
ENDMDL
MODEL 2
REMARK VINA RESULT:      -8.5      1.824      2.871
REMARK  7 active torsions:
REMARK  status: ('A' for Active; 'I' for Inactive)
REMARK    1  A    between atoms: C8_6  and  C7_7 
REMARK       I    between atoms: C7_7  and  N1_9 
REMARK    2  A    between atoms: N1_9  and  C1_10 
REMARK    3  A    between atoms: C5_12  and  C6_13 
REMARK    4  A    between atoms: C6_13  and  O6_14 
REMARK    5  A    between atoms: C4_15  and  O4_16 
REMARK    6  A    between atoms: C3_17  and  O3_18 
REMARK    7  A    between atoms: C2_19  and  O2_20 
ROOT
ATOM      1  C1  OAK d          33.107  23.276  28.682  0.00  0.00     0.134 C 
ATOM      2  O5  OAK d          33.586  22.663  27.435  0.00  0.00    -0.354 OA
ATOM      3  C5  OAK d          32.521  22.341  26.536  0.00  0.00     0.088 C 
ATOM      4  C4  OAK d          31.763  23.639  26.163  0.00  0.00     0.089 C 
ATOM      5  C3  OAK d          31.234  24.368  27.409  0.00  0.00     0.091 C 
ATOM      6  C2  OAK d          32.366  24.599  28.425  0.00  0.00     0.104 C 
ATOM      7  H7  OAK d          32.416  22.576  29.173  0.00  0.00     0.122 H 
ATOM      8  H8  OAK d          31.816  21.648  27.018  0.00  0.00     0.090 H 
ATOM      9  H12 OAK d          32.453  24.309  25.629  0.00  0.00     0.091 H 
ATOM     10  H14 OAK d          30.457  23.749  27.880  0.00  0.00     0.091 H 
ATOM     11  H16 OAK d          33.076  25.323  27.998  0.00  0.00     0.093 H 
ENDROOT
BRANCH   1  12
ATOM     12  N1  OAK d          34.262  23.531  29.583  0.00  0.00    -0.328 N 
ATOM     13  C7  OAK d          35.385  24.043  29.085  0.00  0.00     0.253 C 
ATOM     14  O7  OAK d          35.541  24.332  27.900  0.00  0.00    -0.268 OA
ATOM     15  H6  OAK d          34.195  23.320  30.559  0.00  0.00     0.165 HD
BRANCH  13  16
ATOM     16  C8  OAK d          36.515  24.275  30.095  0.00  0.00     0.032 A 
ATOM     17  C9  OAK d          36.612  25.486  30.772  0.00  0.00    -0.068 A 
ATOM     18  C10 OAK d          37.642  25.702  31.685  0.00  0.00    -0.082 A 
ATOM     19  H1  OAK d          35.882  26.267  30.588  0.00  0.00     0.085 H 
ATOM     20  C11 OAK d          38.582  24.705  31.928  0.00  0.00    -0.083 A 
ATOM     21  H2  OAK d          37.711  26.650  32.208  0.00  0.00     0.083 H 
ATOM     22  C12 OAK d          38.490  23.487  31.249  0.00  0.00    -0.082 A 
ATOM     23  H3  OAK d          39.383  24.872  32.639  0.00  0.00     0.083 H 
ATOM     24  C13 OAK d          37.455  23.272  30.332  0.00  0.00    -0.068 A 
ATOM     25  H4  OAK d          39.221  22.709  31.434  0.00  0.00     0.083 H 
ATOM     26  H5  OAK d          37.384  22.327  29.806  0.00  0.00     0.085 H 
ENDBRANCH  13  16
ENDBRANCH   1  12
BRANCH   6  27
ATOM     27  O2  OAK d          31.856  25.138  29.656  0.00  0.00    -0.389 OA
ATOM     28  H17 OAK d          30.990  24.786  29.820  0.00  0.00     0.210 HD
ENDBRANCH   6  27
BRANCH   3  29
ATOM     29  C6  OAK d          33.172  21.639  25.329  0.00  0.00     0.043 C 
ATOM     30  H9  OAK d          32.615  20.721  25.096  0.00  0.00     0.078 H 
ATOM     31  H10 OAK d          34.215  21.384  25.572  0.00  0.00     0.078 H 
BRANCH  29  32
ATOM     32  O6  OAK d          33.149  22.509  24.195  0.00  0.00    -0.398 OA
ATOM     33  H11 OAK d          32.259  22.804  24.041  0.00  0.00     0.209 HD
ENDBRANCH  29  32
ENDBRANCH   3  29
BRANCH   5  34
ATOM     34  O3  OAK d          30.666  25.622  27.030  0.00  0.00    -0.390 OA
ATOM     35  H15 OAK d          31.197  26.015  26.349  0.00  0.00     0.210 HD
ENDBRANCH   5  34
BRANCH   4  36
ATOM     36  O4  OAK d          30.674  23.316  25.311  0.00  0.00    -0.390 OA
ATOM     37  H13 OAK d          30.869  22.515  24.839  0.00  0.00     0.210 HD
ENDBRANCH   4  36
TORSDOF 7
ENDMDL
MODEL 3
REMARK VINA RESULT:      -7.6      2.285      7.143
REMARK  7 active torsions:
REMARK  status: ('A' for Active; 'I' for Inactive)
REMARK    1  A    between atoms: C8_6  and  C7_7 
REMARK       I    between atoms: C7_7  and  N1_9 
REMARK    2  A    between atoms: N1_9  and  C1_10 
REMARK    3  A    between atoms: C5_12  and  C6_13 
REMARK    4  A    between atoms: C6_13  and  O6_14 
REMARK    5  A    between atoms: C4_15  and  O4_16 
REMARK    6  A    between atoms: C3_17  and  O3_18 
REMARK    7  A    between atoms: C2_19  and  O2_20 
ROOT
ATOM      1  C1  OAK d          35.132  24.077  29.595  0.00  0.00     0.134 C 
ATOM      2  O5  OAK d          36.374  23.468  30.093  0.00  0.00    -0.354 OA
ATOM      3  C5  OAK d          37.320  24.440  30.547  0.00  0.00     0.088 C 
ATOM      4  C4  OAK d          36.694  25.251  31.709  0.00  0.00     0.089 C 
ATOM      5  C3  OAK d          35.372  25.917  31.291  0.00  0.00     0.091 C 
ATOM      6  C2  OAK d          34.409  24.881  30.689  0.00  0.00     0.104 C 
ATOM      7  H7  OAK d          35.382  24.756  28.768  0.00  0.00     0.122 H 
ATOM      8  H8  OAK d          37.572  25.133  29.730  0.00  0.00     0.090 H 
ATOM      9  H12 OAK d          36.495  24.569  32.548  0.00  0.00     0.091 H 
ATOM     10  H14 OAK d          35.585  26.686  30.534  0.00  0.00     0.091 H 
ATOM     11  H16 OAK d          34.096  24.190  31.485  0.00  0.00     0.093 H 
ENDROOT
BRANCH   1  12
ATOM     12  N1  OAK d          34.225  23.011  29.093  0.00  0.00    -0.328 N 
ATOM     13  C7  OAK d          33.546  23.204  27.965  0.00  0.00     0.253 C 
ATOM     14  O7  OAK d          33.618  24.225  27.286  0.00  0.00    -0.268 OA
ATOM     15  H6  OAK d          34.127  22.155  29.600  0.00  0.00     0.165 HD
BRANCH  13  16
ATOM     16  C8  OAK d          32.643  22.044  27.528  0.00  0.00     0.032 A 
ATOM     17  C9  OAK d          31.528  22.286  26.733  0.00  0.00    -0.068 A 
ATOM     18  C10 OAK d          30.701  21.234  26.340  0.00  0.00    -0.082 A 
ATOM     19  H1  OAK d          31.299  23.297  26.417  0.00  0.00     0.085 H 
ATOM     20  C11 OAK d          30.988  19.932  26.740  0.00  0.00    -0.083 A 
ATOM     21  H2  OAK d          29.833  21.431  25.721  0.00  0.00     0.083 H 
ATOM     22  C12 OAK d          32.106  19.684  27.540  0.00  0.00    -0.082 A 
ATOM     23  H3  OAK d          30.346  19.114  26.433  0.00  0.00     0.083 H 
ATOM     24  C13 OAK d          32.935  20.741  27.934  0.00  0.00    -0.068 A 
ATOM     25  H4  OAK d          32.332  18.672  27.855  0.00  0.00     0.083 H 
ATOM     26  H5  OAK d          33.803  20.548  28.554  0.00  0.00     0.085 H 
ENDBRANCH  13  16
ENDBRANCH   1  12
BRANCH   6  27
ATOM     27  O2  OAK d          33.234  25.514  30.153  0.00  0.00    -0.389 OA
ATOM     28  H17 OAK d          32.797  24.917  29.559  0.00  0.00     0.210 HD
ENDBRANCH   6  27
BRANCH   3  29
ATOM     29  C6  OAK d          38.583  23.658  30.953  0.00  0.00     0.043 C 
ATOM     30  H9  OAK d          39.470  24.287  30.794  0.00  0.00     0.078 H 
ATOM     31  H10 OAK d          38.664  22.749  30.338  0.00  0.00     0.078 H 
BRANCH  29  32
ATOM     32  O6  OAK d          38.501  23.291  32.332  0.00  0.00    -0.398 OA
ATOM     33  H11 OAK d          38.898  22.437  32.456  0.00  0.00     0.209 HD
ENDBRANCH  29  32
ENDBRANCH   3  29
BRANCH   5  34
ATOM     34  O3  OAK d          34.764  26.536  32.425  0.00  0.00    -0.390 OA
ATOM     35  H15 OAK d          35.430  26.722  33.077  0.00  0.00     0.210 HD
ENDBRANCH   5  34
BRANCH   4  36
ATOM     36  O4  OAK d          37.611  26.251  32.128  0.00  0.00    -0.390 OA
ATOM     37  H13 OAK d          38.173  26.490  31.401  0.00  0.00     0.210 HD
ENDBRANCH   4  36
TORSDOF 7
ENDMDL
MODEL 4
REMARK VINA RESULT:      -7.0      1.652      2.919
REMARK  7 active torsions:
REMARK  status: ('A' for Active; 'I' for Inactive)
REMARK    1  A    between atoms: C8_6  and  C7_7 
REMARK       I    between atoms: C7_7  and  N1_9 
REMARK    2  A    between atoms: N1_9  and  C1_10 
REMARK    3  A    between atoms: C5_12  and  C6_13 
REMARK    4  A    between atoms: C6_13  and  O6_14 
REMARK    5  A    between atoms: C4_15  and  O4_16 
REMARK    6  A    between atoms: C3_17  and  O3_18 
REMARK    7  A    between atoms: C2_19  and  O2_20 
ROOT
ATOM      1  C1  OAK d          34.202  23.301  27.362  0.00  0.00     0.134 C 
ATOM      2  O5  OAK d          33.216  24.379  27.521  0.00  0.00    -0.354 OA
ATOM      3  C5  OAK d          32.118  24.260  26.612  0.00  0.00     0.088 C 
ATOM      4  C4  OAK d          31.392  22.915  26.868  0.00  0.00     0.089 C 
ATOM      5  C3  OAK d          32.349  21.718  26.742  0.00  0.00     0.091 C 
ATOM      6  C2  OAK d          33.588  21.916  27.632  0.00  0.00     0.104 C 
ATOM      7  H7  OAK d          34.580  23.322  26.330  0.00  0.00     0.122 H 
ATOM      8  H8  OAK d          32.484  24.269  25.574  0.00  0.00     0.090 H 
ATOM      9  H12 OAK d          30.976  22.928  27.887  0.00  0.00     0.091 H 
ATOM     10  H14 OAK d          32.674  21.633  25.695  0.00  0.00     0.091 H 
ATOM     11  H16 OAK d          33.272  21.871  28.685  0.00  0.00     0.093 H 
ENDROOT
BRANCH   1  12
ATOM     12  N1  OAK d          35.334  23.523  28.299  0.00  0.00    -0.328 N 
ATOM     13  C7  OAK d          35.118  24.147  29.455  0.00  0.00     0.253 C 
ATOM     14  O7  OAK d          34.020  24.562  29.816  0.00  0.00    -0.268 OA
ATOM     15  H6  OAK d          36.252  23.204  28.063  0.00  0.00     0.165 HD
BRANCH  13  16
ATOM     16  C8  OAK d          36.348  24.322  30.354  0.00  0.00     0.032 A 
ATOM     17  C9  OAK d          37.263  23.285  30.500  0.00  0.00    -0.068 A 
ATOM     18  C10 OAK d          38.377  23.439  31.323  0.00  0.00    -0.082 A 
ATOM     19  H1  OAK d          37.109  22.351  29.972  0.00  0.00     0.085 H 
ATOM     20  C11 OAK d          38.583  24.635  32.005  0.00  0.00    -0.083 A 
ATOM     21  H2  OAK d          39.085  22.626  31.432  0.00  0.00     0.083 H 
ATOM     22  C12 OAK d          37.666  25.679  31.863  0.00  0.00    -0.082 A 
ATOM     23  H3  OAK d          39.450  24.756  32.644  0.00  0.00     0.083 H 
ATOM     24  C13 OAK d          36.547  25.523  31.036  0.00  0.00    -0.068 A 
ATOM     25  H4  OAK d          37.822  26.612  32.393  0.00  0.00     0.083 H 
ATOM     26  H5  OAK d          35.836  26.334  30.926  0.00  0.00     0.085 H 
ENDBRANCH  13  16
ENDBRANCH   1  12
BRANCH   6  27
ATOM     27  O2  OAK d          34.560  20.882  27.406  0.00  0.00    -0.389 OA
ATOM     28  H17 OAK d          35.370  21.109  27.846  0.00  0.00     0.210 HD
ENDBRANCH   6  27
BRANCH   3  29
ATOM     29  C6  OAK d          31.228  25.495  26.845  0.00  0.00     0.043 C 
ATOM     30  H9  OAK d          30.297  25.186  27.343  0.00  0.00     0.078 H 
ATOM     31  H10 OAK d          30.988  25.961  25.878  0.00  0.00     0.078 H 
BRANCH  29  32
ATOM     32  O6  OAK d          31.917  26.438  27.669  0.00  0.00    -0.398 OA
ATOM     33  H11 OAK d          32.523  26.939  27.136  0.00  0.00     0.209 HD
ENDBRANCH  29  32
ENDBRANCH   3  29
BRANCH   5  34
ATOM     34  O3  OAK d          31.673  20.519  27.119  0.00  0.00    -0.390 OA
ATOM     35  H15 OAK d          31.004  20.723  27.761  0.00  0.00     0.210 HD
ENDBRANCH   5  34
BRANCH   4  36
ATOM     36  O4  OAK d          30.333  22.770  25.934  0.00  0.00    -0.390 OA
ATOM     37  H13 OAK d          29.684  23.448  26.083  0.00  0.00     0.210 HD
ENDBRANCH   4  36
TORSDOF 7
ENDMDL
