MODEL 1
REMARK VINA RESULT:      -6.1      0.000      0.000
REMARK  8 active torsions:
REMARK  status: ('A' for Active; 'I' for Inactive)
REMARK    1  A    between atoms: C1_1  and  O7_7 
REMARK    2  A    between atoms: C2_2  and  O16_14 
REMARK    3  A    between atoms: C14_12  and  C4_4 
REMARK    4  A    between atoms: C10_9  and  C9_8 
REMARK    5  A    between atoms: N3_15  and  C10_9 
REMARK    6  A    between atoms: C12_10  and  C13_11 
REMARK    7  A    between atoms: N3_15  and  C12_10 
REMARK       I    between atoms: C14_12  and  N3_15 
REMARK    8  A    between atoms: O16_14  and  C15_16 
ROOT
ATOM      1  C14 MOL d          64.635  35.449  24.190  0.00  0.00     0.253 C 
ATOM      2  O15 MOL d          64.212  34.967  23.164  0.00  0.00    -0.267 OA
ATOM      3  N3  MOL d          65.133  36.719  24.262  0.00  0.00    -0.349 N 
ENDROOT
BRANCH   1   4
ATOM      4  C4  MOL d          64.679  34.622  25.430  0.00  0.00     0.035 A 
ATOM      5  C3  MOL d          65.904  34.195  25.922  0.00  0.00    -0.033 A 
ATOM      6  C2  MOL d          65.990  33.412  27.051  0.00  0.00     0.102 A 
ATOM      7  H1  MOL d          66.813  34.484  25.406  0.00  0.00     0.089 H 
ATOM      8  C1  MOL d          64.822  33.057  27.733  0.00  0.00     0.099 A 
ATOM      9  C6  MOL d          63.578  33.486  27.246  0.00  0.00    -0.047 A 
ATOM     10  C5  MOL d          63.507  34.263  26.105  0.00  0.00    -0.065 A 
ATOM     11  H3  MOL d          62.668  33.206  27.767  0.00  0.00     0.087 H 
ATOM     12  H2  MOL d          62.545  34.594  25.733  0.00  0.00     0.085 H 
BRANCH   6  13
ATOM     13  O16 MOL d          67.174  32.969  27.579  0.00  0.00    -0.353 OA
BRANCH  13  14
ATOM     14  C15 MOL d          68.394  33.596  27.101  0.00  0.00     0.010 C 
ATOM     15  H15 MOL d          68.290  33.830  26.031  0.00  0.00     0.066 H 
ATOM     16  H16 MOL d          69.240  32.909  27.245  0.00  0.00     0.066 H 
ATOM     17  H17 MOL d          68.574  34.524  27.663  0.00  0.00     0.066 H 
ENDBRANCH  13  14
ENDBRANCH   6  13
BRANCH   8  18
ATOM     18  O7  MOL d          64.909  32.307  28.868  0.00  0.00    -0.358 OA
ATOM     19  H4  MOL d          64.219  31.654  28.868  0.00  0.00     0.217 HD
ENDBRANCH   8  18
ENDBRANCH   1   4
BRANCH   3  20
ATOM     20  C10 MOL d          65.268  37.413  25.559  0.00  0.00    -0.005 C 
ATOM     21  H8  MOL d          64.495  37.034  26.243  0.00  0.00     0.063 H 
ATOM     22  H9  MOL d          66.263  37.196  25.973  0.00  0.00     0.063 H 
BRANCH  20  23
ATOM     23  C9  MOL d          65.111  38.912  25.430  0.00  0.00    -0.061 C 
ATOM     24  H5  MOL d          65.661  39.409  26.243  0.00  0.00     0.029 H 
ATOM     25  H6  MOL d          64.045  39.175  25.494  0.00  0.00     0.029 H 
ATOM     26  H7  MOL d          65.512  39.240  24.461  0.00  0.00     0.029 H 
ENDBRANCH  20  23
ENDBRANCH   3  20
BRANCH   3  27
ATOM     27  C12 MOL d          65.360  37.534  23.069  0.00  0.00    -0.005 C 
ATOM     28  H10 MOL d          64.717  37.163  22.257  0.00  0.00     0.063 H 
ATOM     29  H11 MOL d          65.099  38.579  23.296  0.00  0.00     0.063 H 
BRANCH  27  30
ATOM     30  C13 MOL d          66.808  37.477  22.615  0.00  0.00    -0.061 C 
ATOM     31  H12 MOL d          67.422  38.110  23.270  0.00  0.00     0.029 H 
ATOM     32  H13 MOL d          66.881  37.841  21.579  0.00  0.00     0.029 H 
ATOM     33  H14 MOL d          67.167  36.439  22.665  0.00  0.00     0.029 H 
ENDBRANCH  27  30
ENDBRANCH   3  27
TORSDOF 8
ENDMDL
MODEL 2
REMARK VINA RESULT:      -5.6      2.784      5.219
REMARK  8 active torsions:
REMARK  status: ('A' for Active; 'I' for Inactive)
REMARK    1  A    between atoms: C1_1  and  O7_7 
REMARK    2  A    between atoms: C2_2  and  O16_14 
REMARK    3  A    between atoms: C14_12  and  C4_4 
REMARK    4  A    between atoms: C10_9  and  C9_8 
REMARK    5  A    between atoms: N3_15  and  C10_9 
REMARK    6  A    between atoms: C12_10  and  C13_11 
REMARK    7  A    between atoms: N3_15  and  C12_10 
REMARK       I    between atoms: C14_12  and  N3_15 
REMARK    8  A    between atoms: O16_14  and  C15_16 
ROOT
ATOM      1  C14 MOL d          64.403  34.524  26.234  0.00  0.00     0.253 C 
ATOM      2  O15 MOL d          63.246  34.624  25.894  0.00  0.00    -0.267 OA
ATOM      3  N3  MOL d          64.845  33.550  27.083  0.00  0.00    -0.349 N 
ENDROOT
BRANCH   1   4
ATOM      4  C4  MOL d          65.399  35.529  25.764  0.00  0.00     0.035 A 
ATOM      5  C3  MOL d          65.964  36.408  26.676  0.00  0.00    -0.033 A 
ATOM      6  C2  MOL d          66.870  37.366  26.283  0.00  0.00     0.102 A 
ATOM      7  H1  MOL d          65.685  36.339  27.722  0.00  0.00     0.089 H 
ATOM      8  C1  MOL d          67.251  37.444  24.940  0.00  0.00     0.099 A 
ATOM      9  C6  MOL d          66.689  36.559  24.008  0.00  0.00    -0.047 A 
ATOM     10  C5  MOL d          65.771  35.608  24.417  0.00  0.00    -0.065 A 
ATOM     11  H3  MOL d          66.974  36.620  22.964  0.00  0.00     0.087 H 
ATOM     12  H2  MOL d          65.341  34.924  23.695  0.00  0.00     0.085 H 
BRANCH   6  13
ATOM     13  O16 MOL d          67.459  38.254  27.146  0.00  0.00    -0.353 OA
BRANCH  13  14
ATOM     14  C15 MOL d          68.508  37.746  28.012  0.00  0.00     0.010 C 
ATOM     15  H15 MOL d          69.076  36.968  27.482  0.00  0.00     0.066 H 
ATOM     16  H16 MOL d          68.057  37.317  28.919  0.00  0.00     0.066 H 
ATOM     17  H17 MOL d          69.184  38.567  28.291  0.00  0.00     0.066 H 
ENDBRANCH  13  14
ENDBRANCH   6  13
BRANCH   8  18
ATOM     18  O7  MOL d          68.171  38.374  24.555  0.00  0.00    -0.358 OA
ATOM     19  H4  MOL d          67.756  39.226  24.503  0.00  0.00     0.217 HD
ENDBRANCH   8  18
ENDBRANCH   1   4
BRANCH   3  20
ATOM     20  C10 MOL d          66.279  33.205  27.168  0.00  0.00    -0.005 C 
ATOM     21  H8  MOL d          66.870  34.069  26.832  0.00  0.00     0.063 H 
ATOM     22  H9  MOL d          66.525  32.976  28.215  0.00  0.00     0.063 H 
BRANCH  20  23
ATOM     23  C9  MOL d          66.636  32.010  26.313  0.00  0.00    -0.061 C 
ATOM     24  H5  MOL d          67.327  32.323  25.515  0.00  0.00     0.029 H 
ATOM     25  H6  MOL d          65.722  31.595  25.863  0.00  0.00     0.029 H 
ATOM     26  H7  MOL d          67.118  31.243  26.936  0.00  0.00     0.029 H 
ENDBRANCH  20  23
ENDBRANCH   3  20
BRANCH   3  27
ATOM     27  C12 MOL d          63.925  32.660  27.791  0.00  0.00    -0.005 C 
ATOM     28  H10 MOL d          62.945  33.151  27.870  0.00  0.00     0.063 H 
ATOM     29  H11 MOL d          63.823  31.725  27.218  0.00  0.00     0.063 H 
BRANCH  27  30
ATOM     30  C13 MOL d          64.424  32.330  29.186  0.00  0.00    -0.061 C 
ATOM     31  H12 MOL d          65.503  32.531  29.247  0.00  0.00     0.029 H 
ATOM     32  H13 MOL d          64.237  31.267  29.400  0.00  0.00     0.029 H 
ATOM     33  H14 MOL d          63.892  32.951  29.922  0.00  0.00     0.029 H 
ENDBRANCH  27  30
ENDBRANCH   3  27
TORSDOF 8
ENDMDL
MODEL 3
REMARK VINA RESULT:      -5.5      0.852      2.246
REMARK  8 active torsions:
REMARK  status: ('A' for Active; 'I' for Inactive)
REMARK    1  A    between atoms: C1_1  and  O7_7 
REMARK    2  A    between atoms: C2_2  and  O16_14 
REMARK    3  A    between atoms: C14_12  and  C4_4 
REMARK    4  A    between atoms: C10_9  and  C9_8 
REMARK    5  A    between atoms: N3_15  and  C10_9 
REMARK    6  A    between atoms: C12_10  and  C13_11 
REMARK    7  A    between atoms: N3_15  and  C12_10 
REMARK       I    between atoms: C14_12  and  N3_15 
REMARK    8  A    between atoms: O16_14  and  C15_16 
ROOT
ATOM      1  C14 MOL d          64.719  35.424  24.225  0.00  0.00     0.253 C 
ATOM      2  O15 MOL d          63.956  34.996  23.389  0.00  0.00    -0.267 OA
ATOM      3  N3  MOL d          65.329  36.642  24.119  0.00  0.00    -0.349 N 
ENDROOT
BRANCH   1   4
ATOM      4  C4  MOL d          65.071  34.580  25.403  0.00  0.00     0.035 A 
ATOM      5  C3  MOL d          64.078  34.207  26.296  0.00  0.00    -0.033 A 
ATOM      6  C2  MOL d          64.361  33.447  27.408  0.00  0.00     0.102 A 
ATOM      7  H1  MOL d          63.056  34.520  26.114  0.00  0.00     0.089 H 
ATOM      8  C1  MOL d          65.674  33.020  27.634  0.00  0.00     0.099 A 
ATOM      9  C6  MOL d          66.687  33.389  26.736  0.00  0.00    -0.047 A 
ATOM     10  C5  MOL d          66.387  34.161  25.629  0.00  0.00    -0.065 A 
ATOM     11  H3  MOL d          67.707  33.068  26.910  0.00  0.00     0.087 H 
ATOM     12  H2  MOL d          67.172  34.443  24.936  0.00  0.00     0.085 H 
BRANCH   6  13
ATOM     13  O16 MOL d          63.416  33.049  28.317  0.00  0.00    -0.353 OA
BRANCH  13  14
ATOM     14  C15 MOL d          62.470  32.032  27.892  0.00  0.00     0.010 C 
ATOM     15  H15 MOL d          61.493  32.221  28.362  0.00  0.00     0.066 H 
ATOM     16  H16 MOL d          62.837  31.041  28.195  0.00  0.00     0.066 H 
ATOM     17  H17 MOL d          62.362  32.065  26.798  0.00  0.00     0.066 H 
ENDBRANCH  13  14
ENDBRANCH   6  13
BRANCH   8  18
ATOM     18  O7  MOL d          65.949  32.242  28.719  0.00  0.00    -0.358 OA
ATOM     19  H4  MOL d          66.625  31.614  28.493  0.00  0.00     0.217 HD
ENDBRANCH   8  18
ENDBRANCH   1   4
BRANCH   3  20
ATOM     20  C10 MOL d          65.923  37.303  25.299  0.00  0.00    -0.005 C 
ATOM     21  H8  MOL d          65.953  36.582  26.129  0.00  0.00     0.063 H 
ATOM     22  H9  MOL d          66.946  37.619  25.048  0.00  0.00     0.063 H 
BRANCH  20  23
ATOM     23  C9  MOL d          65.133  38.516  25.738  0.00  0.00    -0.061 C 
ATOM     24  H5  MOL d          65.131  39.264  24.931  0.00  0.00     0.029 H 
ATOM     25  H6  MOL d          65.596  38.948  26.638  0.00  0.00     0.029 H 
ATOM     26  H7  MOL d          64.099  38.218  25.964  0.00  0.00     0.029 H 
ENDBRANCH  20  23
ENDBRANCH   3  20
BRANCH   3  27
ATOM     27  C12 MOL d          65.247  37.449  22.902  0.00  0.00    -0.005 C 
ATOM     28  H10 MOL d          64.636  36.913  22.160  0.00  0.00     0.063 H 
ATOM     29  H11 MOL d          64.770  38.411  23.144  0.00  0.00     0.063 H 
BRANCH  27  30
ATOM     30  C13 MOL d          66.619  37.715  22.309  0.00  0.00    -0.061 C 
ATOM     31  H12 MOL d          66.510  38.031  21.262  0.00  0.00     0.029 H 
ATOM     32  H13 MOL d          67.222  36.796  22.354  0.00  0.00     0.029 H 
ATOM     33  H14 MOL d          67.118  38.511  22.882  0.00  0.00     0.029 H 
ENDBRANCH  27  30
ENDBRANCH   3  27
TORSDOF 8
ENDMDL
MODEL 4
REMARK VINA RESULT:      -5.5      2.467      5.520
REMARK  8 active torsions:
REMARK  status: ('A' for Active; 'I' for Inactive)
REMARK    1  A    between atoms: C1_1  and  O7_7 
REMARK    2  A    between atoms: C2_2  and  O16_14 
REMARK    3  A    between atoms: C14_12  and  C4_4 
REMARK    4  A    between atoms: C10_9  and  C9_8 
REMARK    5  A    between atoms: N3_15  and  C10_9 
REMARK    6  A    between atoms: C12_10  and  C13_11 
REMARK    7  A    between atoms: N3_15  and  C12_10 
REMARK       I    between atoms: C14_12  and  N3_15 
REMARK    8  A    between atoms: O16_14  and  C15_16 
ROOT
ATOM      1  C14 MOL d          64.723  34.535  26.172  0.00  0.00     0.253 C 
ATOM      2  O15 MOL d          63.570  34.577  25.808  0.00  0.00    -0.267 OA
ATOM      3  N3  MOL d          65.210  33.547  26.980  0.00  0.00    -0.349 N 
ENDROOT
BRANCH   1   4
ATOM      4  C4  MOL d          65.660  35.628  25.782  0.00  0.00     0.035 A 
ATOM      5  C3  MOL d          65.935  35.844  24.440  0.00  0.00    -0.033 A 
ATOM      6  C2  MOL d          66.810  36.827  24.036  0.00  0.00     0.102 A 
ATOM      7  H1  MOL d          65.450  35.226  23.692  0.00  0.00     0.089 H 
ATOM      8  C1  MOL d          67.419  37.643  24.995  0.00  0.00     0.099 A 
ATOM      9  C6  MOL d          67.146  37.436  26.355  0.00  0.00    -0.047 A 
ATOM     10  C5  MOL d          66.272  36.437  26.745  0.00  0.00    -0.065 A 
ATOM     11  H3  MOL d          67.621  38.060  27.104  0.00  0.00     0.087 H 
ATOM     12  H2  MOL d          66.062  36.281  27.797  0.00  0.00     0.085 H 
BRANCH   6  13
ATOM     13  O16 MOL d          67.111  37.083  22.724  0.00  0.00    -0.353 OA
BRANCH  13  14
ATOM     14  C15 MOL d          66.167  37.887  21.968  0.00  0.00     0.010 C 
ATOM     15  H15 MOL d          66.715  38.531  21.264  0.00  0.00     0.066 H 
ATOM     16  H16 MOL d          65.584  38.514  22.659  0.00  0.00     0.066 H 
ATOM     17  H17 MOL d          65.488  37.227  21.409  0.00  0.00     0.066 H 
ENDBRANCH  13  14
ENDBRANCH   6  13
BRANCH   8  18
ATOM     18  O7  MOL d          68.262  38.636  24.594  0.00  0.00    -0.358 OA
ATOM     19  H4  MOL d          69.130  38.473  24.942  0.00  0.00     0.217 HD
ENDBRANCH   8  18
ENDBRANCH   1   4
BRANCH   3  20
ATOM     20  C10 MOL d          66.661  33.293  27.083  0.00  0.00    -0.005 C 
ATOM     21  H8  MOL d          67.200  34.132  26.619  0.00  0.00     0.063 H 
ATOM     22  H9  MOL d          66.933  33.225  28.147  0.00  0.00     0.063 H 
BRANCH  20  23
ATOM     23  C9  MOL d          67.072  32.011  26.394  0.00  0.00    -0.061 C 
ATOM     24  H5  MOL d          68.101  32.111  26.016  0.00  0.00     0.029 H 
ATOM     25  H6  MOL d          66.391  31.812  25.554  0.00  0.00     0.029 H 
ATOM     26  H7  MOL d          67.024  31.178  27.110  0.00  0.00     0.029 H 
ENDBRANCH  20  23
ENDBRANCH   3  20
BRANCH   3  27
ATOM     27  C12 MOL d          64.336  32.561  27.615  0.00  0.00    -0.005 C 
ATOM     28  H10 MOL d          63.289  32.858  27.456  0.00  0.00     0.063 H 
ATOM     29  H11 MOL d          64.514  31.578  27.153  0.00  0.00     0.063 H 
BRANCH  27  30
ATOM     30  C13 MOL d          64.596  32.457  29.107  0.00  0.00    -0.061 C 
ATOM     31  H12 MOL d          64.295  31.462  29.463  0.00  0.00     0.029 H 
ATOM     32  H13 MOL d          64.014  33.227  29.635  0.00  0.00     0.029 H 
ATOM     33  H14 MOL d          65.668  32.608  29.304  0.00  0.00     0.029 H 
ENDBRANCH  27  30
ENDBRANCH   3  27
TORSDOF 8
ENDMDL
MODEL 5
REMARK VINA RESULT:      -5.2      2.536      5.602
REMARK  8 active torsions:
REMARK  status: ('A' for Active; 'I' for Inactive)
REMARK    1  A    between atoms: C1_1  and  O7_7 
REMARK    2  A    between atoms: C2_2  and  O16_14 
REMARK    3  A    between atoms: C14_12  and  C4_4 
REMARK    4  A    between atoms: C10_9  and  C9_8 
REMARK    5  A    between atoms: N3_15  and  C10_9 
REMARK    6  A    between atoms: C12_10  and  C13_11 
REMARK    7  A    between atoms: N3_15  and  C12_10 
REMARK       I    between atoms: C14_12  and  N3_15 
REMARK    8  A    between atoms: O16_14  and  C15_16 
ROOT
ATOM      1  C14 MOL d          66.877  34.225  26.906  0.00  0.00     0.253 C 
ATOM      2  O15 MOL d          67.765  33.544  27.367  0.00  0.00    -0.267 OA
ATOM      3  N3  MOL d          65.569  33.833  26.900  0.00  0.00    -0.349 N 
ENDROOT
BRANCH   1   4
ATOM      4  C4  MOL d          67.208  35.527  26.259  0.00  0.00     0.035 A 
ATOM      5  C3  MOL d          66.814  35.758  24.949  0.00  0.00    -0.033 A 
ATOM      6  C2  MOL d          67.117  36.936  24.306  0.00  0.00     0.102 A 
ATOM      7  H1  MOL d          66.257  34.993  24.420  0.00  0.00     0.089 H 
ATOM      8  C1  MOL d          67.815  37.936  24.991  0.00  0.00     0.099 A 
ATOM      9  C6  MOL d          68.215  37.715  26.318  0.00  0.00    -0.047 A 
ATOM     10  C5  MOL d          67.913  36.521  26.947  0.00  0.00    -0.065 A 
ATOM     11  H3  MOL d          68.764  38.483  26.852  0.00  0.00     0.087 H 
ATOM     12  H2  MOL d          68.221  36.356  27.972  0.00  0.00     0.085 H 
BRANCH   6  13
ATOM     13  O16 MOL d          66.748  37.213  23.015  0.00  0.00    -0.353 OA
BRANCH  13  14
ATOM     14  C15 MOL d          65.326  37.290  22.731  0.00  0.00     0.010 C 
ATOM     15  H15 MOL d          64.762  36.825  23.553  0.00  0.00     0.066 H 
ATOM     16  H16 MOL d          65.111  36.758  21.792  0.00  0.00     0.066 H 
ATOM     17  H17 MOL d          65.028  38.344  22.632  0.00  0.00     0.066 H 
ENDBRANCH  13  14
ENDBRANCH   6  13
BRANCH   8  18
ATOM     18  O7  MOL d          68.088  39.114  24.364  0.00  0.00    -0.358 OA
ATOM     19  H4  MOL d          67.347  39.701  24.459  0.00  0.00     0.217 HD
ENDBRANCH   8  18
ENDBRANCH   1   4
BRANCH   3  20
ATOM     20  C10 MOL d          64.480  34.813  26.708  0.00  0.00    -0.005 C 
ATOM     21  H8  MOL d          64.009  35.012  27.682  0.00  0.00     0.063 H 
ATOM     22  H9  MOL d          64.910  35.744  26.311  0.00  0.00     0.063 H 
BRANCH  20  23
ATOM     23  C9  MOL d          63.421  34.318  25.748  0.00  0.00    -0.061 C 
ATOM     24  H5  MOL d          63.875  34.140  24.762  0.00  0.00     0.029 H 
ATOM     25  H6  MOL d          62.628  35.075  25.656  0.00  0.00     0.029 H 
ATOM     26  H7  MOL d          62.991  33.381  26.128  0.00  0.00     0.029 H 
ENDBRANCH  20  23
ENDBRANCH   3  20
BRANCH   3  27
ATOM     27  C12 MOL d          65.160  32.484  27.288  0.00  0.00    -0.005 C 
ATOM     28  H10 MOL d          64.319  32.170  26.651  0.00  0.00     0.063 H 
ATOM     29  H11 MOL d          66.008  31.798  27.140  0.00  0.00     0.063 H 
BRANCH  27  30
ATOM     30  C13 MOL d          64.725  32.423  28.741  0.00  0.00    -0.061 C 
ATOM     31  H12 MOL d          64.959  33.378  29.234  0.00  0.00     0.029 H 
ATOM     32  H13 MOL d          65.260  31.607  29.250  0.00  0.00     0.029 H 
ATOM     33  H14 MOL d          63.642  32.240  28.793  0.00  0.00     0.029 H 
ENDBRANCH  27  30
ENDBRANCH   3  27
TORSDOF 8
ENDMDL
MODEL 6
REMARK VINA RESULT:      -4.9      3.024      5.427
REMARK  8 active torsions:
REMARK  status: ('A' for Active; 'I' for Inactive)
REMARK    1  A    between atoms: C1_1  and  O7_7 
REMARK    2  A    between atoms: C2_2  and  O16_14 
REMARK    3  A    between atoms: C14_12  and  C4_4 
REMARK    4  A    between atoms: C10_9  and  C9_8 
REMARK    5  A    between atoms: N3_15  and  C10_9 
REMARK    6  A    between atoms: C12_10  and  C13_11 
REMARK    7  A    between atoms: N3_15  and  C12_10 
REMARK       I    between atoms: C14_12  and  N3_15 
REMARK    8  A    between atoms: O16_14  and  C15_16 
ROOT
ATOM      1  C14 MOL d          66.792  34.207  26.887  0.00  0.00     0.253 C 
ATOM      2  O15 MOL d          67.696  33.552  27.353  0.00  0.00    -0.267 OA
ATOM      3  N3  MOL d          65.490  33.795  26.909  0.00  0.00    -0.349 N 
ENDROOT
BRANCH   1   4
ATOM      4  C4  MOL d          67.093  35.497  26.202  0.00  0.00     0.035 A 
ATOM      5  C3  MOL d          67.589  36.561  26.940  0.00  0.00    -0.033 A 
ATOM      6  C2  MOL d          67.860  37.776  26.354  0.00  0.00     0.102 A 
ATOM      7  H1  MOL d          67.767  36.434  28.002  0.00  0.00     0.089 H 
ATOM      8  C1  MOL d          67.655  37.939  24.980  0.00  0.00     0.099 A 
ATOM      9  C6  MOL d          67.156  36.868  24.223  0.00  0.00    -0.047 A 
ATOM     10  C5  MOL d          66.879  35.657  24.829  0.00  0.00    -0.065 A 
ATOM     11  H3  MOL d          66.987  36.991  23.159  0.00  0.00     0.087 H 
ATOM     12  H2  MOL d          66.496  34.831  24.240  0.00  0.00     0.085 H 
BRANCH   6  13
ATOM     13  O16 MOL d          68.354  38.856  27.038  0.00  0.00    -0.353 OA
BRANCH  13  14
ATOM     14  C15 MOL d          69.082  38.591  28.266  0.00  0.00     0.010 C 
ATOM     15  H15 MOL d          70.147  38.821  28.118  0.00  0.00     0.066 H 
ATOM     16  H16 MOL d          68.971  37.530  28.536  0.00  0.00     0.066 H 
ATOM     17  H17 MOL d          68.680  39.219  29.074  0.00  0.00     0.066 H 
ENDBRANCH  13  14
ENDBRANCH   6  13
BRANCH   8  18
ATOM     18  O7  MOL d          67.951  39.133  24.393  0.00  0.00    -0.358 OA
ATOM     19  H4  MOL d          67.283  39.770  24.619  0.00  0.00     0.217 HD
ENDBRANCH   8  18
ENDBRANCH   1   4
BRANCH   3  20
ATOM     20  C10 MOL d          64.384  34.752  26.707  0.00  0.00    -0.005 C 
ATOM     21  H8  MOL d          63.729  34.726  27.590  0.00  0.00     0.063 H 
ATOM     22  H9  MOL d          64.807  35.761  26.594  0.00  0.00     0.063 H 
BRANCH  20  23
ATOM     23  C9  MOL d          63.559  34.430  25.481  0.00  0.00    -0.061 C 
ATOM     24  H5  MOL d          62.568  34.066  25.791  0.00  0.00     0.029 H 
ATOM     25  H6  MOL d          64.067  33.653  24.891  0.00  0.00     0.029 H 
ATOM     26  H7  MOL d          63.442  35.336  24.869  0.00  0.00     0.029 H 
ENDBRANCH  20  23
ENDBRANCH   3  20
BRANCH   3  27
ATOM     27  C12 MOL d          65.107  32.450  27.337  0.00  0.00    -0.005 C 
ATOM     28  H10 MOL d          64.334  32.066  26.655  0.00  0.00     0.063 H 
ATOM     29  H11 MOL d          65.992  31.797  27.294  0.00  0.00     0.063 H 
BRANCH  27  30
ATOM     30  C13 MOL d          64.561  32.444  28.753  0.00  0.00    -0.061 C 
ATOM     31  H12 MOL d          64.262  31.421  29.027  0.00  0.00     0.029 H 
ATOM     32  H13 MOL d          63.686  33.109  28.811  0.00  0.00     0.029 H 
ATOM     33  H14 MOL d          65.337  32.797  29.448  0.00  0.00     0.029 H 
ENDBRANCH  27  30
ENDBRANCH   3  27
TORSDOF 8
ENDMDL
MODEL 7
REMARK VINA RESULT:      -4.7      1.845      3.120
REMARK  8 active torsions:
REMARK  status: ('A' for Active; 'I' for Inactive)
REMARK    1  A    between atoms: C1_1  and  O7_7 
REMARK    2  A    between atoms: C2_2  and  O16_14 
REMARK    3  A    between atoms: C14_12  and  C4_4 
REMARK    4  A    between atoms: C10_9  and  C9_8 
REMARK    5  A    between atoms: N3_15  and  C10_9 
REMARK    6  A    between atoms: C12_10  and  C13_11 
REMARK    7  A    between atoms: N3_15  and  C12_10 
REMARK       I    between atoms: C14_12  and  N3_15 
REMARK    8  A    between atoms: O16_14  and  C15_16 
ROOT
ATOM      1  C14 MOL d          65.890  37.402  26.112  0.00  0.00     0.253 C 
ATOM      2  O15 MOL d          65.801  38.218  27.001  0.00  0.00    -0.267 OA
ATOM      3  N3  MOL d          65.657  37.705  24.801  0.00  0.00    -0.349 N 
ENDROOT
BRANCH   1   4
ATOM      4  C4  MOL d          66.211  35.984  26.443  0.00  0.00     0.035 A 
ATOM      5  C3  MOL d          65.188  35.049  26.505  0.00  0.00    -0.033 A 
ATOM      6  C2  MOL d          65.436  33.735  26.828  0.00  0.00     0.102 A 
ATOM      7  H1  MOL d          64.172  35.361  26.294  0.00  0.00     0.089 H 
ATOM      8  C1  MOL d          66.749  33.322  27.077  0.00  0.00     0.099 A 
ATOM      9  C6  MOL d          67.793  34.259  27.015  0.00  0.00    -0.047 A 
ATOM     10  C5  MOL d          67.526  35.578  26.699  0.00  0.00    -0.065 A 
ATOM     11  H3  MOL d          68.811  33.947  27.216  0.00  0.00     0.087 H 
ATOM     12  H2  MOL d          68.334  36.298  26.650  0.00  0.00     0.085 H 
BRANCH   6  13
ATOM     13  O16 MOL d          64.462  32.773  26.898  0.00  0.00    -0.353 OA
BRANCH  13  14
ATOM     14  C15 MOL d          63.512  32.866  27.992  0.00  0.00     0.010 C 
ATOM     15  H15 MOL d          64.056  32.982  28.941  0.00  0.00     0.066 H 
ATOM     16  H16 MOL d          62.904  31.949  28.028  0.00  0.00     0.066 H 
ATOM     17  H17 MOL d          62.856  33.735  27.837  0.00  0.00     0.066 H 
ENDBRANCH  13  14
ENDBRANCH   6  13
BRANCH   8  18
ATOM     18  O7  MOL d          66.999  32.014  27.368  0.00  0.00    -0.358 OA
ATOM     19  H4  MOL d          66.267  31.654  27.855  0.00  0.00     0.217 HD
ENDBRANCH   8  18
ENDBRANCH   1   4
BRANCH   3  20
ATOM     20  C10 MOL d          66.146  36.829  23.717  0.00  0.00    -0.005 C 
ATOM     21  H8  MOL d          66.146  35.790  24.077  0.00  0.00     0.063 H 
ATOM     22  H9  MOL d          65.467  36.920  22.857  0.00  0.00     0.063 H 
BRANCH  20  23
ATOM     23  C9  MOL d          67.546  37.189  23.273  0.00  0.00    -0.061 C 
ATOM     24  H5  MOL d          67.559  38.226  22.905  0.00  0.00     0.029 H 
ATOM     25  H6  MOL d          67.860  36.511  22.466  0.00  0.00     0.029 H 
ATOM     26  H7  MOL d          68.237  37.093  24.123  0.00  0.00     0.029 H 
ENDBRANCH  20  23
ENDBRANCH   3  20
BRANCH   3  27
ATOM     27  C12 MOL d          65.107  38.996  24.388  0.00  0.00    -0.005 C 
ATOM     28  H10 MOL d          64.303  39.279  25.082  0.00  0.00     0.063 H 
ATOM     29  H11 MOL d          65.906  39.751  24.423  0.00  0.00     0.063 H 
BRANCH  27  30
ATOM     30  C13 MOL d          64.542  38.942  22.979  0.00  0.00    -0.061 C 
ATOM     31  H12 MOL d          63.458  39.121  23.012  0.00  0.00     0.029 H 
ATOM     32  H13 MOL d          64.737  37.950  22.544  0.00  0.00     0.029 H 
ATOM     33  H14 MOL d          65.023  39.714  22.361  0.00  0.00     0.029 H 
ENDBRANCH  27  30
ENDBRANCH   3  27
TORSDOF 8
ENDMDL
MODEL 8
REMARK VINA RESULT:      -4.7      2.853      4.798
REMARK  8 active torsions:
REMARK  status: ('A' for Active; 'I' for Inactive)
REMARK    1  A    between atoms: C1_1  and  O7_7 
REMARK    2  A    between atoms: C2_2  and  O16_14 
REMARK    3  A    between atoms: C14_12  and  C4_4 
REMARK    4  A    between atoms: C10_9  and  C9_8 
REMARK    5  A    between atoms: N3_15  and  C10_9 
REMARK    6  A    between atoms: C12_10  and  C13_11 
REMARK    7  A    between atoms: N3_15  and  C12_10 
REMARK       I    between atoms: C14_12  and  N3_15 
REMARK    8  A    between atoms: O16_14  and  C15_16 
ROOT
ATOM      1  C14 MOL d          66.469  38.122  26.972  0.00  0.00     0.253 C 
ATOM      2  O15 MOL d          65.778  38.817  27.681  0.00  0.00    -0.267 OA
ATOM      3  N3  MOL d          67.830  38.081  27.074  0.00  0.00    -0.349 N 
ENDROOT
BRANCH   1   4
ATOM      4  C4  MOL d          65.836  37.310  25.893  0.00  0.00     0.035 A 
ATOM      5  C3  MOL d          65.175  36.135  26.222  0.00  0.00    -0.033 A 
ATOM      6  C2  MOL d          64.596  35.344  25.257  0.00  0.00     0.102 A 
ATOM      7  H1  MOL d          65.114  35.835  27.262  0.00  0.00     0.089 H 
ATOM      8  C1  MOL d          64.651  35.739  23.917  0.00  0.00     0.099 A 
ATOM      9  C6  MOL d          65.315  36.927  23.572  0.00  0.00    -0.047 A 
ATOM     10  C5  MOL d          65.901  37.706  24.553  0.00  0.00    -0.065 A 
ATOM     11  H3  MOL d          65.369  37.235  22.534  0.00  0.00     0.087 H 
ATOM     12  H2  MOL d          66.410  38.624  24.283  0.00  0.00     0.085 H 
BRANCH   6  13
ATOM     13  O16 MOL d          63.929  34.178  25.531  0.00  0.00    -0.353 OA
BRANCH  13  14
ATOM     14  C15 MOL d          63.673  33.869  26.926  0.00  0.00     0.010 C 
ATOM     15  H15 MOL d          62.993  34.622  27.350  0.00  0.00     0.066 H 
ATOM     16  H16 MOL d          64.622  33.877  27.483  0.00  0.00     0.066 H 
ATOM     17  H17 MOL d          63.211  32.874  27.003  0.00  0.00     0.066 H 
ENDBRANCH  13  14
ENDBRANCH   6  13
BRANCH   8  18
ATOM     18  O7  MOL d          64.052  34.971  22.964  0.00  0.00    -0.358 OA
ATOM     19  H4  MOL d          64.603  34.939  22.191  0.00  0.00     0.217 HD
ENDBRANCH   8  18
ENDBRANCH   1   4
BRANCH   3  20
ATOM     20  C10 MOL d          68.605  36.964  26.496  0.00  0.00    -0.005 C 
ATOM     21  H8  MOL d          68.239  36.771  25.477  0.00  0.00     0.063 H 
ATOM     22  H9  MOL d          69.665  37.253  26.456  0.00  0.00     0.063 H 
BRANCH  20  23
ATOM     23  C9  MOL d          68.478  35.693  27.306  0.00  0.00    -0.061 C 
ATOM     24  H5  MOL d          69.420  35.127  27.250  0.00  0.00     0.029 H 
ATOM     25  H6  MOL d          67.658  35.082  26.903  0.00  0.00     0.029 H 
ATOM     26  H7  MOL d          68.265  35.947  28.355  0.00  0.00     0.029 H 
ENDBRANCH  20  23
ENDBRANCH   3  20
BRANCH   3  27
ATOM     27  C12 MOL d          68.574  39.006  27.928  0.00  0.00    -0.005 C 
ATOM     28  H10 MOL d          69.332  39.521  27.319  0.00  0.00     0.063 H 
ATOM     29  H11 MOL d          67.875  39.745  28.346  0.00  0.00     0.063 H 
BRANCH  27  30
ATOM     30  C13 MOL d          69.268  38.285  29.070  0.00  0.00    -0.061 C 
ATOM     31  H12 MOL d          69.699  37.343  28.700  0.00  0.00     0.029 H 
ATOM     32  H13 MOL d          68.538  38.067  29.863  0.00  0.00     0.029 H 
ATOM     33  H14 MOL d          70.070  38.921  29.473  0.00  0.00     0.029 H 
ENDBRANCH  27  30
ENDBRANCH   3  27
TORSDOF 8
ENDMDL
MODEL 9
REMARK VINA RESULT:      -4.1      2.137      5.546
REMARK  8 active torsions:
REMARK  status: ('A' for Active; 'I' for Inactive)
REMARK    1  A    between atoms: C1_1  and  O7_7 
REMARK    2  A    between atoms: C2_2  and  O16_14 
REMARK    3  A    between atoms: C14_12  and  C4_4 
REMARK    4  A    between atoms: C10_9  and  C9_8 
REMARK    5  A    between atoms: N3_15  and  C10_9 
REMARK    6  A    between atoms: C12_10  and  C13_11 
REMARK    7  A    between atoms: N3_15  and  C12_10 
REMARK       I    between atoms: C14_12  and  N3_15 
REMARK    8  A    between atoms: O16_14  and  C15_16 
ROOT
ATOM      1  C14 MOL d          66.648  34.568  26.586  0.00  0.00     0.253 C 
ATOM      2  O15 MOL d          67.525  34.584  27.419  0.00  0.00    -0.267 OA
ATOM      3  N3  MOL d          65.872  33.469  26.347  0.00  0.00    -0.349 N 
ENDROOT
BRANCH   1   4
ATOM      4  C4  MOL d          66.421  35.768  25.730  0.00  0.00     0.035 A 
ATOM      5  C3  MOL d          66.968  35.811  24.456  0.00  0.00    -0.033 A 
ATOM      6  C2  MOL d          66.803  36.908  23.642  0.00  0.00     0.102 A 
ATOM      7  H1  MOL d          67.539  34.963  24.095  0.00  0.00     0.089 H 
ATOM      8  C1  MOL d          66.048  37.995  24.093  0.00  0.00     0.099 A 
ATOM      9  C6  MOL d          65.487  37.961  25.379  0.00  0.00    -0.047 A 
ATOM     10  C5  MOL d          65.671  36.856  26.190  0.00  0.00    -0.065 A 
ATOM     11  H3  MOL d          64.907  38.804  25.738  0.00  0.00     0.087 H 
ATOM     12  H2  MOL d          65.234  36.833  27.181  0.00  0.00     0.085 H 
BRANCH   6  13
ATOM     13  O16 MOL d          67.319  36.997  22.375  0.00  0.00    -0.353 OA
BRANCH  13  14
ATOM     14  C15 MOL d          66.502  37.648  21.366  0.00  0.00     0.010 C 
ATOM     15  H15 MOL d          65.566  37.085  21.234  0.00  0.00     0.066 H 
ATOM     16  H16 MOL d          67.050  37.678  20.413  0.00  0.00     0.066 H 
ATOM     17  H17 MOL d          66.269  38.674  21.688  0.00  0.00     0.066 H 
ENDBRANCH  13  14
ENDBRANCH   6  13
BRANCH   8  18
ATOM     18  O7  MOL d          65.858  39.068  23.275  0.00  0.00    -0.358 OA
ATOM     19  H4  MOL d          66.654  39.586  23.246  0.00  0.00     0.217 HD
ENDBRANCH   8  18
ENDBRANCH   1   4
BRANCH   3  20
ATOM     20  C10 MOL d          64.583  33.586  25.635  0.00  0.00    -0.005 C 
ATOM     21  H8  MOL d          64.699  34.304  24.810  0.00  0.00     0.063 H 
ATOM     22  H9  MOL d          64.315  32.600  25.228  0.00  0.00     0.063 H 
BRANCH  20  23
ATOM     23  C9  MOL d          63.466  34.059  26.538  0.00  0.00    -0.061 C 
ATOM     24  H5  MOL d          62.653  33.318  26.534  0.00  0.00     0.029 H 
ATOM     25  H6  MOL d          63.085  35.024  26.175  0.00  0.00     0.029 H 
ATOM     26  H7  MOL d          63.849  34.178  27.562  0.00  0.00     0.029 H 
ENDBRANCH  20  23
ENDBRANCH   3  20
BRANCH   3  27
ATOM     27  C12 MOL d          66.158  32.169  26.953  0.00  0.00    -0.005 C 
ATOM     28  H10 MOL d          65.548  31.402  26.454  0.00  0.00     0.063 H 
ATOM     29  H11 MOL d          67.225  31.938  26.813  0.00  0.00     0.063 H 
BRANCH  27  30
ATOM     30  C13 MOL d          65.843  32.159  28.438  0.00  0.00    -0.061 C 
ATOM     31  H12 MOL d          66.752  32.398  29.007  0.00  0.00     0.029 H 
ATOM     32  H13 MOL d          65.480  31.162  28.728  0.00  0.00     0.029 H 
ATOM     33  H14 MOL d          65.067  32.909  28.653  0.00  0.00     0.029 H 
ENDBRANCH  27  30
ENDBRANCH   3  27
TORSDOF 8
ENDMDL
MODEL 10
REMARK VINA RESULT:      -4.0      2.583      4.040
REMARK  8 active torsions:
REMARK  status: ('A' for Active; 'I' for Inactive)
REMARK    1  A    between atoms: C1_1  and  O7_7 
REMARK    2  A    between atoms: C2_2  and  O16_14 
REMARK    3  A    between atoms: C14_12  and  C4_4 
REMARK    4  A    between atoms: C10_9  and  C9_8 
REMARK    5  A    between atoms: N3_15  and  C10_9 
REMARK    6  A    between atoms: C12_10  and  C13_11 
REMARK    7  A    between atoms: N3_15  and  C12_10 
REMARK       I    between atoms: C14_12  and  N3_15 
REMARK    8  A    between atoms: O16_14  and  C15_16 
ROOT
ATOM      1  C14 MOL d          65.854  36.570  24.285  0.00  0.00     0.253 C 
ATOM      2  O15 MOL d          66.145  37.055  23.216  0.00  0.00    -0.267 OA
ATOM      3  N3  MOL d          64.992  35.518  24.412  0.00  0.00    -0.349 N 
ENDROOT
BRANCH   1   4
ATOM      4  C4  MOL d          66.401  37.165  25.538  0.00  0.00     0.035 A 
ATOM      5  C3  MOL d          67.388  36.489  26.240  0.00  0.00    -0.033 A 
ATOM      6  C2  MOL d          67.906  36.991  27.412  0.00  0.00     0.102 A 
ATOM      7  H1  MOL d          67.761  35.546  25.856  0.00  0.00     0.089 H 
ATOM      8  C1  MOL d          67.447  38.219  27.898  0.00  0.00     0.099 A 
ATOM      9  C6  MOL d          66.450  38.913  27.196  0.00  0.00    -0.047 A 
ATOM     10  C5  MOL d          65.933  38.391  26.024  0.00  0.00    -0.065 A 
ATOM     11  H3  MOL d          66.084  39.861  27.572  0.00  0.00     0.087 H 
ATOM     12  H2  MOL d          65.164  38.930  25.483  0.00  0.00     0.085 H 
BRANCH   6  13
ATOM     13  O16 MOL d          68.885  36.364  28.139  0.00  0.00    -0.353 OA
BRANCH  13  14
ATOM     14  C15 MOL d          69.253  35.017  27.740  0.00  0.00     0.010 C 
ATOM     15  H15 MOL d          68.871  34.818  26.728  0.00  0.00     0.066 H 
ATOM     16  H16 MOL d          68.817  34.294  28.445  0.00  0.00     0.066 H 
ATOM     17  H17 MOL d          70.348  34.920  27.744  0.00  0.00     0.066 H 
ENDBRANCH  13  14
ENDBRANCH   6  13
BRANCH   8  18
ATOM     18  O7  MOL d          67.981  38.730  29.043  0.00  0.00    -0.358 OA
ATOM     19  H4  MOL d          67.593  39.579  29.221  0.00  0.00     0.217 HD
ENDBRANCH   8  18
ENDBRANCH   1   4
BRANCH   3  20
ATOM     20  C10 MOL d          64.958  34.703  25.644  0.00  0.00    -0.005 C 
ATOM     21  H8  MOL d          65.291  33.684  25.401  0.00  0.00     0.063 H 
ATOM     22  H9  MOL d          65.644  35.149  26.379  0.00  0.00     0.063 H 
BRANCH  20  23
ATOM     23  C9  MOL d          63.575  34.631  26.250  0.00  0.00    -0.061 C 
ATOM     24  H5  MOL d          63.655  34.370  27.316  0.00  0.00     0.029 H 
ATOM     25  H6  MOL d          62.985  33.864  25.728  0.00  0.00     0.029 H 
ATOM     26  H7  MOL d          63.079  35.607  26.149  0.00  0.00     0.029 H 
ENDBRANCH  20  23
ENDBRANCH   3  20
BRANCH   3  27
ATOM     27  C12 MOL d          64.214  35.009  23.282  0.00  0.00    -0.005 C 
ATOM     28  H10 MOL d          64.890  34.845  22.431  0.00  0.00     0.063 H 
ATOM     29  H11 MOL d          63.749  34.055  23.571  0.00  0.00     0.063 H 
BRANCH  27  30
ATOM     30  C13 MOL d          63.125  35.981  22.865  0.00  0.00    -0.061 C 
ATOM     31  H12 MOL d          63.494  37.011  22.970  0.00  0.00     0.029 H 
ATOM     32  H13 MOL d          62.243  35.840  23.507  0.00  0.00     0.029 H 
ATOM     33  H14 MOL d          62.850  35.795  21.817  0.00  0.00     0.029 H 
ENDBRANCH  27  30
ENDBRANCH   3  27
TORSDOF 8
ENDMDL
