MODEL 1
REMARK VINA RESULT:      -7.9      0.000      0.000
REMARK  4 active torsions:
REMARK  status: ('A' for Active; 'I' for Inactive)
REMARK    1  A    between atoms: N_1  and  CA_2 
REMARK    2  A    between atoms: CA_2  and  C_3 
REMARK    3  A    between atoms: CA_2  and  CB_6 
REMARK    4  A    between atoms: CB_6  and  CG_7 
ROOT
ATOM      1  CB  PFF d          27.607  31.360  20.630  0.00  0.00    -0.005 C 
ATOM      2  H5  PFF d          28.490  30.707  20.664  0.00  0.00     0.044 H 
ATOM      3  H6  PFF d          26.795  30.910  21.220  0.00  0.00     0.044 H 
ENDROOT
BRANCH   1   4
ATOM      4  CA  PFF d          27.156  31.549  19.185  0.00  0.00     0.186 C 
ATOM      5  H4  PFF d          27.892  32.164  18.647  0.00  0.00     0.101 H 
BRANCH   4   6
ATOM      6  N   PFF d          25.870  32.226  19.166  0.00  0.00    -0.065 N 
ATOM      7  H1  PFF d          25.959  33.127  19.611  0.00  0.00     0.275 HD
ATOM      8  H2  PFF d          25.191  31.672  19.664  0.00  0.00     0.275 HD
ATOM      9  H3  PFF d          25.570  32.350  18.213  0.00  0.00     0.275 HD
ENDBRANCH   4   6
BRANCH   4  10
ATOM     10  C   PFF d          27.074  30.197  18.532  0.00  0.00     0.204 C 
ATOM     11  O   PFF d          28.124  29.511  18.435  0.00  0.00    -0.646 OA
ATOM     12  OXT PFF d          25.963  29.810  18.122  0.00  0.00    -0.646 OA
ENDBRANCH   4  10
ENDBRANCH   1   4
BRANCH   1  13
ATOM     13  CG  PFF d          27.951  32.718  21.184  0.00  0.00    -0.056 A 
ATOM     14  CD1 PFF d          28.787  33.545  20.446  0.00  0.00    -0.074 A 
ATOM     15  CE1 PFF d          29.116  34.801  20.925  0.00  0.00    -0.045 A 
ATOM     16  H7  PFF d          29.183  33.206  19.496  0.00  0.00     0.084 H 
ATOM     17  CZ  PFF d          28.599  35.229  22.144  0.00  0.00     0.116 A 
ATOM     18  H9  PFF d          29.771  35.448  20.353  0.00  0.00     0.088 H 
ATOM     19  CE2 PFF d          27.760  34.410  22.891  0.00  0.00    -0.045 A 
ATOM     20  F   PFF d          28.931  36.447  22.593  0.00  0.00    -0.206 F 
ATOM     21  CD2 PFF d          27.432  33.144  22.407  0.00  0.00    -0.074 A 
ATOM     22  H10 PFF d          27.364  34.753  23.841  0.00  0.00     0.088 H 
ATOM     23  H8  PFF d          26.779  32.494  22.977  0.00  0.00     0.084 H 
ENDBRANCH   1  13
TORSDOF 4
ENDMDL
