MODEL 1
REMARK VINA RESULT:      -7.4      0.000      0.000
REMARK  4 active torsions:
REMARK  status: ('A' for Active; 'I' for Inactive)
REMARK    1  A    between atoms: N_1  and  CA_2 
REMARK    2  A    between atoms: CA_2  and  C_3 
REMARK    3  A    between atoms: CA_2  and  CB_6 
REMARK    4  A    between atoms: CB_6  and  CG_7 
ROOT
ATOM      1  CB  PFF d          27.580  31.240  20.574  0.00  0.00    -0.005 C 
ATOM      2  H5  PFF d          28.456  30.576  20.560  0.00  0.00     0.044 H 
ATOM      3  H6  PFF d          26.760  30.754  21.124  0.00  0.00     0.044 H 
ENDROOT
BRANCH   1   4
ATOM      4  CA  PFF d          27.137  31.547  19.147  0.00  0.00     0.186 C 
ATOM      5  H4  PFF d          27.887  32.188  18.659  0.00  0.00     0.101 H 
BRANCH   4   6
ATOM      6  N   PFF d          25.865  32.248  19.178  0.00  0.00    -0.065 N 
ATOM      7  H1  PFF d          25.833  32.851  19.986  0.00  0.00     0.275 HD
ATOM      8  H2  PFF d          25.114  31.578  19.228  0.00  0.00     0.275 HD
ATOM      9  H3  PFF d          25.767  32.801  18.342  0.00  0.00     0.275 HD
ENDBRANCH   4   6
BRANCH   4  10
ATOM     10  C   PFF d          27.033  30.251  18.393  0.00  0.00     0.204 C 
ATOM     11  O   PFF d          25.895  29.862  18.020  0.00  0.00    -0.646 OA
ATOM     12  OXT PFF d          28.081  29.621  18.160  0.00  0.00    -0.646 OA
ENDBRANCH   4  10
ENDBRANCH   1   4
BRANCH   1  13
ATOM     13  CG  PFF d          27.937  32.547  21.235  0.00  0.00    -0.056 A 
ATOM     14  CD1 PFF d          27.540  32.758  22.548  0.00  0.00    -0.074 A 
ATOM     15  CE1 PFF d          27.860  33.944  23.184  0.00  0.00    -0.045 A 
ATOM     16  H7  PFF d          26.980  31.994  23.074  0.00  0.00     0.084 H 
ATOM     17  CZ  PFF d          28.584  34.917  22.502  0.00  0.00     0.116 A 
ATOM     18  H9  PFF d          27.549  34.115  24.209  0.00  0.00     0.088 H 
ATOM     19  CE2 PFF d          28.987  34.717  21.186  0.00  0.00    -0.045 A 
ATOM     20  F   PFF d          28.881  36.061  23.133  0.00  0.00    -0.206 F 
ATOM     21  CD2 PFF d          28.662  33.521  20.547  0.00  0.00    -0.074 A 
ATOM     22  H10 PFF d          29.549  35.482  20.663  0.00  0.00     0.088 H 
ATOM     23  H8  PFF d          28.970  33.349  19.522  0.00  0.00     0.084 H 
ENDBRANCH   1  13
TORSDOF 4
ENDMDL
MODEL 2
REMARK VINA RESULT:      -4.7      3.997      5.344
REMARK  4 active torsions:
REMARK  status: ('A' for Active; 'I' for Inactive)
REMARK    1  A    between atoms: N_1  and  CA_2 
REMARK    2  A    between atoms: CA_2  and  C_3 
REMARK    3  A    between atoms: CA_2  and  CB_6 
REMARK    4  A    between atoms: CB_6  and  CG_7 
ROOT
ATOM      1  CB  PFF d          28.987  32.720  20.840  0.00  0.00    -0.005 C 
ATOM      2  H5  PFF d          29.170  32.226  21.806  0.00  0.00     0.044 H 
ATOM      3  H6  PFF d          29.942  32.851  20.310  0.00  0.00     0.044 H 
ENDROOT
BRANCH   1   4
ATOM      4  CA  PFF d          28.330  34.077  21.067  0.00  0.00     0.186 C 
ATOM      5  H4  PFF d          27.360  34.108  20.549  0.00  0.00     0.101 H 
BRANCH   4   6
ATOM      6  N   PFF d          29.184  35.122  20.530  0.00  0.00    -0.065 N 
ATOM      7  H1  PFF d          29.775  35.484  21.263  0.00  0.00     0.275 HD
ATOM      8  H2  PFF d          28.613  35.866  20.161  0.00  0.00     0.275 HD
ATOM      9  H3  PFF d          29.757  34.742  19.794  0.00  0.00     0.275 HD
ENDBRANCH   4   6
BRANCH   4  10
ATOM     10  C   PFF d          28.104  34.256  22.542  0.00  0.00     0.204 C 
ATOM     11  O   PFF d          27.654  35.357  22.954  0.00  0.00    -0.646 OA
ATOM     12  OXT PFF d          28.366  33.300  23.296  0.00  0.00    -0.646 OA
ENDBRANCH   4  10
ENDBRANCH   1   4
BRANCH   1  13
ATOM     13  CG  PFF d          28.047  31.888  20.007  0.00  0.00    -0.056 A 
ATOM     14  CD1 PFF d          26.813  32.422  19.666  0.00  0.00    -0.074 A 
ATOM     15  CE1 PFF d          25.930  31.685  18.895  0.00  0.00    -0.045 A 
ATOM     16  H7  PFF d          26.540  33.415  20.002  0.00  0.00     0.084 H 
ATOM     17  CZ  PFF d          26.291  30.412  18.464  0.00  0.00     0.116 A 
ATOM     18  H9  PFF d          24.963  32.097  18.628  0.00  0.00     0.088 H 
ATOM     19  CE2 PFF d          27.525  29.867  18.800  0.00  0.00    -0.045 A 
ATOM     20  F   PFF d          25.422  29.713  17.722  0.00  0.00    -0.206 F 
ATOM     21  CD2 PFF d          28.411  30.612  19.578  0.00  0.00    -0.074 A 
ATOM     22  H10 PFF d          27.796  28.873  18.461  0.00  0.00     0.088 H 
ATOM     23  H8  PFF d          29.378  30.201  19.848  0.00  0.00     0.084 H 
ENDBRANCH   1  13
TORSDOF 4
ENDMDL
MODEL 3
REMARK VINA RESULT:      -4.7      4.006      5.399
REMARK  4 active torsions:
REMARK  status: ('A' for Active; 'I' for Inactive)
REMARK    1  A    between atoms: N_1  and  CA_2 
REMARK    2  A    between atoms: CA_2  and  C_3 
REMARK    3  A    between atoms: CA_2  and  CB_6 
REMARK    4  A    between atoms: CB_6  and  CG_7 
ROOT
ATOM      1  CB  PFF d          28.974  32.758  20.806  0.00  0.00    -0.005 C 
ATOM      2  H5  PFF d          29.169  32.250  21.762  0.00  0.00     0.044 H 
ATOM      3  H6  PFF d          29.921  32.889  20.261  0.00  0.00     0.044 H 
ENDROOT
BRANCH   1   4
ATOM      4  CA  PFF d          28.330  34.117  21.063  0.00  0.00     0.186 C 
ATOM      5  H4  PFF d          27.362  34.169  20.543  0.00  0.00     0.101 H 
BRANCH   4   6
ATOM      6  N   PFF d          29.197  35.164  20.549  0.00  0.00    -0.065 N 
ATOM      7  H1  PFF d          30.046  34.753  20.193  0.00  0.00     0.275 HD
ATOM      8  H2  PFF d          29.422  35.808  21.292  0.00  0.00     0.275 HD
ATOM      9  H3  PFF d          28.725  35.658  19.809  0.00  0.00     0.275 HD
ENDBRANCH   4   6
BRANCH   4  10
ATOM     10  C   PFF d          28.105  34.265  22.541  0.00  0.00     0.204 C 
ATOM     11  O   PFF d          28.354  33.285  23.289  0.00  0.00    -0.646 OA
ATOM     12  OXT PFF d          27.687  35.360  22.964  0.00  0.00    -0.646 OA
ENDBRANCH   4  10
ENDBRANCH   1   4
BRANCH   1  13
ATOM     13  CG  PFF d          28.014  31.944  19.979  0.00  0.00    -0.056 A 
ATOM     14  CD1 PFF d          28.400  30.676  19.568  0.00  0.00    -0.074 A 
ATOM     15  CE1 PFF d          27.537  29.900  18.814  0.00  0.00    -0.045 A 
ATOM     16  H7  PFF d          29.377  30.293  19.838  0.00  0.00     0.084 H 
ATOM     17  CZ  PFF d          26.283  30.398  18.476  0.00  0.00     0.116 A 
ATOM     18  H9  PFF d          27.837  28.910  18.488  0.00  0.00     0.088 H 
ATOM     19  CE2 PFF d          25.884  31.667  18.881  0.00  0.00    -0.045 A 
ATOM     20  F   PFF d          25.462  29.635  17.742  0.00  0.00    -0.206 F 
ATOM     21  CD2 PFF d          26.757  32.447  19.640  0.00  0.00    -0.074 A 
ATOM     22  H10 PFF d          24.905  32.047  18.611  0.00  0.00     0.088 H 
ATOM     23  H8  PFF d          26.461  33.437  19.965  0.00  0.00     0.084 H 
ENDBRANCH   1  13
TORSDOF 4
ENDMDL
MODEL 4
REMARK VINA RESULT:      -4.4      1.586      2.104
REMARK  4 active torsions:
REMARK  status: ('A' for Active; 'I' for Inactive)
REMARK    1  A    between atoms: N_1  and  CA_2 
REMARK    2  A    between atoms: CA_2  and  C_3 
REMARK    3  A    between atoms: CA_2  and  CB_6 
REMARK    4  A    between atoms: CB_6  and  CG_7 
ROOT
ATOM      1  CB  PFF d          28.953  31.336  20.422  0.00  0.00    -0.005 C 
ATOM      2  H5  PFF d          29.698  31.565  19.645  0.00  0.00     0.044 H 
ATOM      3  H6  PFF d          29.362  30.582  21.111  0.00  0.00     0.044 H 
ENDROOT
BRANCH   1   4
ATOM      4  CA  PFF d          27.675  30.811  19.776  0.00  0.00     0.186 C 
ATOM      5  H4  PFF d          26.918  30.629  20.553  0.00  0.00     0.101 H 
BRANCH   4   6
ATOM      6  N   PFF d          27.960  29.560  19.093  0.00  0.00    -0.065 N 
ATOM      7  H1  PFF d          28.310  29.755  18.168  0.00  0.00     0.275 HD
ATOM      8  H2  PFF d          27.115  29.015  19.025  0.00  0.00     0.275 HD
ATOM      9  H3  PFF d          28.652  29.044  19.613  0.00  0.00     0.275 HD
ENDBRANCH   4   6
BRANCH   4  10
ATOM     10  C   PFF d          27.161  31.853  18.823  0.00  0.00     0.204 C 
ATOM     11  O   PFF d          26.121  32.491  19.133  0.00  0.00    -0.646 OA
ATOM     12  OXT PFF d          27.793  32.047  17.768  0.00  0.00    -0.646 OA
ENDBRANCH   4  10
ENDBRANCH   1   4
BRANCH   1  13
ATOM     13  CG  PFF d          28.603  32.589  21.182  0.00  0.00    -0.056 A 
ATOM     14  CD1 PFF d          29.064  33.807  20.703  0.00  0.00    -0.074 A 
ATOM     15  CE1 PFF d          28.752  34.977  21.375  0.00  0.00    -0.045 A 
ATOM     16  H7  PFF d          29.668  33.843  19.804  0.00  0.00     0.084 H 
ATOM     17  CZ  PFF d          27.972  34.921  22.526  0.00  0.00     0.116 A 
ATOM     18  H9  PFF d          29.113  35.930  21.006  0.00  0.00     0.088 H 
ATOM     19  CE2 PFF d          27.504  33.706  23.014  0.00  0.00    -0.045 A 
ATOM     20  F   PFF d          27.683  36.063  23.164  0.00  0.00    -0.206 F 
ATOM     21  CD2 PFF d          27.822  32.530  22.336  0.00  0.00    -0.074 A 
ATOM     22  H10 PFF d          26.898  33.674  23.913  0.00  0.00     0.088 H 
ATOM     23  H8  PFF d          27.463  31.575  22.703  0.00  0.00     0.084 H 
ENDBRANCH   1  13
TORSDOF 4
ENDMDL
