MODEL 1
REMARK VINA RESULT:      -8.8      0.000      0.000
REMARK  3 active torsions:
REMARK  status: ('A' for Active; 'I' for Inactive)
REMARK    1  A    between atoms: C2_2  and  C22_10 
REMARK    2  A    between atoms: C6_6  and  N1_12 
REMARK    3  A    between atoms: C22_10  and  O22_9 
ROOT
ATOM      1  C1  HNT d          28.061  45.445  18.418  0.00  0.00    -0.012 C 
ATOM      2  C2  HNT d          27.492  44.701  19.627  0.00  0.00     0.126 C 
ATOM      3  C4  HNT d          27.150  42.572  18.485  0.00  0.00     0.106 C 
ATOM      4  C5  HNT d          26.830  42.744  16.002  0.00  0.00    -0.043 A 
ATOM      5  C6  HNT d          26.855  43.426  14.791  0.00  0.00     0.103 A 
ATOM      6  C7  HNT d          27.266  44.756  14.766  0.00  0.00    -0.050 A 
ATOM      7  C8  HNT d          27.652  45.391  15.943  0.00  0.00    -0.074 A 
ATOM      8  C8A HNT d          27.629  44.704  17.151  0.00  0.00    -0.048 A 
ATOM      9  C4A HNT d          27.214  43.375  17.183  0.00  0.00    -0.024 A 
ATOM     10  N41 HNT d          27.859  43.277  19.567  0.00  0.00    -0.065 N 
ATOM     11  H1  HNT d          29.159  45.468  18.479  0.00  0.00     0.043 H 
ATOM     12  H2  HNT d          27.674  46.473  18.398  0.00  0.00     0.043 H 
ATOM     13  H3  HNT d          26.395  44.772  19.589  0.00  0.00     0.088 H 
ATOM     14  H4  HNT d          27.619  41.590  18.327  0.00  0.00     0.083 H 
ATOM     15  H5  HNT d          26.098  42.435  18.772  0.00  0.00     0.083 H 
ATOM     16  H6  HNT d          26.507  41.709  16.027  0.00  0.00     0.088 H 
ATOM     17  H7  HNT d          27.285  45.299  13.827  0.00  0.00     0.087 H 
ATOM     18  H8  HNT d          27.973  46.426  15.917  0.00  0.00     0.084 H 
ATOM     19  H12 HNT d          27.625  42.844  20.447  0.00  0.00     0.278 HD
ATOM     20  H13 HNT d          28.851  43.202  19.409  0.00  0.00     0.278 HD
ENDROOT
BRANCH   2  21
ATOM     21  C22 HNT d          27.962  45.352  20.930  0.00  0.00     0.044 C 
ATOM     22  H10 HNT d          28.006  46.444  20.800  0.00  0.00     0.077 H 
ATOM     23  H11 HNT d          28.962  44.974  21.189  0.00  0.00     0.077 H 
BRANCH  21  24
ATOM     24  O22 HNT d          27.045  45.033  21.979  0.00  0.00    -0.399 OA
ATOM     25  H9  HNT d          27.255  45.548  22.750  0.00  0.00     0.209 HD
ENDBRANCH  21  24
ENDBRANCH   2  21
BRANCH   5  26
ATOM     26  N1  HNT d          26.549  42.800  13.654  0.00  0.00    -0.116 N 
ATOM     27  O2  HNT d          26.123  43.533  12.515  0.00  0.00    -0.532 OA
ATOM     28  O3  HNT d          26.648  41.385  13.567  0.00  0.00    -0.532 OA
ENDBRANCH   5  26
TORSDOF 3
ENDMDL
MODEL 2
REMARK VINA RESULT:      -7.7      1.055      1.933
REMARK  3 active torsions:
REMARK  status: ('A' for Active; 'I' for Inactive)
REMARK    1  A    between atoms: C2_2  and  C22_10 
REMARK    2  A    between atoms: C6_6  and  N1_12 
REMARK    3  A    between atoms: C22_10  and  O22_9 
ROOT
ATOM      1  C1  HNT d          27.089  43.631  19.248  0.00  0.00    -0.012 C 
ATOM      2  C2  HNT d          28.161  44.698  19.480  0.00  0.00     0.126 C 
ATOM      3  C4  HNT d          28.104  45.619  17.222  0.00  0.00     0.106 C 
ATOM      4  C5  HNT d          27.326  44.023  15.448  0.00  0.00    -0.043 A 
ATOM      5  C6  HNT d          26.748  42.836  15.013  0.00  0.00     0.103 A 
ATOM      6  C7  HNT d          26.291  41.916  15.952  0.00  0.00    -0.050 A 
ATOM      7  C8  HNT d          26.407  42.188  17.312  0.00  0.00    -0.074 A 
ATOM      8  C8A HNT d          26.982  43.378  17.742  0.00  0.00    -0.048 A 
ATOM      9  C4A HNT d          27.446  44.300  16.809  0.00  0.00    -0.024 A 
ATOM     10  N41 HNT d          27.885  45.884  18.654  0.00  0.00    -0.065 N 
ATOM     11  H1  HNT d          26.123  43.985  19.635  0.00  0.00     0.043 H 
ATOM     12  H2  HNT d          27.372  42.702  19.762  0.00  0.00     0.043 H 
ATOM     13  H3  HNT d          29.132  44.284  19.168  0.00  0.00     0.088 H 
ATOM     14  H4  HNT d          27.669  46.440  16.633  0.00  0.00     0.083 H 
ATOM     15  H5  HNT d          29.185  45.560  17.026  0.00  0.00     0.083 H 
ATOM     16  H6  HNT d          27.687  44.742  14.721  0.00  0.00     0.088 H 
ATOM     17  H7  HNT d          25.843  40.985  15.623  0.00  0.00     0.087 H 
ATOM     18  H8  HNT d          26.047  41.468  18.039  0.00  0.00     0.084 H 
ATOM     19  H12 HNT d          28.496  46.632  18.945  0.00  0.00     0.278 HD
ATOM     20  H13 HNT d          26.926  46.161  18.791  0.00  0.00     0.278 HD
ENDROOT
BRANCH   2  21
ATOM     21  C22 HNT d          28.255  45.052  20.966  0.00  0.00     0.044 C 
ATOM     22  H10 HNT d          28.755  46.025  21.081  0.00  0.00     0.077 H 
ATOM     23  H11 HNT d          28.834  44.278  21.492  0.00  0.00     0.077 H 
BRANCH  21  24
ATOM     24  O22 HNT d          26.940  45.123  21.522  0.00  0.00    -0.399 OA
ATOM     25  H9  HNT d          26.721  46.030  21.701  0.00  0.00     0.209 HD
ENDBRANCH  21  24
ENDBRANCH   2  21
BRANCH   5  26
ATOM     26  N1  HNT d          26.576  42.605  13.711  0.00  0.00    -0.116 N 
ATOM     27  O2  HNT d          25.948  43.571  12.880  0.00  0.00    -0.532 OA
ATOM     28  O3  HNT d          27.021  41.385  13.135  0.00  0.00    -0.532 OA
ENDBRANCH   5  26
TORSDOF 3
ENDMDL
MODEL 3
REMARK VINA RESULT:      -7.6      0.473      1.008
REMARK  3 active torsions:
REMARK  status: ('A' for Active; 'I' for Inactive)
REMARK    1  A    between atoms: C2_2  and  C22_10 
REMARK    2  A    between atoms: C6_6  and  N1_12 
REMARK    3  A    between atoms: C22_10  and  O22_9 
ROOT
ATOM      1  C1  HNT d          27.901  45.115  18.777  0.00  0.00    -0.012 C 
ATOM      2  C2  HNT d          27.087  44.434  19.880  0.00  0.00     0.126 C 
ATOM      3  C4  HNT d          26.608  42.397  18.627  0.00  0.00     0.106 C 
ATOM      4  C5  HNT d          26.630  42.660  16.131  0.00  0.00    -0.043 A 
ATOM      5  C6  HNT d          26.900  43.355  14.958  0.00  0.00     0.103 A 
ATOM      6  C7  HNT d          27.487  44.615  15.033  0.00  0.00    -0.050 A 
ATOM      7  C8  HNT d          27.805  45.167  16.270  0.00  0.00    -0.074 A 
ATOM      8  C8A HNT d          27.535  44.466  17.440  0.00  0.00    -0.048 A 
ATOM      9  C4A HNT d          26.944  43.208  17.373  0.00  0.00    -0.024 A 
ATOM     10  N41 HNT d          27.262  42.975  19.813  0.00  0.00    -0.065 N 
ATOM     11  H1  HNT d          28.975  44.984  18.973  0.00  0.00     0.043 H 
ATOM     12  H2  HNT d          27.662  46.188  18.748  0.00  0.00     0.043 H 
ATOM     13  H3  HNT d          26.024  44.658  19.710  0.00  0.00     0.088 H 
ATOM     14  H4  HNT d          26.955  41.362  18.492  0.00  0.00     0.083 H 
ATOM     15  H5  HNT d          25.518  42.401  18.778  0.00  0.00     0.083 H 
ATOM     16  H6  HNT d          26.169  41.679  16.079  0.00  0.00     0.088 H 
ATOM     17  H7  HNT d          27.698  45.168  14.124  0.00  0.00     0.087 H 
ATOM     18  H8  HNT d          28.264  46.147  16.322  0.00  0.00     0.084 H 
ATOM     19  H12 HNT d          26.862  42.561  20.641  0.00  0.00     0.278 HD
ATOM     20  H13 HNT d          28.247  42.765  19.775  0.00  0.00     0.278 HD
ENDROOT
BRANCH   2  21
ATOM     21  C22 HNT d          27.473  44.988  21.253  0.00  0.00     0.044 C 
ATOM     22  H10 HNT d          28.025  45.931  21.127  0.00  0.00     0.077 H 
ATOM     23  H11 HNT d          28.108  44.258  21.778  0.00  0.00     0.077 H 
BRANCH  21  24
ATOM     24  O22 HNT d          26.289  45.228  22.019  0.00  0.00    -0.399 OA
ATOM     25  H9  HNT d          25.572  45.439  21.433  0.00  0.00     0.209 HD
ENDBRANCH  21  24
ENDBRANCH   2  21
BRANCH   5  26
ATOM     26  N1  HNT d          26.658  42.799  13.771  0.00  0.00    -0.116 N 
ATOM     27  O2  HNT d          26.623  41.386  13.625  0.00  0.00    -0.532 OA
ATOM     28  O3  HNT d          26.429  43.616  12.631  0.00  0.00    -0.532 OA
ENDBRANCH   5  26
TORSDOF 3
ENDMDL
MODEL 4
REMARK VINA RESULT:      -7.4      1.348      6.000
REMARK  3 active torsions:
REMARK  status: ('A' for Active; 'I' for Inactive)
REMARK    1  A    between atoms: C2_2  and  C22_10 
REMARK    2  A    between atoms: C6_6  and  N1_12 
REMARK    3  A    between atoms: C22_10  and  O22_9 
ROOT
ATOM      1  C1  HNT d          26.748  42.533  15.691  0.00  0.00    -0.012 C 
ATOM      2  C2  HNT d          26.435  43.478  14.530  0.00  0.00     0.126 C 
ATOM      3  C4  HNT d          27.658  45.393  15.419  0.00  0.00     0.106 C 
ATOM      4  C5  HNT d          27.905  45.423  17.916  0.00  0.00    -0.043 A 
ATOM      5  C6  HNT d          27.826  44.847  19.179  0.00  0.00     0.103 A 
ATOM      6  C7  HNT d          27.395  43.529  19.301  0.00  0.00    -0.050 A 
ATOM      7  C8  HNT d          27.052  42.797  18.168  0.00  0.00    -0.074 A 
ATOM      8  C8A HNT d          27.136  43.377  16.907  0.00  0.00    -0.048 A 
ATOM      9  C4A HNT d          27.562  44.696  16.778  0.00  0.00    -0.024 A 
ATOM     10  N41 HNT d          27.551  44.415  14.323  0.00  0.00    -0.065 N 
ATOM     11  H1  HNT d          27.581  41.870  15.417  0.00  0.00     0.043 H 
ATOM     12  H2  HNT d          25.861  41.927  15.927  0.00  0.00     0.043 H 
ATOM     13  H3  HNT d          25.543  44.065  14.794  0.00  0.00     0.088 H 
ATOM     14  H4  HNT d          28.625  45.912  15.346  0.00  0.00     0.083 H 
ATOM     15  H5  HNT d          26.841  46.125  15.331  0.00  0.00     0.083 H 
ATOM     16  H6  HNT d          28.237  46.451  17.816  0.00  0.00     0.088 H 
ATOM     17  H7  HNT d          27.325  43.072  20.282  0.00  0.00     0.087 H 
ATOM     18  H8  HNT d          26.719  41.771  18.269  0.00  0.00     0.084 H 
ATOM     19  H12 HNT d          27.404  44.910  13.457  0.00  0.00     0.278 HD
ATOM     20  H13 HNT d          28.410  43.892  14.269  0.00  0.00     0.278 HD
ENDROOT
BRANCH   2  21
ATOM     21  C22 HNT d          26.119  42.685  13.260  0.00  0.00     0.044 C 
ATOM     22  H10 HNT d          26.529  43.212  12.386  0.00  0.00     0.077 H 
ATOM     23  H11 HNT d          25.028  42.588  13.150  0.00  0.00     0.077 H 
BRANCH  21  24
ATOM     24  O22 HNT d          26.707  41.385  13.352  0.00  0.00    -0.399 OA
ATOM     25  H9  HNT d          27.627  41.437  13.121  0.00  0.00     0.209 HD
ENDBRANCH  21  24
ENDBRANCH   2  21
BRANCH   5  26
ATOM     26  N1  HNT d          28.217  45.525  20.258  0.00  0.00    -0.116 N 
ATOM     27  O2  HNT d          27.829  45.104  21.558  0.00  0.00    -0.532 OA
ATOM     28  O3  HNT d          29.032  46.681  20.122  0.00  0.00    -0.532 OA
ENDBRANCH   5  26
TORSDOF 3
ENDMDL
MODEL 5
REMARK VINA RESULT:      -7.2      1.607      5.635
REMARK  3 active torsions:
REMARK  status: ('A' for Active; 'I' for Inactive)
REMARK    1  A    between atoms: C2_2  and  C22_10 
REMARK    2  A    between atoms: C6_6  and  N1_12 
REMARK    3  A    between atoms: C22_10  and  O22_9 
ROOT
ATOM      1  C1  HNT d          26.954  43.562  15.248  0.00  0.00    -0.012 C 
ATOM      2  C2  HNT d          26.869  42.037  15.345  0.00  0.00     0.126 C 
ATOM      3  C4  HNT d          26.500  41.952  17.755  0.00  0.00     0.106 C 
ATOM      4  C5  HNT d          27.396  43.918  19.033  0.00  0.00    -0.043 A 
ATOM      5  C6  HNT d          27.931  45.198  19.128  0.00  0.00     0.103 A 
ATOM      6  C7  HNT d          28.150  45.933  17.966  0.00  0.00    -0.050 A 
ATOM      7  C8  HNT d          27.829  45.392  16.725  0.00  0.00    -0.074 A 
ATOM      8  C8A HNT d          27.290  44.114  16.635  0.00  0.00    -0.048 A 
ATOM      9  C4A HNT d          27.074  43.371  17.792  0.00  0.00    -0.024 A 
ATOM     10  N41 HNT d          25.948  41.648  16.424  0.00  0.00    -0.065 N 
ATOM     11  H1  HNT d          25.990  43.967  14.909  0.00  0.00     0.043 H 
ATOM     12  H2  HNT d          27.741  43.845  14.534  0.00  0.00     0.043 H 
ATOM     13  H3  HNT d          27.869  41.652  15.596  0.00  0.00     0.088 H 
ATOM     14  H4  HNT d          25.700  41.866  18.506  0.00  0.00     0.083 H 
ATOM     15  H5  HNT d          27.300  41.234  17.987  0.00  0.00     0.083 H 
ATOM     16  H6  HNT d          27.227  43.340  19.934  0.00  0.00     0.088 H 
ATOM     17  H7  HNT d          28.572  46.930  18.029  0.00  0.00     0.087 H 
ATOM     18  H8  HNT d          27.999  45.970  15.824  0.00  0.00     0.084 H 
ATOM     19  H12 HNT d          25.774  40.656  16.362  0.00  0.00     0.278 HD
ATOM     20  H13 HNT d          25.081  42.148  16.310  0.00  0.00     0.278 HD
ENDROOT
BRANCH   2  21
ATOM     21  C22 HNT d          26.454  41.434  14.001  0.00  0.00     0.044 C 
ATOM     22  H10 HNT d          25.381  41.195  14.022  0.00  0.00     0.077 H 
ATOM     23  H11 HNT d          27.031  40.515  13.818  0.00  0.00     0.077 H 
BRANCH  21  24
ATOM     24  O22 HNT d          26.713  42.376  12.958  0.00  0.00    -0.399 OA
ATOM     25  H9  HNT d          26.108  42.227  12.240  0.00  0.00     0.209 HD
ENDBRANCH  21  24
ENDBRANCH   2  21
BRANCH   5  26
ATOM     26  N1  HNT d          28.177  45.742  20.320  0.00  0.00    -0.116 N 
ATOM     27  O2  HNT d          28.882  46.971  20.424  0.00  0.00    -0.532 OA
ATOM     28  O3  HNT d          27.733  45.099  21.506  0.00  0.00    -0.532 OA
ENDBRANCH   5  26
TORSDOF 3
ENDMDL
