MODEL 1
REMARK VINA RESULT:      -7.8      0.000      0.000
REMARK  6 active torsions:
REMARK  status: ('A' for Active; 'I' for Inactive)
REMARK    1  A    between atoms: P_1  and  O5'_4 
REMARK    2  A    between atoms: O5'_4  and  C5'_6 
REMARK    3  A    between atoms: C5'_6  and  C4'_7 
REMARK    4  A    between atoms: C1'_9  and  N9_10 
REMARK    5  A    between atoms: C2'_21  and  O2'_22 
REMARK    6  A    between atoms: C3'_23  and  O3'_24 
ROOT
ATOM      1  C4' XMP d           1.880  39.547  47.618  0.00  0.00     0.089 C 
ATOM      2  O4' XMP d           2.844  40.628  47.395  0.00  0.00    -0.353 OA
ATOM      3  C1' XMP d           2.141  41.802  46.948  0.00  0.00     0.139 C 
ATOM      4  C2' XMP d           0.663  41.451  46.848  0.00  0.00     0.105 C 
ATOM      5  C3' XMP d           0.676  39.953  46.773  0.00  0.00     0.091 C 
ATOM      6  H3  XMP d           1.575  39.474  48.672  0.00  0.00     0.090 H 
ATOM      7  H4  XMP d           2.242  42.601  47.697  0.00  0.00     0.122 H 
ATOM      8  H8  XMP d           0.222  41.885  45.939  0.00  0.00     0.093 H 
ATOM      9  H10 XMP d           0.819  39.622  45.733  0.00  0.00     0.091 H 
ENDROOT
BRANCH   3  10
ATOM     10  N9  XMP d           2.815  42.258  45.710  0.00  0.00    -0.295 N 
ATOM     11  C4  XMP d           3.602  43.388  45.642  0.00  0.00     0.149 A 
ATOM     12  N3  XMP d           3.890  44.262  46.677  0.00  0.00    -0.292 N 
ATOM     13  C5  XMP d           4.035  43.452  44.333  0.00  0.00     0.170 A 
ATOM     14  C2  XMP d           4.705  45.278  46.273  0.00  0.00     0.328 A 
ATOM     15  H5  XMP d           3.543  44.161  47.609  0.00  0.00     0.172 HD
ATOM     16  N1  XMP d           5.190  45.422  44.969  0.00  0.00    -0.273 N 
ATOM     17  O2  XMP d           5.076  46.153  47.050  0.00  0.00    -0.247 OA
ATOM     18  C6  XMP d           4.884  44.512  43.906  0.00  0.00     0.282 A 
ATOM     19  H6  XMP d           5.782  46.203  44.768  0.00  0.00     0.173 HD
ATOM     20  O6  XMP d           5.338  44.691  42.783  0.00  0.00    -0.265 OA
ATOM     21  N7  XMP d           3.528  42.373  43.562  0.00  0.00    -0.234 NA
ATOM     22  C8  XMP d           2.820  41.714  44.445  0.00  0.00     0.071 A 
ATOM     23  H7  XMP d           2.277  40.803  44.197  0.00  0.00     0.144 H 
ENDBRANCH   3  10
BRANCH   4  24
ATOM     24  O2' XMP d          -0.074  41.906  47.989  0.00  0.00    -0.388 OA
ATOM     25  H9  XMP d          -0.607  41.195  48.325  0.00  0.00     0.210 HD
ENDBRANCH   4  24
BRANCH   1  26
ATOM     26  C5' XMP d           2.625  38.296  47.230  0.00  0.00     0.059 C 
ATOM     27  H1  XMP d           3.704  38.455  47.371  0.00  0.00     0.079 H 
ATOM     28  H2  XMP d           2.291  37.461  47.863  0.00  0.00     0.079 H 
BRANCH  26  29
ATOM     29  O5' XMP d           2.366  37.985  45.857  0.00  0.00    -0.280 OA
BRANCH  29  30
ATOM     30  P   XMP d           3.452  37.294  44.895  0.00  0.00     0.422 P 
ATOM     31  O1P XMP d           4.127  38.306  44.080  0.00  0.00    -0.617 OA
ATOM     32  O2P XMP d           2.674  36.329  44.040  0.00  0.00    -0.617 OA
ATOM     33  O3P XMP d           4.433  36.561  45.843  0.00  0.00    -0.617 OA
ENDBRANCH  29  30
ENDBRANCH  26  29
ENDBRANCH   1  26
BRANCH   5  34
ATOM     34  O3' XMP d          -0.543  39.414  47.257  0.00  0.00    -0.390 OA
ATOM     35  H11 XMP d          -1.149  40.122  47.444  0.00  0.00     0.210 HD
ENDBRANCH   5  34
TORSDOF 6
ENDMDL
MODEL 2
REMARK VINA RESULT:      -7.2      2.893      5.919
REMARK  6 active torsions:
REMARK  status: ('A' for Active; 'I' for Inactive)
REMARK    1  A    between atoms: P_1  and  O5'_4 
REMARK    2  A    between atoms: O5'_4  and  C5'_6 
REMARK    3  A    between atoms: C5'_6  and  C4'_7 
REMARK    4  A    between atoms: C1'_9  and  N9_10 
REMARK    5  A    between atoms: C2'_21  and  O2'_22 
REMARK    6  A    between atoms: C3'_23  and  O3'_24 
ROOT
ATOM      1  C4' XMP d           2.795  44.859  46.447  0.00  0.00     0.089 C 
ATOM      2  O4' XMP d           2.475  43.540  45.895  0.00  0.00    -0.353 OA
ATOM      3  C1' XMP d           1.351  42.990  46.606  0.00  0.00     0.139 C 
ATOM      4  C2' XMP d           0.952  43.985  47.687  0.00  0.00     0.105 C 
ATOM      5  C3' XMP d           2.184  44.825  47.845  0.00  0.00     0.091 C 
ATOM      6  H3  XMP d           2.335  45.674  45.870  0.00  0.00     0.090 H 
ATOM      7  H4  XMP d           0.497  42.882  45.922  0.00  0.00     0.122 H 
ATOM      8  H8  XMP d           0.711  43.463  48.625  0.00  0.00     0.093 H 
ATOM      9  H10 XMP d           2.885  44.351  48.549  0.00  0.00     0.091 H 
ENDROOT
BRANCH   3  10
ATOM     10  N9  XMP d           1.748  41.633  47.048  0.00  0.00    -0.295 N 
ATOM     11  C4  XMP d           2.538  40.787  46.297  0.00  0.00     0.149 A 
ATOM     12  N3  XMP d           3.076  41.046  45.048  0.00  0.00    -0.292 N 
ATOM     13  C5  XMP d           2.671  39.643  47.058  0.00  0.00     0.170 A 
ATOM     14  C2  XMP d           3.814  39.998  44.585  0.00  0.00     0.328 A 
ATOM     15  H5  XMP d           2.941  41.899  44.546  0.00  0.00     0.172 HD
ATOM     16  N1  XMP d           4.002  38.802  45.287  0.00  0.00    -0.273 N 
ATOM     17  O2  XMP d           4.377  40.038  43.495  0.00  0.00    -0.247 OA
ATOM     18  C6  XMP d           3.439  38.545  46.578  0.00  0.00     0.282 A 
ATOM     19  H6  XMP d           4.560  38.088  44.863  0.00  0.00     0.173 HD
ATOM     20  O6  XMP d           3.638  37.477  47.144  0.00  0.00    -0.265 OA
ATOM     21  N7  XMP d           1.971  39.749  48.289  0.00  0.00    -0.234 NA
ATOM     22  C8  XMP d           1.456  40.950  48.208  0.00  0.00     0.071 A 
ATOM     23  H7  XMP d           0.841  41.378  48.999  0.00  0.00     0.144 H 
ENDBRANCH   3  10
BRANCH   4  24
ATOM     24  O2' XMP d          -0.172  44.782  47.293  0.00  0.00    -0.388 OA
ATOM     25  H9  XMP d          -0.649  44.336  46.602  0.00  0.00     0.210 HD
ENDBRANCH   4  24
BRANCH   1  26
ATOM     26  C5' XMP d           4.295  44.958  46.335  0.00  0.00     0.059 C 
ATOM     27  H1  XMP d           4.690  45.511  47.200  0.00  0.00     0.079 H 
ATOM     28  H2  XMP d           4.727  43.947  46.317  0.00  0.00     0.079 H 
BRANCH  26  29
ATOM     29  O5' XMP d           4.645  45.646  45.130  0.00  0.00    -0.280 OA
BRANCH  29  30
ATOM     30  P   XMP d           4.774  44.913  43.707  0.00  0.00     0.422 P 
ATOM     31  O1P XMP d           5.827  45.539  42.904  0.00  0.00    -0.617 OA
ATOM     32  O2P XMP d           3.424  45.060  43.055  0.00  0.00    -0.617 OA
ATOM     33  O3P XMP d           5.095  43.433  44.034  0.00  0.00    -0.617 OA
ENDBRANCH  29  30
ENDBRANCH  26  29
ENDBRANCH   1  26
BRANCH   5  34
ATOM     34  O3' XMP d           1.855  46.115  48.333  0.00  0.00    -0.390 OA
ATOM     35  H11 XMP d           2.412  46.325  49.073  0.00  0.00     0.210 HD
ENDBRANCH   5  34
TORSDOF 6
ENDMDL
MODEL 3
REMARK VINA RESULT:      -6.4      1.540      2.597
REMARK  6 active torsions:
REMARK  status: ('A' for Active; 'I' for Inactive)
REMARK    1  A    between atoms: P_1  and  O5'_4 
REMARK    2  A    between atoms: O5'_4  and  C5'_6 
REMARK    3  A    between atoms: C5'_6  and  C4'_7 
REMARK    4  A    between atoms: C1'_9  and  N9_10 
REMARK    5  A    between atoms: C2'_21  and  O2'_22 
REMARK    6  A    between atoms: C3'_23  and  O3'_24 
ROOT
ATOM      1  C4' XMP d           2.085  39.417  45.503  0.00  0.00     0.089 C 
ATOM      2  O4' XMP d           2.676  40.231  46.568  0.00  0.00    -0.353 OA
ATOM      3  C1' XMP d           1.683  41.142  47.073  0.00  0.00     0.139 C 
ATOM      4  C2' XMP d           0.404  40.927  46.275  0.00  0.00     0.105 C 
ATOM      5  C3' XMP d           0.893  40.245  45.032  0.00  0.00     0.091 C 
ATOM      6  H3  XMP d           1.727  38.445  45.874  0.00  0.00     0.090 H 
ATOM      7  H4  XMP d           1.462  40.903  48.124  0.00  0.00     0.122 H 
ATOM      8  H8  XMP d          -0.069  41.890  46.034  0.00  0.00     0.093 H 
ATOM      9  H10 XMP d           1.223  40.989  44.291  0.00  0.00     0.091 H 
ENDROOT
BRANCH   3  10
ATOM     10  N9  XMP d           2.286  42.495  47.036  0.00  0.00    -0.295 N 
ATOM     11  C4  XMP d           3.157  42.915  46.053  0.00  0.00     0.149 A 
ATOM     12  N3  XMP d           3.605  42.177  44.971  0.00  0.00    -0.292 N 
ATOM     13  C5  XMP d           3.475  44.217  46.381  0.00  0.00     0.170 A 
ATOM     14  C2  XMP d           4.457  42.892  44.184  0.00  0.00     0.328 A 
ATOM     15  H5  XMP d           3.336  41.231  44.788  0.00  0.00     0.172 HD
ATOM     16  N1  XMP d           4.836  44.214  44.440  0.00  0.00    -0.273 N 
ATOM     17  O2  XMP d           4.958  42.410  43.172  0.00  0.00    -0.247 OA
ATOM     18  C6  XMP d           4.367  44.968  45.564  0.00  0.00     0.282 A 
ATOM     19  H6  XMP d           5.469  44.657  43.805  0.00  0.00     0.173 HD
ATOM     20  O6  XMP d           4.735  46.124  45.737  0.00  0.00    -0.265 OA
ATOM     21  N7  XMP d           2.817  44.633  47.569  0.00  0.00    -0.234 NA
ATOM     22  C8  XMP d           2.135  43.563  47.892  0.00  0.00     0.071 A 
ATOM     23  H7  XMP d           1.495  43.521  48.773  0.00  0.00     0.144 H 
ENDBRANCH   3  10
BRANCH   4  24
ATOM     24  O2' XMP d          -0.536  40.106  46.981  0.00  0.00    -0.388 OA
ATOM     25  H9  XMP d          -1.415  40.301  46.677  0.00  0.00     0.210 HD
ENDBRANCH   4  24
BRANCH   1  26
ATOM     26  C5' XMP d           3.215  39.191  44.533  0.00  0.00     0.059 C 
ATOM     27  H1  XMP d           3.123  39.896  43.694  0.00  0.00     0.079 H 
ATOM     28  H2  XMP d           4.175  39.354  45.045  0.00  0.00     0.079 H 
BRANCH  26  29
ATOM     29  O5' XMP d           3.165  37.850  44.034  0.00  0.00    -0.280 OA
BRANCH  29  30
ATOM     30  P   XMP d           4.434  36.867  44.034  0.00  0.00     0.422 P 
ATOM     31  O1P XMP d           4.434  36.036  42.827  0.00  0.00    -0.617 OA
ATOM     32  O2P XMP d           4.295  36.030  45.278  0.00  0.00    -0.617 OA
ATOM     33  O3P XMP d           5.673  37.794  44.101  0.00  0.00    -0.617 OA
ENDBRANCH  29  30
ENDBRANCH  26  29
ENDBRANCH   1  26
BRANCH   5  34
ATOM     34  O3' XMP d          -0.133  39.455  44.455  0.00  0.00    -0.390 OA
ATOM     35  H11 XMP d           0.253  38.818  43.865  0.00  0.00     0.210 HD
ENDBRANCH   5  34
TORSDOF 6
ENDMDL
MODEL 4
REMARK VINA RESULT:      -6.4      2.132      3.656
REMARK  6 active torsions:
REMARK  status: ('A' for Active; 'I' for Inactive)
REMARK    1  A    between atoms: P_1  and  O5'_4 
REMARK    2  A    between atoms: O5'_4  and  C5'_6 
REMARK    3  A    between atoms: C5'_6  and  C4'_7 
REMARK    4  A    between atoms: C1'_9  and  N9_10 
REMARK    5  A    between atoms: C2'_21  and  O2'_22 
REMARK    6  A    between atoms: C3'_23  and  O3'_24 
ROOT
ATOM      1  C4' XMP d           3.282  39.451  45.377  0.00  0.00     0.089 C 
ATOM      2  O4' XMP d           2.207  40.446  45.310  0.00  0.00    -0.353 OA
ATOM      3  C1' XMP d           2.784  41.753  45.134  0.00  0.00     0.139 C 
ATOM      4  C2' XMP d           4.298  41.596  45.120  0.00  0.00     0.105 C 
ATOM      5  C3' XMP d           4.506  40.266  45.782  0.00  0.00     0.091 C 
ATOM      6  H3  XMP d           3.468  38.976  44.403  0.00  0.00     0.090 H 
ATOM      7  H4  XMP d           2.483  42.160  44.157  0.00  0.00     0.122 H 
ATOM      8  H8  XMP d           4.777  42.400  45.697  0.00  0.00     0.093 H 
ATOM      9  H10 XMP d           4.535  40.383  46.876  0.00  0.00     0.091 H 
ENDROOT
BRANCH   3  10
ATOM     10  N9  XMP d           2.202  42.622  46.183  0.00  0.00    -0.295 N 
ATOM     11  C4  XMP d           2.807  43.773  46.642  0.00  0.00     0.149 A 
ATOM     12  N3  XMP d           4.017  44.298  46.222  0.00  0.00    -0.292 N 
ATOM     13  C5  XMP d           1.950  44.277  47.598  0.00  0.00     0.170 A 
ATOM     14  C2  XMP d           4.326  45.452  46.877  0.00  0.00     0.328 A 
ATOM     15  H5  XMP d           4.596  43.881  45.521  0.00  0.00     0.172 HD
ATOM     16  N1  XMP d           3.518  46.035  47.859  0.00  0.00    -0.273 N 
ATOM     17  O2  XMP d           5.359  46.072  46.639  0.00  0.00    -0.247 OA
ATOM     18  C6  XMP d           2.269  45.482  48.287  0.00  0.00     0.282 A 
ATOM     19  H6  XMP d           3.830  46.884  48.286  0.00  0.00     0.173 HD
ATOM     20  O6  XMP d           1.604  46.037  49.153  0.00  0.00    -0.265 OA
ATOM     21  N7  XMP d           0.802  43.457  47.757  0.00  0.00    -0.234 NA
ATOM     22  C8  XMP d           1.024  42.504  46.887  0.00  0.00     0.071 A 
ATOM     23  H7  XMP d           0.330  41.679  46.732  0.00  0.00     0.144 H 
ENDBRANCH   3  10
BRANCH   4  24
ATOM     24  O2' XMP d           4.825  41.599  43.786  0.00  0.00    -0.388 OA
ATOM     25  H9  XMP d           4.799  42.483  43.438  0.00  0.00     0.210 HD
ENDBRANCH   4  24
BRANCH   1  26
ATOM     26  C5' XMP d           2.773  38.415  46.345  0.00  0.00     0.059 C 
ATOM     27  H1  XMP d           3.504  37.597  46.423  0.00  0.00     0.079 H 
ATOM     28  H2  XMP d           2.632  38.876  47.334  0.00  0.00     0.079 H 
BRANCH  26  29
ATOM     29  O5' XMP d           1.523  37.893  45.883  0.00  0.00    -0.280 OA
BRANCH  29  30
ATOM     30  P   XMP d           1.335  37.221  44.436  0.00  0.00     0.422 P 
ATOM     31  O1P XMP d           2.588  36.603  43.995  0.00  0.00    -0.617 OA
ATOM     32  O2P XMP d           0.926  38.346  43.521  0.00  0.00    -0.617 OA
ATOM     33  O3P XMP d           0.203  36.180  44.609  0.00  0.00    -0.617 OA
ENDBRANCH  29  30
ENDBRANCH  26  29
ENDBRANCH   1  26
BRANCH   5  34
ATOM     34  O3' XMP d           5.724  39.678  45.357  0.00  0.00    -0.390 OA
ATOM     35  H11 XMP d           6.140  39.245  46.093  0.00  0.00     0.210 HD
ENDBRANCH   5  34
TORSDOF 6
ENDMDL
MODEL 5
REMARK VINA RESULT:      -6.4      2.788      6.384
REMARK  6 active torsions:
REMARK  status: ('A' for Active; 'I' for Inactive)
REMARK    1  A    between atoms: P_1  and  O5'_4 
REMARK    2  A    between atoms: O5'_4  and  C5'_6 
REMARK    3  A    between atoms: C5'_6  and  C4'_7 
REMARK    4  A    between atoms: C1'_9  and  N9_10 
REMARK    5  A    between atoms: C2'_21  and  O2'_22 
REMARK    6  A    between atoms: C3'_23  and  O3'_24 
ROOT
ATOM      1  C4' XMP d           3.835  43.895  46.115  0.00  0.00     0.089 C 
ATOM      2  O4' XMP d           3.937  42.443  46.288  0.00  0.00    -0.353 OA
ATOM      3  C1' XMP d           4.284  41.840  45.028  0.00  0.00     0.139 C 
ATOM      4  C2' XMP d           4.376  42.950  43.990  0.00  0.00     0.105 C 
ATOM      5  C3' XMP d           3.594  44.066  44.618  0.00  0.00     0.091 C 
ATOM      6  H3  XMP d           4.764  44.412  46.395  0.00  0.00     0.090 H 
ATOM      7  H4  XMP d           5.276  41.372  45.102  0.00  0.00     0.122 H 
ATOM      8  H8  XMP d           3.916  42.635  43.042  0.00  0.00     0.093 H 
ATOM      9  H10 XMP d           2.522  43.956  44.396  0.00  0.00     0.091 H 
ENDROOT
BRANCH   3  10
ATOM     10  N9  XMP d           3.295  40.764  44.783  0.00  0.00    -0.295 N 
ATOM     11  C4  XMP d           3.583  39.421  44.907  0.00  0.00     0.149 A 
ATOM     12  N3  XMP d           4.798  38.863  45.267  0.00  0.00    -0.292 N 
ATOM     13  C5  XMP d           2.407  38.767  44.599  0.00  0.00     0.170 A 
ATOM     14  C2  XMP d           4.743  37.502  45.300  0.00  0.00     0.328 A 
ATOM     15  H5  XMP d           5.618  39.395  45.478  0.00  0.00     0.172 HD
ATOM     16  N1  XMP d           3.597  36.757  45.003  0.00  0.00    -0.273 N 
ATOM     17  O2  XMP d           5.721  36.825  45.603  0.00  0.00    -0.247 OA
ATOM     18  C6  XMP d           2.345  37.345  44.630  0.00  0.00     0.282 A 
ATOM     19  H6  XMP d           3.654  35.760  45.053  0.00  0.00     0.173 HD
ATOM     20  O6  XMP d           1.375  36.641  44.380  0.00  0.00    -0.265 OA
ATOM     21  N7  XMP d           1.370  39.681  44.276  0.00  0.00    -0.234 NA
ATOM     22  C8  XMP d           1.972  40.836  44.409  0.00  0.00     0.071 A 
ATOM     23  H7  XMP d           1.463  41.784  44.237  0.00  0.00     0.144 H 
ENDBRANCH   3  10
BRANCH   4  24
ATOM     24  O2' XMP d           5.733  43.342  43.745  0.00  0.00    -0.388 OA
ATOM     25  H9  XMP d           6.247  43.213  44.534  0.00  0.00     0.210 HD
ENDBRANCH   4  24
BRANCH   1  26
ATOM     26  C5' XMP d           2.735  44.308  47.058  0.00  0.00     0.059 C 
ATOM     27  H1  XMP d           3.166  44.882  47.892  0.00  0.00     0.079 H 
ATOM     28  H2  XMP d           2.007  44.932  46.520  0.00  0.00     0.079 H 
BRANCH  26  29
ATOM     29  O5' XMP d           2.077  43.146  47.572  0.00  0.00    -0.280 OA
BRANCH  29  30
ATOM     30  P   XMP d           0.480  43.030  47.705  0.00  0.00     0.422 P 
ATOM     31  O1P XMP d           0.085  41.631  47.889  0.00  0.00    -0.617 OA
ATOM     32  O2P XMP d          -0.072  43.593  46.422  0.00  0.00    -0.617 OA
ATOM     33  O3P XMP d           0.104  43.905  48.926  0.00  0.00    -0.617 OA
ENDBRANCH  29  30
ENDBRANCH  26  29
ENDBRANCH   1  26
BRANCH   5  34
ATOM     34  O3' XMP d           4.032  45.324  44.131  0.00  0.00    -0.390 OA
ATOM     35  H11 XMP d           4.508  45.779  44.815  0.00  0.00     0.210 HD
ENDBRANCH   5  34
TORSDOF 6
ENDMDL
MODEL 6
REMARK VINA RESULT:      -6.0      3.008      6.071
REMARK  6 active torsions:
REMARK  status: ('A' for Active; 'I' for Inactive)
REMARK    1  A    between atoms: P_1  and  O5'_4 
REMARK    2  A    between atoms: O5'_4  and  C5'_6 
REMARK    3  A    between atoms: C5'_6  and  C4'_7 
REMARK    4  A    between atoms: C1'_9  and  N9_10 
REMARK    5  A    between atoms: C2'_21  and  O2'_22 
REMARK    6  A    between atoms: C3'_23  and  O3'_24 
ROOT
ATOM      1  C4' XMP d           3.558  43.114  45.610  0.00  0.00     0.089 C 
ATOM      2  O4' XMP d           4.040  41.817  46.093  0.00  0.00    -0.353 OA
ATOM      3  C1' XMP d           4.703  41.129  45.017  0.00  0.00     0.139 C 
ATOM      4  C2' XMP d           4.615  42.007  43.777  0.00  0.00     0.105 C 
ATOM      5  C3' XMP d           3.477  42.931  44.097  0.00  0.00     0.091 C 
ATOM      6  H3  XMP d           4.261  43.929  45.839  0.00  0.00     0.090 H 
ATOM      7  H4  XMP d           5.768  41.002  45.259  0.00  0.00     0.122 H 
ATOM      8  H8  XMP d           4.390  41.402  42.887  0.00  0.00     0.093 H 
ATOM      9  H10 XMP d           2.517  42.464  43.827  0.00  0.00     0.091 H 
ENDROOT
BRANCH   3  10
ATOM     10  N9  XMP d           4.096  39.779  44.935  0.00  0.00    -0.295 N 
ATOM     11  C4  XMP d           2.755  39.558  44.701  0.00  0.00     0.149 A 
ATOM     12  N3  XMP d           1.778  40.520  44.509  0.00  0.00    -0.292 N 
ATOM     13  C5  XMP d           2.608  38.187  44.698  0.00  0.00     0.170 A 
ATOM     14  C2  XMP d           0.552  39.964  44.297  0.00  0.00     0.328 A 
ATOM     15  H5  XMP d           1.950  41.505  44.524  0.00  0.00     0.172 HD
ATOM     16  N1  XMP d           0.310  38.586  44.278  0.00  0.00    -0.273 N 
ATOM     17  O2  XMP d          -0.444  40.655  44.102  0.00  0.00    -0.247 OA
ATOM     18  C6  XMP d           1.329  37.601  44.479  0.00  0.00     0.282 A 
ATOM     19  H6  XMP d          -0.626  38.272  44.115  0.00  0.00     0.173 HD
ATOM     20  O6  XMP d           1.056  36.407  44.452  0.00  0.00    -0.265 OA
ATOM     21  N7  XMP d           3.844  37.527  44.931  0.00  0.00    -0.234 NA
ATOM     22  C8  XMP d           4.671  38.534  45.059  0.00  0.00     0.071 A 
ATOM     23  H7  XMP d           5.735  38.397  45.250  0.00  0.00     0.144 H 
ENDBRANCH   3  10
BRANCH   4  24
ATOM     24  O2' XMP d           5.827  42.739  43.552  0.00  0.00    -0.388 OA
ATOM     25  H9  XMP d           5.925  43.403  44.224  0.00  0.00     0.210 HD
ENDBRANCH   4  24
BRANCH   1  26
ATOM     26  C5' XMP d           2.273  43.341  46.363  0.00  0.00     0.059 C 
ATOM     27  H1  XMP d           2.391  44.206  47.033  0.00  0.00     0.079 H 
ATOM     28  H2  XMP d           1.461  43.539  45.648  0.00  0.00     0.079 H 
BRANCH  26  29
ATOM     29  O5' XMP d           1.954  42.180  47.136  0.00  0.00    -0.280 OA
BRANCH  29  30
ATOM     30  P   XMP d           0.483  41.886  47.710  0.00  0.00     0.422 P 
ATOM     31  O1P XMP d          -0.522  42.611  46.930  0.00  0.00    -0.617 OA
ATOM     32  O2P XMP d           0.510  42.354  49.142  0.00  0.00    -0.617 OA
ATOM     33  O3P XMP d           0.301  40.352  47.610  0.00  0.00    -0.617 OA
ENDBRANCH  29  30
ENDBRANCH  26  29
ENDBRANCH   1  26
BRANCH   5  34
ATOM     34  O3' XMP d           3.604  44.152  43.387  0.00  0.00    -0.390 OA
ATOM     35  H11 XMP d           3.073  44.116  42.600  0.00  0.00     0.210 HD
ENDBRANCH   5  34
TORSDOF 6
ENDMDL
