MODEL 1
REMARK VINA RESULT:      -7.5      0.000      0.000
REMARK  16 active torsions:
REMARK  status: ('A' for Active; 'I' for Inactive)
REMARK    1  A    between atoms: S8_1  and  C35_3 
REMARK    2  A    between atoms: N11_14  and  S8_1 
REMARK    3  A    between atoms: O9_5  and  C10_4 
REMARK    4  A    between atoms: C5_6  and  O9_5 
REMARK    5  A    between atoms: C45_25  and  C13_13 
REMARK       I    between atoms: C13_13  and  N15_30 
REMARK    6  A    between atoms: C45_25  and  N11_14 
REMARK    7  A    between atoms: C15_16  and  C31_17 
REMARK    8  A    between atoms: N14_29  and  C15_16 
REMARK    9  A    between atoms: C12_26  and  C45_25 
REMARK   10  A    between atoms: C46_27  and  C12_26 
REMARK       I    between atoms: C46_27  and  N14_29 
REMARK   11  A    between atoms: C16_31  and  C17_32 
REMARK       I    between atoms: C17_32  and  N19_37 
REMARK   12  A    between atoms: N19_37  and  C20_38 
REMARK   13  A    between atoms: C20_38  and  C21_39 
REMARK   14  A    between atoms: C24_42  and  C27_43 
REMARK   15  A    between atoms: C27_43  and  N29_44 
REMARK   16  A    between atoms: C27_43  and  N28_45 
ROOT
ATOM      1  C31 MOL d          13.906 -11.417  20.718  0.00  0.00    -0.040 A 
ATOM      2  C32 MOL d          13.842 -10.104  20.866  0.00  0.00    -0.074 A 
ATOM      3  C33 MOL d          13.004  -9.624  21.787  0.00  0.00    -0.062 A 
ATOM      4  C44 MOL d          12.184 -10.377  22.556  0.00  0.00     0.044 A 
ATOM      5  C8  MOL d          12.240 -11.738  22.413  0.00  0.00    -0.062 A 
ATOM      6  C9  MOL d          13.048 -12.140  21.463  0.00  0.00    -0.074 A 
ATOM      7  C40 MOL d          11.492  -9.829  23.383  0.00  0.00     0.099 C 
ATOM      8  N63 MOL d          10.951  -9.367  24.228  0.00  0.00    -0.191 NA
ATOM      9  H10 MOL d          14.448  -9.441  20.260  0.00  0.00     0.084 H 
ATOM     10  H11 MOL d          12.978  -8.550  21.930  0.00  0.00     0.085 H 
ATOM     11  H12 MOL d          11.667 -12.421  23.029  0.00  0.00     0.085 H 
ATOM     12  H13 MOL d          13.023 -13.202  21.246  0.00  0.00     0.084 H 
ENDROOT
BRANCH   1  13
ATOM     13  C15 MOL d          14.788 -11.988  19.749  0.00  0.00     0.019 C 
ATOM     14  H8  MOL d          14.885 -11.270  18.921  0.00  0.00     0.071 H 
ATOM     15  H9  MOL d          14.326 -12.914  19.378  0.00  0.00     0.071 H 
BRANCH  13  16
ATOM     16  N14 MOL d          16.170 -12.326  20.223  0.00  0.00    -0.357 N 
ATOM     17  C46 MOL d          16.888 -13.422  20.039  0.00  0.00     0.220 C 
ATOM     18  O22 MOL d          16.509 -14.376  19.543  0.00  0.00    -0.274 OA
ATOM     19  H17 MOL d          16.618 -11.613  20.762  0.00  0.00     0.162 HD
BRANCH  17  20
ATOM     20  C12 MOL d          18.318 -13.510  20.679  0.00  0.00     0.037 C 
ATOM     21  H15 MOL d          19.059 -13.474  19.867  0.00  0.00     0.051 H 
ATOM     22  H16 MOL d          18.453 -12.640  21.338  0.00  0.00     0.051 H 
BRANCH  20  23
ATOM     23  C45 MOL d          18.589 -14.840  21.545  0.00  0.00     0.105 C 
ATOM     24  H14 MOL d          18.423 -15.726  20.915  0.00  0.00     0.089 H 
BRANCH  23  25
ATOM     25  C13 MOL d          20.106 -14.733  21.961  0.00  0.00     0.244 C 
ATOM     26  O14 MOL d          20.878 -15.275  21.246  0.00  0.00    -0.271 OA
ATOM     27  N15 MOL d          20.364 -14.081  23.024  0.00  0.00    -0.337 N 
ATOM     28  C16 MOL d          21.637 -14.183  23.596  0.00  0.00     0.091 C 
ATOM     29  C2  MOL d          19.407 -13.469  23.942  0.00  0.00    -0.001 C 
ATOM     30  C34 MOL d          21.536 -13.528  24.963  0.00  0.00    -0.036 C 
ATOM     31  H18 MOL d          22.434 -13.769  22.962  0.00  0.00     0.087 H 
ATOM     32  C1  MOL d          20.169 -12.939  25.083  0.00  0.00    -0.048 C 
ATOM     33  H19 MOL d          22.295 -12.737  25.057  0.00  0.00     0.036 H 
ATOM     34  H20 MOL d          21.691 -14.280  25.751  0.00  0.00     0.036 H 
ATOM     35  H21 MOL d          20.218 -11.841  25.034  0.00  0.00     0.035 H 
ATOM     36  H22 MOL d          19.702 -13.244  26.032  0.00  0.00     0.035 H 
ATOM     37  H23 MOL d          18.686 -14.223  24.290  0.00  0.00     0.064 H 
ATOM     38  H24 MOL d          18.870 -12.654  23.437  0.00  0.00     0.064 H 
BRANCH  28  39
ATOM     39  C17 MOL d          21.823 -15.708  23.946  0.00  0.00     0.240 C 
ATOM     40  O18 MOL d          22.118 -16.536  23.163  0.00  0.00    -0.271 OA
ATOM     41  N19 MOL d          21.502 -16.048  25.233  0.00  0.00    -0.355 N 
ATOM     42  H25 MOL d          21.169 -15.326  25.839  0.00  0.00     0.162 HD
BRANCH  41  43
ATOM     43  C20 MOL d          21.610 -17.367  25.762  0.00  0.00     0.019 C 
ATOM     44  H26 MOL d          22.122 -17.341  26.736  0.00  0.00     0.071 H 
ATOM     45  H27 MOL d          22.175 -18.006  25.068  0.00  0.00     0.071 H 
BRANCH  43  46
ATOM     46  C21 MOL d          20.222 -17.893  25.928  0.00  0.00    -0.040 A 
ATOM     47  C26 MOL d          19.239 -17.234  26.602  0.00  0.00    -0.074 A 
ATOM     48  C25 MOL d          18.035 -17.683  26.767  0.00  0.00    -0.069 A 
ATOM     49  H28 MOL d          19.480 -16.268  27.030  0.00  0.00     0.084 H 
ATOM     50  C24 MOL d          17.627 -18.853  26.316  0.00  0.00     0.007 A 
ATOM     51  H29 MOL d          17.325 -17.064  27.304  0.00  0.00     0.085 H 
ATOM     52  C23 MOL d          18.567 -19.571  25.689  0.00  0.00    -0.069 A 
ATOM     53  C22 MOL d          19.799 -19.072  25.520  0.00  0.00    -0.074 A 
ATOM     54  H34 MOL d          18.329 -20.560  25.317  0.00  0.00     0.085 H 
ATOM     55  H35 MOL d          20.514 -19.697  24.998  0.00  0.00     0.084 H 
BRANCH  50  56
ATOM     56  C27 MOL d          16.304 -19.368  26.479  0.00  0.00     0.102 C 
BRANCH  56  57
ATOM     57  N29 MOL d          16.035 -20.054  27.395  0.00  0.00    -0.385 N 
ATOM     58  H30 MOL d          15.923 -21.070  27.262  0.00  0.00     0.157 HD
ATOM     59  H31 MOL d          15.911 -19.641  28.330  0.00  0.00     0.157 HD
ENDBRANCH  56  57
BRANCH  56  60
ATOM     60  N28 MOL d          15.375 -19.047  25.665  0.00  0.00    -0.385 N 
ATOM     61  H32 MOL d          14.660 -19.741  25.400  0.00  0.00     0.157 HD
ATOM     62  H33 MOL d          15.339 -18.096  25.272  0.00  0.00     0.157 HD
ENDBRANCH  56  60
ENDBRANCH  50  56
ENDBRANCH  43  46
ENDBRANCH  41  43
ENDBRANCH  28  39
ENDBRANCH  23  25
BRANCH  23  63
ATOM     63  N11 MOL d          17.829 -14.955  22.649  0.00  0.00    -0.301 N 
ATOM     64  H7  MOL d          17.867 -14.250  23.358  0.00  0.00     0.173 HD
BRANCH  63  65
ATOM     65  S8  MOL d          16.882 -16.198  22.825  0.00  0.00     0.259 S 
ATOM     66  O1  MOL d          16.017 -15.850  22.066  0.00  0.00    -0.201 OA
ATOM     67  O10 MOL d          16.754 -16.543  23.899  0.00  0.00    -0.201 OA
BRANCH  65  68
ATOM     68  C35 MOL d          17.610 -17.492  21.938  0.00  0.00     0.081 A 
ATOM     69  C7  MOL d          17.121 -17.949  20.744  0.00  0.00    -0.058 A 
ATOM     70  C6  MOL d          17.755 -18.967  20.027  0.00  0.00    -0.048 A 
ATOM     71  H4  MOL d          16.214 -17.509  20.344  0.00  0.00     0.086 H 
ATOM     72  C5  MOL d          18.945 -19.473  20.494  0.00  0.00     0.089 A 
ATOM     73  H6  MOL d          17.315 -19.352  19.114  0.00  0.00     0.087 H 
ATOM     74  C4  MOL d          19.428 -18.948  21.634  0.00  0.00     0.068 A 
ATOM     75 CL   MOL d          20.992 -19.546  22.175  0.00  0.00    -0.081 Cl
ATOM     76  C3  MOL d          18.846 -18.030  22.351  0.00  0.00    -0.037 A 
ATOM     77  H5  MOL d          19.311 -17.680  23.266  0.00  0.00     0.088 H 
BRANCH  72  78
ATOM     78  O9  MOL d          19.561 -20.502  19.894  0.00  0.00    -0.354 OA
BRANCH  78  79
ATOM     79  C10 MOL d          20.531 -20.260  18.981  0.00  0.00     0.010 C 
ATOM     80  H1  MOL d          21.314 -21.028  19.065  0.00  0.00     0.066 H 
ATOM     81  H2  MOL d          20.970 -19.268  19.166  0.00  0.00     0.066 H 
ATOM     82  H3  MOL d          20.099 -20.287  17.970  0.00  0.00     0.066 H 
ENDBRANCH  78  79
ENDBRANCH  72  78
ENDBRANCH  65  68
ENDBRANCH  63  65
ENDBRANCH  23  63
ENDBRANCH  20  23
ENDBRANCH  17  20
ENDBRANCH  13  16
ENDBRANCH   1  13
TORSDOF 16
ENDMDL
MODEL 2
REMARK VINA RESULT:      -6.8      3.049      7.148
REMARK  16 active torsions:
REMARK  status: ('A' for Active; 'I' for Inactive)
REMARK    1  A    between atoms: S8_1  and  C35_3 
REMARK    2  A    between atoms: N11_14  and  S8_1 
REMARK    3  A    between atoms: O9_5  and  C10_4 
REMARK    4  A    between atoms: C5_6  and  O9_5 
REMARK    5  A    between atoms: C45_25  and  C13_13 
REMARK       I    between atoms: C13_13  and  N15_30 
REMARK    6  A    between atoms: C45_25  and  N11_14 
REMARK    7  A    between atoms: C15_16  and  C31_17 
REMARK    8  A    between atoms: N14_29  and  C15_16 
REMARK    9  A    between atoms: C12_26  and  C45_25 
REMARK   10  A    between atoms: C46_27  and  C12_26 
REMARK       I    between atoms: C46_27  and  N14_29 
REMARK   11  A    between atoms: C16_31  and  C17_32 
REMARK       I    between atoms: C17_32  and  N19_37 
REMARK   12  A    between atoms: N19_37  and  C20_38 
REMARK   13  A    between atoms: C20_38  and  C21_39 
REMARK   14  A    between atoms: C24_42  and  C27_43 
REMARK   15  A    between atoms: C27_43  and  N29_44 
REMARK   16  A    between atoms: C27_43  and  N28_45 
ROOT
ATOM      1  C31 MOL d          20.270 -13.338  21.775  0.00  0.00    -0.040 A 
ATOM      2  C32 MOL d          18.985 -13.177  22.045  0.00  0.00    -0.074 A 
ATOM      3  C33 MOL d          18.196 -12.731  21.065  0.00  0.00    -0.062 A 
ATOM      4  C44 MOL d          18.618 -12.393  19.825  0.00  0.00     0.044 A 
ATOM      5  C8  MOL d          19.947 -12.554  19.532  0.00  0.00    -0.062 A 
ATOM      6  C9  MOL d          20.671 -12.952  20.549  0.00  0.00    -0.074 A 
ATOM      7  C40 MOL d          17.802 -12.032  19.008  0.00  0.00     0.099 C 
ATOM      8  N63 MOL d          17.065 -11.826  18.212  0.00  0.00    -0.191 NA
ATOM      9  H10 MOL d          18.586 -13.400  23.028  0.00  0.00     0.084 H 
ATOM     10  H11 MOL d          17.138 -12.633  21.279  0.00  0.00     0.085 H 
ATOM     11  H12 MOL d          20.361 -12.369  18.548  0.00  0.00     0.085 H 
ATOM     12  H13 MOL d          21.742 -12.973  20.381  0.00  0.00     0.084 H 
ENDROOT
BRANCH   1  13
ATOM     13  C15 MOL d          21.161 -13.817  22.786  0.00  0.00     0.019 C 
ATOM     14  H8  MOL d          20.682 -13.647  23.762  0.00  0.00     0.071 H 
ATOM     15  H9  MOL d          22.086 -13.225  22.724  0.00  0.00     0.071 H 
BRANCH  13  16
ATOM     16  N14 MOL d          21.539 -15.265  22.709  0.00  0.00    -0.357 N 
ATOM     17  C46 MOL d          20.919 -16.277  22.123  0.00  0.00     0.220 C 
ATOM     18  O22 MOL d          19.889 -16.220  21.637  0.00  0.00    -0.274 OA
ATOM     19  H17 MOL d          22.392 -15.505  23.173  0.00  0.00     0.162 HD
BRANCH  17  20
ATOM     20  C12 MOL d          21.544 -17.713  22.224  0.00  0.00     0.037 C 
ATOM     21  H15 MOL d          21.379 -18.226  21.265  0.00  0.00     0.051 H 
ATOM     22  H16 MOL d          22.625 -17.604  22.400  0.00  0.00     0.051 H 
BRANCH  20  23
ATOM     23  C45 MOL d          20.936 -18.633  23.396  0.00  0.00     0.105 C 
ATOM     24  H14 MOL d          20.337 -18.009  24.076  0.00  0.00     0.089 H 
BRANCH  23  25
ATOM     25  C13 MOL d          20.016 -19.668  22.642  0.00  0.00     0.244 C 
ATOM     26  O14 MOL d          20.502 -20.207  21.708  0.00  0.00    -0.271 OA
ATOM     27  N15 MOL d          18.838 -19.828  23.101  0.00  0.00    -0.337 N 
ATOM     28  C16 MOL d          17.891 -20.508  22.328  0.00  0.00     0.091 C 
ATOM     29  C2  MOL d          18.216 -19.114  24.212  0.00  0.00    -0.001 C 
ATOM     30  C34 MOL d          16.554 -20.290  23.014  0.00  0.00    -0.036 C 
ATOM     31  H18 MOL d          18.140 -21.566  22.165  0.00  0.00     0.087 H 
ATOM     32  C1  MOL d          16.814 -19.553  24.287  0.00  0.00    -0.048 C 
ATOM     33  H19 MOL d          16.081 -21.259  23.232  0.00  0.00     0.036 H 
ATOM     34  H20 MOL d          15.892 -19.696  22.366  0.00  0.00     0.036 H 
ATOM     35  H21 MOL d          16.666 -20.216  25.152  0.00  0.00     0.035 H 
ATOM     36  H22 MOL d          16.143 -18.684  24.372  0.00  0.00     0.035 H 
ATOM     37  H23 MOL d          18.261 -18.030  24.034  0.00  0.00     0.064 H 
ATOM     38  H24 MOL d          18.736 -19.353  25.151  0.00  0.00     0.064 H 
BRANCH  28  39
ATOM     39  C17 MOL d          17.748 -19.672  21.000  0.00  0.00     0.240 C 
ATOM     40  O18 MOL d          18.646 -19.139  20.453  0.00  0.00    -0.271 OA
ATOM     41  N19 MOL d          16.463 -19.497  20.563  0.00  0.00    -0.355 N 
ATOM     42  H25 MOL d          15.725 -19.892  21.109  0.00  0.00     0.162 HD
BRANCH  41  43
ATOM     43  C20 MOL d          16.110 -18.786  19.378  0.00  0.00     0.019 C 
ATOM     44  H26 MOL d          15.215 -19.235  18.922  0.00  0.00     0.071 H 
ATOM     45  H27 MOL d          16.942 -18.816  18.660  0.00  0.00     0.071 H 
BRANCH  43  46
ATOM     46  C21 MOL d          15.828 -17.375  19.777  0.00  0.00    -0.040 A 
ATOM     47  C26 MOL d          15.304 -17.019  20.983  0.00  0.00    -0.074 A 
ATOM     48  C25 MOL d          15.039 -15.802  21.338  0.00  0.00    -0.069 A 
ATOM     49  H28 MOL d          15.094 -17.809  21.695  0.00  0.00     0.084 H 
ATOM     50  C24 MOL d          15.227 -14.760  20.554  0.00  0.00     0.007 A 
ATOM     51  H29 MOL d          14.643 -15.632  22.332  0.00  0.00     0.085 H 
ATOM     52  C23 MOL d          15.692 -15.052  19.333  0.00  0.00    -0.069 A 
ATOM     53  C22 MOL d          15.972 -16.320  19.001  0.00  0.00    -0.074 A 
ATOM     54  H34 MOL d          15.843 -14.259  18.610  0.00  0.00     0.085 H 
ATOM     55  H35 MOL d          16.352 -16.493  18.002  0.00  0.00     0.084 H 
BRANCH  50  56
ATOM     56  C27 MOL d          14.950 -13.407  20.923  0.00  0.00     0.102 C 
BRANCH  56  57
ATOM     57  N29 MOL d          15.205 -13.014  22.001  0.00  0.00    -0.385 N 
ATOM     58  H30 MOL d          14.888 -13.539  22.829  0.00  0.00     0.157 HD
ATOM     59  H31 MOL d          15.745 -12.145  22.118  0.00  0.00     0.157 HD
ENDBRANCH  56  57
BRANCH  56  60
ATOM     60  N28 MOL d          14.470 -12.584  20.073  0.00  0.00    -0.385 N 
ATOM     61  H32 MOL d          13.532 -12.741  19.677  0.00  0.00     0.157 HD
ATOM     62  H33 MOL d          15.021 -11.764  19.783  0.00  0.00     0.157 HD
ENDBRANCH  56  60
ENDBRANCH  50  56
ENDBRANCH  43  46
ENDBRANCH  41  43
ENDBRANCH  28  39
ENDBRANCH  23  25
BRANCH  23  63
ATOM     63  N11 MOL d          21.853 -19.295  24.123  0.00  0.00    -0.301 N 
ATOM     64  H7  MOL d          22.475 -19.939  23.677  0.00  0.00     0.173 HD
BRANCH  63  65
ATOM     65  S8  MOL d          21.947 -19.057  25.675  0.00  0.00     0.259 S 
ATOM     66  O1  MOL d          23.143 -18.974  25.754  0.00  0.00    -0.201 OA
ATOM     67  O10 MOL d          21.264 -19.721  26.293  0.00  0.00    -0.201 OA
BRANCH  65  68
ATOM     68  C35 MOL d          21.474 -17.417  25.944  0.00  0.00     0.081 A 
ATOM     69  C7  MOL d          22.355 -16.369  25.913  0.00  0.00    -0.058 A 
ATOM     70  C6  MOL d          21.937 -15.047  26.089  0.00  0.00    -0.048 A 
ATOM     71  H4  MOL d          23.407 -16.571  25.747  0.00  0.00     0.086 H 
ATOM     72  C5  MOL d          20.595 -14.782  26.223  0.00  0.00     0.089 A 
ATOM     73  H6  MOL d          22.662 -14.241  26.120  0.00  0.00     0.087 H 
ATOM     74  C4  MOL d          19.755 -15.832  26.178  0.00  0.00     0.068 A 
ATOM     75 CL   MOL d          18.036 -15.469  26.266  0.00  0.00    -0.081 Cl
ATOM     76  C3  MOL d          20.109 -17.079  26.057  0.00  0.00    -0.037 A 
ATOM     77  H5  MOL d          19.355 -17.858  26.044  0.00  0.00     0.088 H 
BRANCH  72  78
ATOM     78  O9  MOL d          20.139 -13.545  26.472  0.00  0.00    -0.354 OA
BRANCH  78  79
ATOM     79  C10 MOL d          20.932 -12.477  26.222  0.00  0.00     0.010 C 
ATOM     80  H1  MOL d          21.979 -12.806  26.151  0.00  0.00     0.066 H 
ATOM     81  H2  MOL d          20.831 -11.746  27.038  0.00  0.00     0.066 H 
ATOM     82  H3  MOL d          20.630 -12.011  25.272  0.00  0.00     0.066 H 
ENDBRANCH  78  79
ENDBRANCH  72  78
ENDBRANCH  65  68
ENDBRANCH  63  65
ENDBRANCH  23  63
ENDBRANCH  20  23
ENDBRANCH  17  20
ENDBRANCH  13  16
ENDBRANCH   1  13
TORSDOF 16
ENDMDL
MODEL 3
REMARK VINA RESULT:      -5.5      3.272      5.757
REMARK  16 active torsions:
REMARK  status: ('A' for Active; 'I' for Inactive)
REMARK    1  A    between atoms: S8_1  and  C35_3 
REMARK    2  A    between atoms: N11_14  and  S8_1 
REMARK    3  A    between atoms: O9_5  and  C10_4 
REMARK    4  A    between atoms: C5_6  and  O9_5 
REMARK    5  A    between atoms: C45_25  and  C13_13 
REMARK       I    between atoms: C13_13  and  N15_30 
REMARK    6  A    between atoms: C45_25  and  N11_14 
REMARK    7  A    between atoms: C15_16  and  C31_17 
REMARK    8  A    between atoms: N14_29  and  C15_16 
REMARK    9  A    between atoms: C12_26  and  C45_25 
REMARK   10  A    between atoms: C46_27  and  C12_26 
REMARK       I    between atoms: C46_27  and  N14_29 
REMARK   11  A    between atoms: C16_31  and  C17_32 
REMARK       I    between atoms: C17_32  and  N19_37 
REMARK   12  A    between atoms: N19_37  and  C20_38 
REMARK   13  A    between atoms: C20_38  and  C21_39 
REMARK   14  A    between atoms: C24_42  and  C27_43 
REMARK   15  A    between atoms: C27_43  and  N29_44 
REMARK   16  A    between atoms: C27_43  and  N28_45 
ROOT
ATOM      1  C31 MOL d          17.784 -13.823  22.692  0.00  0.00    -0.040 A 
ATOM      2  C32 MOL d          18.715 -13.799  21.752  0.00  0.00    -0.074 A 
ATOM      3  C33 MOL d          18.391 -13.271  20.571  0.00  0.00    -0.062 A 
ATOM      4  C44 MOL d          17.167 -12.792  20.246  0.00  0.00     0.044 A 
ATOM      5  C8  MOL d          16.193 -12.811  21.210  0.00  0.00    -0.062 A 
ATOM      6  C9  MOL d          16.564 -13.383  22.330  0.00  0.00    -0.074 A 
ATOM      7  C40 MOL d          17.002 -12.304  19.152  0.00  0.00     0.099 C 
ATOM      8  N63 MOL d          16.862 -11.740  18.213  0.00  0.00    -0.191 NA
ATOM      9  H10 MOL d          19.707 -14.195  21.936  0.00  0.00     0.084 H 
ATOM     10  H11 MOL d          19.165 -13.222  19.814  0.00  0.00     0.085 H 
ATOM     11  H12 MOL d          15.206 -12.392  21.060  0.00  0.00     0.085 H 
ATOM     12  H13 MOL d          15.781 -13.520  23.066  0.00  0.00     0.084 H 
ENDROOT
BRANCH   1  13
ATOM     13  C15 MOL d          18.077 -14.374  23.978  0.00  0.00     0.019 C 
ATOM     14  H8  MOL d          17.138 -14.405  24.551  0.00  0.00     0.071 H 
ATOM     15  H9  MOL d          18.788 -13.701  24.477  0.00  0.00     0.071 H 
BRANCH  13  16
ATOM     16  N14 MOL d          18.666 -15.753  23.994  0.00  0.00    -0.357 N 
ATOM     17  C46 MOL d          18.092 -16.921  24.236  0.00  0.00     0.220 C 
ATOM     18  O22 MOL d          17.017 -17.061  24.587  0.00  0.00    -0.274 OA
ATOM     19  H17 MOL d          19.644 -15.797  23.791  0.00  0.00     0.162 HD
BRANCH  17  20
ATOM     20  C12 MOL d          18.972 -18.221  24.205  0.00  0.00     0.037 C 
ATOM     21  H15 MOL d          19.838 -18.063  24.864  0.00  0.00     0.051 H 
ATOM     22  H16 MOL d          18.364 -19.054  24.589  0.00  0.00     0.051 H 
BRANCH  20  23
ATOM     23  C45 MOL d          19.519 -18.630  22.748  0.00  0.00     0.105 C 
ATOM     24  H14 MOL d          19.867 -17.729  22.222  0.00  0.00     0.089 H 
BRANCH  23  25
ATOM     25  C13 MOL d          20.726 -19.600  23.042  0.00  0.00     0.244 C 
ATOM     26  O14 MOL d          20.786 -20.033  24.142  0.00  0.00    -0.271 OA
ATOM     27  N15 MOL d          21.527 -19.827  22.078  0.00  0.00    -0.337 N 
ATOM     28  C16 MOL d          22.755 -20.442  22.341  0.00  0.00     0.091 C 
ATOM     29  C2  MOL d          21.492 -19.241  20.741  0.00  0.00    -0.001 C 
ATOM     30  C34 MOL d          23.568 -20.319  21.063  0.00  0.00    -0.036 C 
ATOM     31  H18 MOL d          22.657 -21.474  22.708  0.00  0.00     0.087 H 
ATOM     32  C1  MOL d          22.687 -19.711  20.023  0.00  0.00    -0.048 C 
ATOM     33  H19 MOL d          23.905 -21.314  20.736  0.00  0.00     0.036 H 
ATOM     34  H20 MOL d          24.443 -19.675  21.237  0.00  0.00     0.036 H 
ATOM     35  H21 MOL d          22.410 -20.461  19.268  0.00  0.00     0.035 H 
ATOM     36  H22 MOL d          23.197 -18.868  19.533  0.00  0.00     0.035 H 
ATOM     37  H23 MOL d          21.503 -18.144  20.811  0.00  0.00     0.064 H 
ATOM     38  H24 MOL d          20.584 -19.565  20.212  0.00  0.00     0.064 H 
BRANCH  28  39
ATOM     39  C17 MOL d          23.508 -19.478  23.334  0.00  0.00     0.240 C 
ATOM     40  O18 MOL d          24.241 -18.620  22.996  0.00  0.00    -0.271 OA
ATOM     41  N19 MOL d          23.346 -19.774  24.661  0.00  0.00    -0.355 N 
ATOM     42  H25 MOL d          22.785 -20.567  24.898  0.00  0.00     0.162 HD
BRANCH  41  43
ATOM     43  C20 MOL d          23.925 -19.023  25.725  0.00  0.00     0.019 C 
ATOM     44  H26 MOL d          25.007 -18.909  25.560  0.00  0.00     0.071 H 
ATOM     45  H27 MOL d          23.751 -19.533  26.684  0.00  0.00     0.071 H 
BRANCH  43  46
ATOM     46  C21 MOL d          23.264 -17.683  25.732  0.00  0.00    -0.040 A 
ATOM     47  C26 MOL d          21.975 -17.477  26.120  0.00  0.00    -0.074 A 
ATOM     48  C25 MOL d          21.383 -16.325  26.117  0.00  0.00    -0.069 A 
ATOM     49  H28 MOL d          21.405 -18.336  26.454  0.00  0.00     0.084 H 
ATOM     50  C24 MOL d          21.962 -15.212  25.711  0.00  0.00     0.007 A 
ATOM     51  H29 MOL d          20.359 -16.273  26.468  0.00  0.00     0.085 H 
ATOM     52  C23 MOL d          23.216 -15.361  25.267  0.00  0.00    -0.069 A 
ATOM     53  C22 MOL d          23.806 -16.563  25.298  0.00  0.00    -0.074 A 
ATOM     54  H34 MOL d          23.755 -14.504  24.881  0.00  0.00     0.085 H 
ATOM     55  H35 MOL d          24.824 -16.620  24.932  0.00  0.00     0.084 H 
BRANCH  50  56
ATOM     56  C27 MOL d          21.334 -13.928  25.704  0.00  0.00     0.102 C 
BRANCH  56  57
ATOM     57  N29 MOL d          20.393 -13.716  26.376  0.00  0.00    -0.385 N 
ATOM     58  H30 MOL d          20.514 -13.472  27.370  0.00  0.00     0.157 HD
ATOM     59  H31 MOL d          19.447 -13.774  25.972  0.00  0.00     0.157 HD
ENDBRANCH  56  57
BRANCH  56  60
ATOM     60  N28 MOL d          21.814 -12.971  25.010  0.00  0.00    -0.385 N 
ATOM     61  H32 MOL d          21.225 -12.495  24.312  0.00  0.00     0.157 HD
ATOM     62  H33 MOL d          22.791 -12.675  25.148  0.00  0.00     0.157 HD
ENDBRANCH  56  60
ENDBRANCH  50  56
ENDBRANCH  43  46
ENDBRANCH  41  43
ENDBRANCH  28  39
ENDBRANCH  23  25
BRANCH  23  63
ATOM     63  N11 MOL d          18.621 -19.257  21.967  0.00  0.00    -0.301 N 
ATOM     64  H7  MOL d          18.270 -20.156  22.230  0.00  0.00     0.173 HD
BRANCH  63  65
ATOM     65  S8  MOL d          18.122 -18.576  20.640  0.00  0.00     0.259 S 
ATOM     66  O1  MOL d          18.285 -19.514  19.906  0.00  0.00    -0.201 OA
ATOM     67  O10 MOL d          18.496 -17.515  20.488  0.00  0.00    -0.201 OA
BRANCH  65  68
ATOM     68  C35 MOL d          16.398 -18.520  20.741  0.00  0.00     0.081 A 
ATOM     69  C7  MOL d          15.599 -19.609  20.518  0.00  0.00    -0.058 A 
ATOM     70  C6  MOL d          14.209 -19.545  20.651  0.00  0.00    -0.048 A 
ATOM     71  H4  MOL d          16.057 -20.548  20.230  0.00  0.00     0.086 H 
ATOM     72  C5  MOL d          13.632 -18.378  21.091  0.00  0.00     0.089 A 
ATOM     73  H6  MOL d          13.594 -20.406  20.412  0.00  0.00     0.087 H 
ATOM     74  C4  MOL d          14.457 -17.352  21.366  0.00  0.00     0.068 A 
ATOM     75 CL   MOL d          13.712 -15.893  22.008  0.00  0.00    -0.081 Cl
ATOM     76  C3  MOL d          15.750 -17.360  21.215  0.00  0.00    -0.037 A 
ATOM     77  H5  MOL d          16.330 -16.475  21.454  0.00  0.00     0.088 H 
BRANCH  72  78
ATOM     78  O9  MOL d          12.301 -18.230  21.164  0.00  0.00    -0.354 OA
BRANCH  78  79
ATOM     79  C10 MOL d          11.511 -18.802  20.225  0.00  0.00     0.010 C 
ATOM     80  H1  MOL d          11.831 -19.842  20.061  0.00  0.00     0.066 H 
ATOM     81  H2  MOL d          11.596 -18.239  19.283  0.00  0.00     0.066 H 
ATOM     82  H3  MOL d          10.466 -18.790  20.567  0.00  0.00     0.066 H 
ENDBRANCH  78  79
ENDBRANCH  72  78
ENDBRANCH  65  68
ENDBRANCH  63  65
ENDBRANCH  23  63
ENDBRANCH  20  23
ENDBRANCH  17  20
ENDBRANCH  13  16
ENDBRANCH   1  13
TORSDOF 16
ENDMDL
MODEL 4
REMARK VINA RESULT:      -5.0      3.443      6.239
REMARK  16 active torsions:
REMARK  status: ('A' for Active; 'I' for Inactive)
REMARK    1  A    between atoms: S8_1  and  C35_3 
REMARK    2  A    between atoms: N11_14  and  S8_1 
REMARK    3  A    between atoms: O9_5  and  C10_4 
REMARK    4  A    between atoms: C5_6  and  O9_5 
REMARK    5  A    between atoms: C45_25  and  C13_13 
REMARK       I    between atoms: C13_13  and  N15_30 
REMARK    6  A    between atoms: C45_25  and  N11_14 
REMARK    7  A    between atoms: C15_16  and  C31_17 
REMARK    8  A    between atoms: N14_29  and  C15_16 
REMARK    9  A    between atoms: C12_26  and  C45_25 
REMARK   10  A    between atoms: C46_27  and  C12_26 
REMARK       I    between atoms: C46_27  and  N14_29 
REMARK   11  A    between atoms: C16_31  and  C17_32 
REMARK       I    between atoms: C17_32  and  N19_37 
REMARK   12  A    between atoms: N19_37  and  C20_38 
REMARK   13  A    between atoms: C20_38  and  C21_39 
REMARK   14  A    between atoms: C24_42  and  C27_43 
REMARK   15  A    between atoms: C27_43  and  N29_44 
REMARK   16  A    between atoms: C27_43  and  N28_45 
ROOT
ATOM      1  C31 MOL d          19.872 -13.079  21.620  0.00  0.00    -0.040 A 
ATOM      2  C32 MOL d          19.511 -12.096  20.811  0.00  0.00    -0.074 A 
ATOM      3  C33 MOL d          18.358 -12.226  20.152  0.00  0.00    -0.062 A 
ATOM      4  C44 MOL d          17.546 -13.307  20.217  0.00  0.00     0.044 A 
ATOM      5  C8  MOL d          17.908 -14.333  21.050  0.00  0.00    -0.062 A 
ATOM      6  C9  MOL d          19.070 -14.161  21.632  0.00  0.00    -0.074 A 
ATOM      7  C40 MOL d          16.507 -13.296  19.598  0.00  0.00     0.099 C 
ATOM      8  N63 MOL d          15.499 -13.257  19.150  0.00  0.00    -0.191 NA
ATOM      9  H10 MOL d          20.130 -11.215  20.688  0.00  0.00     0.084 H 
ATOM     10  H11 MOL d          18.048 -11.405  19.516  0.00  0.00     0.085 H 
ATOM     11  H12 MOL d          17.290 -15.207  21.214  0.00  0.00     0.085 H 
ATOM     12  H13 MOL d          19.438 -15.007  22.202  0.00  0.00     0.084 H 
ENDROOT
BRANCH   1  13
ATOM     13  C15 MOL d          21.095 -12.991  22.354  0.00  0.00     0.019 C 
ATOM     14  H8  MOL d          20.899 -12.401  23.261  0.00  0.00     0.071 H 
ATOM     15  H9  MOL d          21.826 -12.463  21.724  0.00  0.00     0.071 H 
BRANCH  13  16
ATOM     16  N14 MOL d          21.712 -14.290  22.778  0.00  0.00    -0.357 N 
ATOM     17  C46 MOL d          21.957 -14.759  23.991  0.00  0.00     0.220 C 
ATOM     18  O22 MOL d          21.817 -14.173  24.960  0.00  0.00    -0.274 OA
ATOM     19  H17 MOL d          21.981 -14.895  22.029  0.00  0.00     0.162 HD
BRANCH  17  20
ATOM     20  C12 MOL d          22.643 -16.163  24.139  0.00  0.00     0.037 C 
ATOM     21  H15 MOL d          23.434 -16.239  23.379  0.00  0.00     0.051 H 
ATOM     22  H16 MOL d          23.090 -16.221  25.143  0.00  0.00     0.051 H 
BRANCH  20  23
ATOM     23  C45 MOL d          21.653 -17.419  23.959  0.00  0.00     0.105 C 
ATOM     24  H14 MOL d          20.643 -17.140  24.296  0.00  0.00     0.089 H 
BRANCH  23  25
ATOM     25  C13 MOL d          21.659 -17.702  22.407  0.00  0.00     0.244 C 
ATOM     26  O14 MOL d          20.829 -17.141  21.776  0.00  0.00    -0.271 OA
ATOM     27  N15 MOL d          22.547 -18.506  21.975  0.00  0.00    -0.337 N 
ATOM     28  C16 MOL d          22.435 -19.012  20.676  0.00  0.00     0.091 C 
ATOM     29  C2  MOL d          23.527 -19.249  22.762  0.00  0.00    -0.001 C 
ATOM     30  C34 MOL d          23.465 -20.124  20.569  0.00  0.00    -0.036 C 
ATOM     31  H18 MOL d          22.530 -18.241  19.898  0.00  0.00     0.087 H 
ATOM     32  C1  MOL d          24.251 -20.136  21.838  0.00  0.00    -0.048 C 
ATOM     33  H19 MOL d          24.133 -19.936  19.715  0.00  0.00     0.036 H 
ATOM     34  H20 MOL d          22.959 -21.091  20.432  0.00  0.00     0.036 H 
ATOM     35  H21 MOL d          25.269 -19.759  21.663  0.00  0.00     0.035 H 
ATOM     36  H22 MOL d          24.304 -21.156  22.248  0.00  0.00     0.035 H 
ATOM     37  H23 MOL d          23.017 -19.845  23.532  0.00  0.00     0.064 H 
ATOM     38  H24 MOL d          24.230 -18.552  23.243  0.00  0.00     0.064 H 
BRANCH  28  39
ATOM     39  C17 MOL d          21.067 -19.792  20.642  0.00  0.00     0.240 C 
ATOM     40  O18 MOL d          20.585 -20.242  19.665  0.00  0.00    -0.271 OA
ATOM     41  N19 MOL d          20.389 -19.822  21.830  0.00  0.00    -0.355 N 
ATOM     42  H25 MOL d          20.794 -19.350  22.613  0.00  0.00     0.162 HD
BRANCH  41  43
ATOM     43  C20 MOL d          19.141 -20.484  22.024  0.00  0.00     0.019 C 
ATOM     44  H26 MOL d          18.930 -20.582  23.100  0.00  0.00     0.071 H 
ATOM     45  H27 MOL d          19.170 -21.483  21.564  0.00  0.00     0.071 H 
BRANCH  43  46
ATOM     46  C21 MOL d          18.091 -19.648  21.370  0.00  0.00    -0.040 A 
ATOM     47  C26 MOL d          17.657 -18.455  21.864  0.00  0.00    -0.074 A 
ATOM     48  C25 MOL d          16.737 -17.726  21.316  0.00  0.00    -0.069 A 
ATOM     49  H28 MOL d          18.113 -18.091  22.777  0.00  0.00     0.084 H 
ATOM     50  C24 MOL d          16.092 -18.072  20.220  0.00  0.00     0.007 A 
ATOM     51  H29 MOL d          16.484 -16.781  21.784  0.00  0.00     0.085 H 
ATOM     52  C23 MOL d          16.439 -19.262  19.717  0.00  0.00    -0.069 A 
ATOM     53  C22 MOL d          17.406 -19.986  20.296  0.00  0.00    -0.074 A 
ATOM     54  H34 MOL d          15.935 -19.643  18.836  0.00  0.00     0.085 H 
ATOM     55  H35 MOL d          17.648 -20.938  19.839  0.00  0.00     0.084 H 
BRANCH  50  56
ATOM     56  C27 MOL d          15.078 -17.283  19.593  0.00  0.00     0.102 C 
BRANCH  56  57
ATOM     57  N29 MOL d          13.940 -17.538  19.742  0.00  0.00    -0.385 N 
ATOM     58  H30 MOL d          13.398 -17.061  20.477  0.00  0.00     0.157 HD
ATOM     59  H31 MOL d          13.486 -18.237  19.139  0.00  0.00     0.157 HD
ENDBRANCH  56  57
BRANCH  56  60
ATOM     60  N28 MOL d          15.386 -16.254  18.904  0.00  0.00    -0.385 N 
ATOM     61  H32 MOL d          15.883 -16.363  18.008  0.00  0.00     0.157 HD
ATOM     62  H33 MOL d          15.138 -15.313  19.244  0.00  0.00     0.157 HD
ENDBRANCH  56  60
ENDBRANCH  50  56
ENDBRANCH  43  46
ENDBRANCH  41  43
ENDBRANCH  28  39
ENDBRANCH  23  25
BRANCH  23  63
ATOM     63  N11 MOL d          22.029 -18.530  24.617  0.00  0.00    -0.301 N 
ATOM     64  H7  MOL d          22.751 -19.113  24.243  0.00  0.00     0.173 HD
BRANCH  63  65
ATOM     65  S8  MOL d          21.334 -18.912  25.975  0.00  0.00     0.259 S 
ATOM     66  O1  MOL d          21.615 -17.916  26.587  0.00  0.00    -0.201 OA
ATOM     67  O10 MOL d          21.500 -19.987  26.301  0.00  0.00    -0.201 OA
BRANCH  65  68
ATOM     68  C35 MOL d          19.637 -18.692  25.730  0.00  0.00     0.081 A 
ATOM     69  C7  MOL d          18.762 -19.732  25.567  0.00  0.00    -0.058 A 
ATOM     70  C6  MOL d          17.389 -19.526  25.416  0.00  0.00    -0.048 A 
ATOM     71  H4  MOL d          19.147 -20.746  25.555  0.00  0.00     0.086 H 
ATOM     72  C5  MOL d          16.890 -18.249  25.507  0.00  0.00     0.089 A 
ATOM     73  H6  MOL d          16.725 -20.363  25.229  0.00  0.00     0.087 H 
ATOM     74  C4  MOL d          17.773 -17.261  25.738  0.00  0.00     0.068 A 
ATOM     75 CL   MOL d          17.111 -15.643  25.936  0.00  0.00    -0.081 Cl
ATOM     76  C3  MOL d          19.063 -17.408  25.843  0.00  0.00    -0.037 A 
ATOM     77  H5  MOL d          19.695 -16.545  26.017  0.00  0.00     0.088 H 
BRANCH  72  78
ATOM     78  O9  MOL d          15.594 -17.978  25.294  0.00  0.00    -0.354 OA
BRANCH  78  79
ATOM     79  C10 MOL d          14.946 -18.575  24.266  0.00  0.00     0.010 C 
ATOM     80  H1  MOL d          14.020 -19.040  24.636  0.00  0.00     0.066 H 
ATOM     81  H2  MOL d          15.593 -19.347  23.824  0.00  0.00     0.066 H 
ATOM     82  H3  MOL d          14.698 -17.823  23.502  0.00  0.00     0.066 H 
ENDBRANCH  78  79
ENDBRANCH  72  78
ENDBRANCH  65  68
ENDBRANCH  63  65
ENDBRANCH  23  63
ENDBRANCH  20  23
ENDBRANCH  17  20
ENDBRANCH  13  16
ENDBRANCH   1  13
TORSDOF 16
ENDMDL
