MODEL 1
REMARK VINA RESULT:      -7.1      0.000      0.000
REMARK  23 active torsions:
REMARK  status: ('A' for Active; 'I' for Inactive)
REMARK    1  A    between atoms: N4B_18  and  C1A_1 
REMARK    2  A    between atoms: C2A_2  and  O2A_8 
REMARK    3  A    between atoms: C3A_3  and  O3A_9 
REMARK    4  A    between atoms: C4A_4  and  O4A_10 
REMARK    5  A    between atoms: C5A_5  and  C6A_6 
REMARK    6  A    between atoms: C6A_6  and  O6A_11 
REMARK    7  A    between atoms: O4C_30  and  C1B_12 
REMARK    8  A    between atoms: C2B_13  and  O2B_19 
REMARK    9  A    between atoms: C3B_14  and  O3B_20 
REMARK   10  A    between atoms: C4B_15  and  N4B_18 
REMARK   11  A    between atoms: C5B_16  and  C6B_17 
REMARK   12  A    between atoms: O4D_42  and  C1C_22 
REMARK   13  A    between atoms: C2C_23  and  O2C_28 
REMARK   14  A    between atoms: C3C_24  and  O3C_29 
REMARK   15  A    between atoms: C4C_25  and  O4C_30 
REMARK   16  A    between atoms: C5C_26  and  C6C_27 
REMARK   17  A    between atoms: C6C_27  and  O6C_32 
REMARK   18  A    between atoms: C1D_33  and  O1D_39 
REMARK   19  A    between atoms: C2D_34  and  O2D_40 
REMARK   20  A    between atoms: C3D_35  and  O3D_41 
REMARK   21  A    between atoms: C4D_36  and  O4D_42 
REMARK   22  A    between atoms: C5D_37  and  C6D_38 
REMARK   23  A    between atoms: C6D_38  and  O6D_44 
ROOT
ATOM      1  C1B ACR d         -18.810  -6.502  -4.852  0.00  0.00     0.159 C 
ATOM      2  C2B ACR d         -18.301  -5.411  -5.794  0.00  0.00     0.110 C 
ATOM      3  C3B ACR d         -19.283  -5.213  -6.960  0.00  0.00     0.094 C 
ATOM      4  C4B ACR d         -19.435  -6.519  -7.742  0.00  0.00     0.154 C 
ATOM      5  C5B ACR d         -19.926  -7.602  -6.758  0.00  0.00     0.068 C 
ATOM      6  O5B ACR d         -19.022  -7.686  -5.627  0.00  0.00    -0.351 OA
ATOM      7  H12 ACR d         -18.061  -6.701  -4.072  0.00  0.00     0.133 H 
ATOM      8  H13 ACR d         -17.316  -5.698  -6.189  0.00  0.00     0.094 H 
ATOM      9  H14 ACR d         -20.261  -4.907  -6.560  0.00  0.00     0.090 H 
ATOM     10  H15 ACR d         -18.431  -6.824  -8.072  0.00  0.00     0.092 H 
ATOM     11  H16 ACR d         -20.929  -7.322  -6.404  0.00  0.00     0.086 H 
ENDROOT
BRANCH   1  12
ATOM     12  O4C ACR d         -20.039  -6.071  -4.233  0.00  0.00    -0.348 OA
BRANCH  12  13
ATOM     13  C4C ACR d         -20.114  -6.196  -2.813  0.00  0.00     0.096 C 
ATOM     14  C3C ACR d         -20.413  -4.816  -2.226  0.00  0.00     0.092 C 
ATOM     15  C2C ACR d         -20.773  -4.852  -0.738  0.00  0.00     0.110 C 
ATOM     16  H26 ACR d         -21.284  -4.410  -2.763  0.00  0.00     0.091 H 
ATOM     17  C1C ACR d         -21.827  -5.910  -0.426  0.00  0.00     0.159 C 
ATOM     18  H25 ACR d         -19.871  -5.039  -0.137  0.00  0.00     0.094 H 
ATOM     19  O5C ACR d         -21.408  -7.166  -0.987  0.00  0.00    -0.348 OA
ATOM     20  H24 ACR d         -21.938  -6.012   0.664  0.00  0.00     0.133 H 
ATOM     21  C5C ACR d         -21.212  -7.190  -2.416  0.00  0.00     0.089 C 
ATOM     22  H28 ACR d         -22.146  -6.881  -2.909  0.00  0.00     0.090 H 
ATOM     23  H27 ACR d         -19.150  -6.557  -2.427  0.00  0.00     0.091 H 
BRANCH  14  24
ATOM     24  O3C ACR d         -19.301  -3.943  -2.460  0.00  0.00    -0.390 OA
ATOM     25  H32 ACR d         -19.003  -3.584  -1.633  0.00  0.00     0.210 HD
ENDBRANCH  14  24
BRANCH  15  26
ATOM     26  O2C ACR d         -21.334  -3.582  -0.430  0.00  0.00    -0.388 OA
ATOM     27  H31 ACR d         -22.230  -3.548  -0.744  0.00  0.00     0.210 HD
ENDBRANCH  15  26
BRANCH  17  28
ATOM     28  O4D ACR d         -23.081  -5.518  -0.999  0.00  0.00    -0.348 OA
BRANCH  28  29
ATOM     29  C4D ACR d         -24.283  -5.928  -0.332  0.00  0.00     0.096 C 
ATOM     30  C3D ACR d         -24.504  -7.366  -0.811  0.00  0.00     0.092 C 
ATOM     31  C2D ACR d         -25.676  -8.069  -0.114  0.00  0.00     0.110 C 
ATOM     32  H36 ACR d         -23.595  -7.933  -0.562  0.00  0.00     0.091 H 
ATOM     33  C1D ACR d         -25.677  -7.882   1.426  0.00  0.00     0.156 C 
ATOM     34  H35 ACR d         -26.612  -7.638  -0.498  0.00  0.00     0.094 H 
ATOM     35  O5D ACR d         -25.312  -6.549   1.842  0.00  0.00    -0.349 OA
ATOM     36  H34 ACR d         -26.707  -8.061   1.768  0.00  0.00     0.133 H 
ATOM     37  C5D ACR d         -24.152  -5.960   1.209  0.00  0.00     0.089 C 
ATOM     38  H38 ACR d         -23.284  -6.596   1.438  0.00  0.00     0.090 H 
ATOM     39  H37 ACR d         -25.120  -5.274  -0.618  0.00  0.00     0.091 H 
BRANCH  30  40
ATOM     40  O3D ACR d         -24.664  -7.405  -2.244  0.00  0.00    -0.390 OA
ATOM     41  H43 ACR d         -25.141  -6.635  -2.528  0.00  0.00     0.210 HD
ENDBRANCH  30  40
BRANCH  31  42
ATOM     42  O2D ACR d         -25.627  -9.462  -0.484  0.00  0.00    -0.388 OA
ATOM     43  H42 ACR d         -25.356  -9.538  -1.391  0.00  0.00     0.210 HD
ENDBRANCH  31  42
BRANCH  33  44
ATOM     44  O1D ACR d         -24.829  -8.842   2.080  0.00  0.00    -0.369 OA
ATOM     45  H41 ACR d         -24.289  -9.281   1.432  0.00  0.00     0.212 HD
ENDBRANCH  33  44
BRANCH  37  46
ATOM     46  C6D ACR d         -23.899  -4.592   1.851  0.00  0.00     0.043 C 
ATOM     47  H39 ACR d         -22.884  -4.567   2.276  0.00  0.00     0.078 H 
ATOM     48  H40 ACR d         -24.635  -4.419   2.650  0.00  0.00     0.078 H 
BRANCH  46  49
ATOM     49  O6D ACR d         -24.027  -3.569   0.847  0.00  0.00    -0.398 OA
ATOM     50  H44 ACR d         -24.912  -3.575   0.501  0.00  0.00     0.209 HD
ENDBRANCH  46  49
ENDBRANCH  37  46
ENDBRANCH  28  29
ENDBRANCH  17  28
BRANCH  21  51
ATOM     51  C6C ACR d         -20.895  -8.620  -2.842  0.00  0.00     0.043 C 
ATOM     52  H29 ACR d         -21.318  -9.322  -2.109  0.00  0.00     0.078 H 
ATOM     53  H30 ACR d         -19.804  -8.754  -2.892  0.00  0.00     0.078 H 
BRANCH  51  54
ATOM     54  O6C ACR d         -21.467  -8.876  -4.133  0.00  0.00    -0.398 OA
ATOM     55  H33 ACR d         -22.380  -9.119  -4.032  0.00  0.00     0.209 HD
ENDBRANCH  51  54
ENDBRANCH  21  51
ENDBRANCH  12  13
ENDBRANCH   1  12
BRANCH   2  56
ATOM     56  O2B ACR d         -18.192  -4.192  -5.062  0.00  0.00    -0.388 OA
ATOM     57  H22 ACR d         -18.664  -3.506  -5.519  0.00  0.00     0.210 HD
ENDBRANCH   2  56
BRANCH   3  58
ATOM     58  O3B ACR d         -18.801  -4.214  -7.852  0.00  0.00    -0.391 OA
ATOM     59  H23 ACR d         -19.494  -3.588  -8.028  0.00  0.00     0.210 HD
ENDBRANCH   3  58
BRANCH   5  60
ATOM     60  C6B ACR d         -19.999  -8.981  -7.404  0.00  0.00    -0.050 C 
ATOM     61  H17 ACR d         -19.314  -9.020  -8.264  0.00  0.00     0.031 H 
ATOM     62  H18 ACR d         -21.027  -9.172  -7.745  0.00  0.00     0.031 H 
ATOM     63  H19 ACR d         -19.708  -9.746  -6.669  0.00  0.00     0.031 H 
ENDBRANCH   5  60
BRANCH   4  64
ATOM     64  N4B ACR d         -20.230  -6.347  -8.977  0.00  0.00    -0.056 N 
ATOM     65  H20 ACR d         -20.788  -7.180  -9.090  0.00  0.00     0.278 HD
ATOM     66  H21 ACR d         -20.836  -5.555  -8.834  0.00  0.00     0.278 HD
BRANCH  64  67
ATOM     67  C1A ACR d         -19.507  -6.124 -10.257  0.00  0.00     0.146 C 
ATOM     68  C2A ACR d         -20.399  -5.788 -11.471  0.00  0.00     0.093 C 
ATOM     69  C3A ACR d         -21.173  -7.034 -11.903  0.00  0.00     0.091 C 
ATOM     70  H2  ACR d         -19.761  -5.450 -12.301  0.00  0.00     0.090 H 
ATOM     71  C4A ACR d         -20.188  -8.043 -12.460  0.00  0.00     0.086 C 
ATOM     72  H3  ACR d         -21.619  -7.465 -10.994  0.00  0.00     0.091 H 
ATOM     73  C5A ACR d         -18.988  -8.203 -11.551  0.00  0.00    -0.027 C 
ATOM     74  H4  ACR d         -19.843  -7.698 -13.445  0.00  0.00     0.094 H 
ATOM     75  C7A ACR d         -18.602  -7.288 -10.649  0.00  0.00    -0.064 C 
ATOM     76  H7  ACR d         -17.621  -7.378 -10.185  0.00  0.00     0.080 H 
ATOM     77  H1  ACR d         -18.860  -5.250 -10.087  0.00  0.00     0.095 H 
BRANCH  68  78
ATOM     78  O2A ACR d         -21.324  -4.761 -11.146  0.00  0.00    -0.390 OA
ATOM     79  H8  ACR d         -22.074  -5.139 -10.701  0.00  0.00     0.210 HD
ENDBRANCH  68  78
BRANCH  69  80
ATOM     80  O3A ACR d         -22.284  -6.803 -12.841  0.00  0.00    -0.390 OA
ATOM     81  H9  ACR d         -23.053  -7.273 -12.541  0.00  0.00     0.210 HD
ENDBRANCH  69  80
BRANCH  71  82
ATOM     82  O4A ACR d         -20.847  -9.301 -12.607  0.00  0.00    -0.388 OA
ATOM     83  H10 ACR d         -20.494  -9.918 -11.977  0.00  0.00     0.210 HD
ENDBRANCH  71  82
BRANCH  73  84
ATOM     84  C6A ACR d         -18.193  -9.458 -11.740  0.00  0.00     0.039 C 
ATOM     85  H5  ACR d         -18.840 -10.346 -11.698  0.00  0.00     0.081 H 
ATOM     86  H6  ACR d         -17.403  -9.544 -10.981  0.00  0.00     0.081 H 
BRANCH  84  87
ATOM     87  O6A ACR d         -17.633  -9.287 -13.056  0.00  0.00    -0.397 OA
ATOM     88  H11 ACR d         -17.048 -10.011 -13.247  0.00  0.00     0.209 HD
ENDBRANCH  84  87
ENDBRANCH  73  84
ENDBRANCH  64  67
ENDBRANCH   4  64
TORSDOF 23
ENDMDL
MODEL 2
REMARK VINA RESULT:      -6.9      1.377      2.016
REMARK  23 active torsions:
REMARK  status: ('A' for Active; 'I' for Inactive)
REMARK    1  A    between atoms: N4B_18  and  C1A_1 
REMARK    2  A    between atoms: C2A_2  and  O2A_8 
REMARK    3  A    between atoms: C3A_3  and  O3A_9 
REMARK    4  A    between atoms: C4A_4  and  O4A_10 
REMARK    5  A    between atoms: C5A_5  and  C6A_6 
REMARK    6  A    between atoms: C6A_6  and  O6A_11 
REMARK    7  A    between atoms: O4C_30  and  C1B_12 
REMARK    8  A    between atoms: C2B_13  and  O2B_19 
REMARK    9  A    between atoms: C3B_14  and  O3B_20 
REMARK   10  A    between atoms: C4B_15  and  N4B_18 
REMARK   11  A    between atoms: C5B_16  and  C6B_17 
REMARK   12  A    between atoms: O4D_42  and  C1C_22 
REMARK   13  A    between atoms: C2C_23  and  O2C_28 
REMARK   14  A    between atoms: C3C_24  and  O3C_29 
REMARK   15  A    between atoms: C4C_25  and  O4C_30 
REMARK   16  A    between atoms: C5C_26  and  C6C_27 
REMARK   17  A    between atoms: C6C_27  and  O6C_32 
REMARK   18  A    between atoms: C1D_33  and  O1D_39 
REMARK   19  A    between atoms: C2D_34  and  O2D_40 
REMARK   20  A    between atoms: C3D_35  and  O3D_41 
REMARK   21  A    between atoms: C4D_36  and  O4D_42 
REMARK   22  A    between atoms: C5D_37  and  C6D_38 
REMARK   23  A    between atoms: C6D_38  and  O6D_44 
ROOT
ATOM      1  C1B ACR d         -18.348  -6.516  -5.120  0.00  0.00     0.159 C 
ATOM      2  C2B ACR d         -17.846  -5.462  -6.105  0.00  0.00     0.110 C 
ATOM      3  C3B ACR d         -18.923  -5.158  -7.158  0.00  0.00     0.094 C 
ATOM      4  C4B ACR d         -19.276  -6.433  -7.925  0.00  0.00     0.154 C 
ATOM      5  C5B ACR d         -19.757  -7.482  -6.900  0.00  0.00     0.068 C 
ATOM      6  O5B ACR d         -18.749  -7.665  -5.873  0.00  0.00    -0.351 OA
ATOM      7  H12 ACR d         -17.541  -6.793  -4.426  0.00  0.00     0.133 H 
ATOM      8  H13 ACR d         -16.938  -5.829  -6.606  0.00  0.00     0.094 H 
ATOM      9  H14 ACR d         -19.821  -4.772  -6.653  0.00  0.00     0.090 H 
ATOM     10  H15 ACR d         -18.346  -6.823  -8.363  0.00  0.00     0.092 H 
ATOM     11  H16 ACR d         -20.686  -7.118  -6.439  0.00  0.00     0.086 H 
ENDROOT
BRANCH   1  12
ATOM     12  O4C ACR d         -19.460  -5.986  -4.370  0.00  0.00    -0.348 OA
BRANCH  12  13
ATOM     13  C4C ACR d         -19.212  -5.677  -2.998  0.00  0.00     0.096 C 
ATOM     14  C3C ACR d         -19.890  -4.344  -2.678  0.00  0.00     0.092 C 
ATOM     15  C2C ACR d         -19.922  -4.021  -1.181  0.00  0.00     0.110 C 
ATOM     16  H26 ACR d         -20.934  -4.414  -3.019  0.00  0.00     0.091 H 
ATOM     17  C1C ACR d         -20.421  -5.197  -0.348  0.00  0.00     0.159 C 
ATOM     18  H25 ACR d         -18.919  -3.723  -0.839  0.00  0.00     0.094 H 
ATOM     19  O5C ACR d         -19.676  -6.373  -0.707  0.00  0.00    -0.348 OA
ATOM     20  H24 ACR d         -20.278  -4.981   0.721  0.00  0.00     0.133 H 
ATOM     21  C5C ACR d         -19.760  -6.782  -2.088  0.00  0.00     0.089 C 
ATOM     22  H28 ACR d         -20.817  -6.945  -2.348  0.00  0.00     0.090 H 
ATOM     23  H27 ACR d         -18.129  -5.585  -2.835  0.00  0.00     0.091 H 
BRANCH  14  24
ATOM     24  O3C ACR d         -19.253  -3.292  -3.413  0.00  0.00    -0.390 OA
ATOM     25  H32 ACR d         -18.693  -2.794  -2.830  0.00  0.00     0.210 HD
ENDBRANCH  14  24
BRANCH  15  26
ATOM     26  O2C ACR d         -20.849  -2.954  -1.021  0.00  0.00    -0.388 OA
ATOM     27  H31 ACR d         -20.429  -2.238  -0.558  0.00  0.00     0.210 HD
ENDBRANCH  15  26
BRANCH  17  28
ATOM     28  O4D ACR d         -21.815  -5.408  -0.610  0.00  0.00    -0.348 OA
BRANCH  28  29
ATOM     29  C4D ACR d         -22.227  -6.708  -1.054  0.00  0.00     0.096 C 
ATOM     30  C3D ACR d         -22.744  -7.391   0.216  0.00  0.00     0.092 C 
ATOM     31  C2D ACR d         -23.373  -8.766  -0.042  0.00  0.00     0.110 C 
ATOM     32  H36 ACR d         -23.534  -6.748   0.630  0.00  0.00     0.091 H 
ATOM     33  C1D ACR d         -24.358  -8.776  -1.240  0.00  0.00     0.156 C 
ATOM     34  H35 ACR d         -22.566  -9.475  -0.275  0.00  0.00     0.094 H 
ATOM     35  O5D ACR d         -23.904  -7.991  -2.363  0.00  0.00    -0.349 OA
ATOM     36  H34 ACR d         -24.437  -9.819  -1.580  0.00  0.00     0.133 H 
ATOM     37  C5D ACR d         -23.389  -6.670  -2.074  0.00  0.00     0.089 C 
ATOM     38  H38 ACR d         -24.198  -6.089  -1.608  0.00  0.00     0.090 H 
ATOM     39  H37 ACR d         -21.374  -7.252  -1.486  0.00  0.00     0.091 H 
BRANCH  30  40
ATOM     40  O3D ACR d         -21.697  -7.485   1.203  0.00  0.00    -0.390 OA
ATOM     41  H43 ACR d         -21.338  -8.365   1.200  0.00  0.00     0.210 HD
ENDBRANCH  30  40
BRANCH  31  42
ATOM     42  O2D ACR d         -24.013  -9.186   1.180  0.00  0.00    -0.388 OA
ATOM     43  H42 ACR d         -23.362  -9.258   1.868  0.00  0.00     0.210 HD
ENDBRANCH  31  42
BRANCH  33  44
ATOM     44  O1D ACR d         -25.675  -8.345  -0.851  0.00  0.00    -0.369 OA
ATOM     45  H41 ACR d         -26.148  -8.045  -1.618  0.00  0.00     0.212 HD
ENDBRANCH  33  44
BRANCH  37  46
ATOM     46  C6D ACR d         -23.044  -5.989  -3.402  0.00  0.00     0.043 C 
ATOM     47  H39 ACR d         -22.645  -6.735  -4.106  0.00  0.00     0.078 H 
ATOM     48  H40 ACR d         -22.289  -5.207  -3.230  0.00  0.00     0.078 H 
BRANCH  46  49
ATOM     49  O6D ACR d         -24.234  -5.397  -3.952  0.00  0.00    -0.398 OA
ATOM     50  H44 ACR d         -24.952  -6.016  -3.890  0.00  0.00     0.209 HD
ENDBRANCH  46  49
ENDBRANCH  37  46
ENDBRANCH  28  29
ENDBRANCH  17  28
BRANCH  21  51
ATOM     51  C6C ACR d         -19.016  -8.104  -2.252  0.00  0.00     0.043 C 
ATOM     52  H29 ACR d         -18.967  -8.618  -1.282  0.00  0.00     0.078 H 
ATOM     53  H30 ACR d         -17.996  -7.907  -2.616  0.00  0.00     0.078 H 
BRANCH  51  54
ATOM     54  O6C ACR d         -19.709  -8.932  -3.198  0.00  0.00    -0.398 OA
ATOM     55  H33 ACR d         -19.403  -9.828  -3.116  0.00  0.00     0.209 HD
ENDBRANCH  51  54
ENDBRANCH  21  51
ENDBRANCH  12  13
ENDBRANCH   1  12
BRANCH   2  56
ATOM     56  O2B ACR d         -17.549  -4.268  -5.382  0.00  0.00    -0.388 OA
ATOM     57  H22 ACR d         -17.539  -3.531  -5.981  0.00  0.00     0.210 HD
ENDBRANCH   2  56
BRANCH   3  58
ATOM     58  O3B ACR d         -18.451  -4.193  -8.091  0.00  0.00    -0.391 OA
ATOM     59  H23 ACR d         -17.536  -4.007  -7.917  0.00  0.00     0.210 HD
ENDBRANCH   3  58
BRANCH   5  60
ATOM     60  C6B ACR d         -20.023  -8.840  -7.542  0.00  0.00    -0.050 C 
ATOM     61  H17 ACR d         -20.589  -9.471  -6.842  0.00  0.00     0.031 H 
ATOM     62  H18 ACR d         -19.067  -9.325  -7.784  0.00  0.00     0.031 H 
ATOM     63  H19 ACR d         -20.608  -8.701  -8.464  0.00  0.00     0.031 H 
ENDBRANCH   5  60
BRANCH   4  64
ATOM     64  N4B ACR d         -20.180  -6.172  -9.067  0.00  0.00    -0.056 N 
ATOM     65  H20 ACR d         -20.854  -6.922  -9.091  0.00  0.00     0.278 HD
ATOM     66  H21 ACR d         -20.653  -5.302  -8.880  0.00  0.00     0.278 HD
BRANCH  64  67
ATOM     67  C1A ACR d         -19.588  -6.068 -10.427  0.00  0.00     0.146 C 
ATOM     68  C2A ACR d         -20.583  -5.736 -11.558  0.00  0.00     0.093 C 
ATOM     69  C3A ACR d         -21.479  -6.945 -11.830  0.00  0.00     0.091 C 
ATOM     70  H2  ACR d         -20.019  -5.488 -12.470  0.00  0.00     0.090 H 
ATOM     71  C4A ACR d         -20.628  -8.050 -12.426  0.00  0.00     0.086 C 
ATOM     72  H3  ACR d         -21.851  -7.294 -10.855  0.00  0.00     0.091 H 
ATOM     73  C5A ACR d         -19.349  -8.246 -11.640  0.00  0.00    -0.027 C 
ATOM     74  H4  ACR d         -20.371  -7.782 -13.461  0.00  0.00     0.094 H 
ATOM     75  C7A ACR d         -18.808  -7.313 -10.841  0.00  0.00    -0.064 C 
ATOM     76  H7  ACR d         -17.790  -7.448 -10.478  0.00  0.00     0.080 H 
ATOM     77  H1  ACR d         -18.871  -5.235 -10.379  0.00  0.00     0.095 H 
BRANCH  68  78
ATOM     78  O2A ACR d         -21.399  -4.629 -11.201  0.00  0.00    -0.390 OA
ATOM     79  H8  ACR d         -21.643  -4.699 -10.285  0.00  0.00     0.210 HD
ENDBRANCH  68  78
BRANCH  69  80
ATOM     80  O3A ACR d         -22.668  -6.686 -12.659  0.00  0.00    -0.390 OA
ATOM     81  H9  ACR d         -23.273  -7.414 -12.579  0.00  0.00     0.210 HD
ENDBRANCH  69  80
BRANCH  71  82
ATOM     82  O4A ACR d         -21.379  -9.263 -12.427  0.00  0.00    -0.388 OA
ATOM     83  H10 ACR d         -21.470  -9.579 -11.535  0.00  0.00     0.210 HD
ENDBRANCH  71  82
BRANCH  73  84
ATOM     84  C6A ACR d         -18.663  -9.562 -11.835  0.00  0.00     0.039 C 
ATOM     85  H5  ACR d         -19.387 -10.356 -12.068  0.00  0.00     0.081 H 
ATOM     86  H6  ACR d         -18.085  -9.844 -10.943  0.00  0.00     0.081 H 
BRANCH  84  87
ATOM     87  O6A ACR d         -17.795  -9.307 -12.957  0.00  0.00    -0.397 OA
ATOM     88  H11 ACR d         -16.934  -9.667 -12.777  0.00  0.00     0.209 HD
ENDBRANCH  84  87
ENDBRANCH  73  84
ENDBRANCH  64  67
ENDBRANCH   4  64
TORSDOF 23
ENDMDL
MODEL 3
REMARK VINA RESULT:      -5.7      2.536      4.775
REMARK  23 active torsions:
REMARK  status: ('A' for Active; 'I' for Inactive)
REMARK    1  A    between atoms: N4B_18  and  C1A_1 
REMARK    2  A    between atoms: C2A_2  and  O2A_8 
REMARK    3  A    between atoms: C3A_3  and  O3A_9 
REMARK    4  A    between atoms: C4A_4  and  O4A_10 
REMARK    5  A    between atoms: C5A_5  and  C6A_6 
REMARK    6  A    between atoms: C6A_6  and  O6A_11 
REMARK    7  A    between atoms: O4C_30  and  C1B_12 
REMARK    8  A    between atoms: C2B_13  and  O2B_19 
REMARK    9  A    between atoms: C3B_14  and  O3B_20 
REMARK   10  A    between atoms: C4B_15  and  N4B_18 
REMARK   11  A    between atoms: C5B_16  and  C6B_17 
REMARK   12  A    between atoms: O4D_42  and  C1C_22 
REMARK   13  A    between atoms: C2C_23  and  O2C_28 
REMARK   14  A    between atoms: C3C_24  and  O3C_29 
REMARK   15  A    between atoms: C4C_25  and  O4C_30 
REMARK   16  A    between atoms: C5C_26  and  C6C_27 
REMARK   17  A    between atoms: C6C_27  and  O6C_32 
REMARK   18  A    between atoms: C1D_33  and  O1D_39 
REMARK   19  A    between atoms: C2D_34  and  O2D_40 
REMARK   20  A    between atoms: C3D_35  and  O3D_41 
REMARK   21  A    between atoms: C4D_36  and  O4D_42 
REMARK   22  A    between atoms: C5D_37  and  C6D_38 
REMARK   23  A    between atoms: C6D_38  and  O6D_44 
ROOT
ATOM      1  C1B ACR d         -19.335  -6.094  -4.647  0.00  0.00     0.159 C 
ATOM      2  C2B ACR d         -18.705  -5.193  -5.708  0.00  0.00     0.110 C 
ATOM      3  C3B ACR d         -19.575  -5.172  -6.975  0.00  0.00     0.094 C 
ATOM      4  C4B ACR d         -19.713  -6.587  -7.537  0.00  0.00     0.154 C 
ATOM      5  C5B ACR d         -20.329  -7.474  -6.434  0.00  0.00     0.068 C 
ATOM      6  O5B ACR d         -19.528  -7.387  -5.228  0.00  0.00    -0.351 OA
ATOM      7  H12 ACR d         -18.664  -6.175  -3.780  0.00  0.00     0.133 H 
ATOM      8  H13 ACR d         -17.702  -5.567  -5.959  0.00  0.00     0.094 H 
ATOM      9  H14 ACR d         -20.571  -4.778  -6.723  0.00  0.00     0.090 H 
ATOM     10  H15 ACR d         -18.698  -6.970  -7.719  0.00  0.00     0.092 H 
ATOM     11  H16 ACR d         -21.346  -7.113  -6.224  0.00  0.00     0.086 H 
ENDROOT
BRANCH   1  12
ATOM     12  O4C ACR d         -20.594  -5.533  -4.223  0.00  0.00    -0.348 OA
BRANCH  12  13
ATOM     13  C4C ACR d         -20.875  -5.585  -2.824  0.00  0.00     0.096 C 
ATOM     14  C3C ACR d         -20.689  -7.028  -2.352  0.00  0.00     0.092 C 
ATOM     15  C2C ACR d         -20.708  -7.177  -0.828  0.00  0.00     0.110 C 
ATOM     16  H26 ACR d         -19.702  -7.366  -2.700  0.00  0.00     0.091 H 
ATOM     17  C1C ACR d         -19.796  -6.168  -0.138  0.00  0.00     0.159 C 
ATOM     18  H25 ACR d         -21.736  -7.065  -0.451  0.00  0.00     0.094 H 
ATOM     19  O5C ACR d         -20.100  -4.851  -0.631  0.00  0.00    -0.348 OA
ATOM     20  H24 ACR d         -19.960  -6.202   0.949  0.00  0.00     0.133 H 
ATOM     21  C5C ACR d         -19.938  -4.650  -2.050  0.00  0.00     0.089 C 
ATOM     22  H28 ACR d         -18.903  -4.897  -2.329  0.00  0.00     0.090 H 
ATOM     23  H27 ACR d         -21.915  -5.274  -2.649  0.00  0.00     0.091 H 
BRANCH  14  24
ATOM     24  O3C ACR d         -21.683  -7.864  -2.958  0.00  0.00    -0.390 OA
ATOM     25  H32 ACR d         -22.337  -8.097  -2.310  0.00  0.00     0.210 HD
ENDBRANCH  14  24
BRANCH  15  26
ATOM     26  O2C ACR d         -20.204  -8.477  -0.546  0.00  0.00    -0.388 OA
ATOM     27  H31 ACR d         -19.896  -8.878  -1.351  0.00  0.00     0.210 HD
ENDBRANCH  15  26
BRANCH  17  28
ATOM     28  O4D ACR d         -18.428  -6.488  -0.425  0.00  0.00    -0.348 OA
BRANCH  28  29
ATOM     29  C4D ACR d         -17.441  -6.169   0.565  0.00  0.00     0.096 C 
ATOM     30  C3D ACR d         -17.022  -4.734   0.227  0.00  0.00     0.092 C 
ATOM     31  C2D ACR d         -16.057  -4.121   1.249  0.00  0.00     0.110 C 
ATOM     32  H36 ACR d         -17.935  -4.120   0.237  0.00  0.00     0.091 H 
ATOM     33  C1D ACR d         -16.495  -4.348   2.720  0.00  0.00     0.156 C 
ATOM     34  H35 ACR d         -15.074  -4.598   1.122  0.00  0.00     0.094 H 
ATOM     35  O5D ACR d         -17.029  -5.667   2.963  0.00  0.00    -0.349 OA
ATOM     36  H34 ACR d         -15.594  -4.241   3.341  0.00  0.00     0.133 H 
ATOM     37  C5D ACR d         -17.995  -6.169   2.009  0.00  0.00     0.089 C 
ATOM     38  H38 ACR d         -18.858  -5.488   2.015  0.00  0.00     0.090 H 
ATOM     39  H37 ACR d         -16.591  -6.864   0.495  0.00  0.00     0.091 H 
BRANCH  30  40
ATOM     40  O3D ACR d         -16.468  -4.668  -1.103  0.00  0.00    -0.390 OA
ATOM     41  H43 ACR d         -16.949  -5.254  -1.675  0.00  0.00     0.210 HD
ENDBRANCH  30  40
BRANCH  31  42
ATOM     42  O2D ACR d         -15.930  -2.719   0.939  0.00  0.00    -0.388 OA
ATOM     43  H42 ACR d         -16.750  -2.278   1.130  0.00  0.00     0.210 HD
ENDBRANCH  31  42
BRANCH  33  44
ATOM     44  O1D ACR d         -17.442  -3.356   3.153  0.00  0.00    -0.369 OA
ATOM     45  H41 ACR d         -18.078  -3.758   3.734  0.00  0.00     0.212 HD
ENDBRANCH  33  44
BRANCH  37  46
ATOM     46  C6D ACR d         -18.486  -7.535   2.498  0.00  0.00     0.043 C 
ATOM     47  H39 ACR d         -19.585  -7.541   2.530  0.00  0.00     0.078 H 
ATOM     48  H40 ACR d         -18.088  -7.730   3.505  0.00  0.00     0.078 H 
BRANCH  46  49
ATOM     49  O6D ACR d         -18.024  -8.554   1.592  0.00  0.00    -0.398 OA
ATOM     50  H44 ACR d         -18.751  -8.856   1.061  0.00  0.00     0.209 HD
ENDBRANCH  46  49
ENDBRANCH  37  46
ENDBRANCH  28  29
ENDBRANCH  17  28
BRANCH  21  51
ATOM     51  C6C ACR d         -20.182  -3.178  -2.366  0.00  0.00     0.043 C 
ATOM     52  H29 ACR d         -19.298  -2.759  -2.867  0.00  0.00     0.078 H 
ATOM     53  H30 ACR d         -20.368  -2.629  -1.430  0.00  0.00     0.078 H 
BRANCH  51  54
ATOM     54  O6C ACR d         -21.323  -3.053  -3.228  0.00  0.00    -0.398 OA
ATOM     55  H33 ACR d         -21.719  -3.907  -3.353  0.00  0.00     0.209 HD
ENDBRANCH  51  54
ENDBRANCH  21  51
ENDBRANCH  12  13
ENDBRANCH   1  12
BRANCH   2  56
ATOM     56  O2B ACR d         -18.610  -3.870  -5.184  0.00  0.00    -0.388 OA
ATOM     57  H22 ACR d         -17.937  -3.843  -4.514  0.00  0.00     0.210 HD
ENDBRANCH   2  56
BRANCH   3  58
ATOM     58  O3B ACR d         -18.980  -4.352  -7.975  0.00  0.00    -0.391 OA
ATOM     59  H23 ACR d         -18.804  -4.875  -8.748  0.00  0.00     0.210 HD
ENDBRANCH   3  58
BRANCH   5  60
ATOM     60  C6B ACR d         -20.402  -8.941  -6.844  0.00  0.00    -0.050 C 
ATOM     61  H17 ACR d         -21.103  -9.053  -7.684  0.00  0.00     0.031 H 
ATOM     62  H18 ACR d         -20.752  -9.542  -5.992  0.00  0.00     0.031 H 
ATOM     63  H19 ACR d         -19.404  -9.287  -7.151  0.00  0.00     0.031 H 
ENDBRANCH   5  60
BRANCH   4  64
ATOM     64  N4B ACR d         -20.393  -6.609  -8.850  0.00  0.00    -0.056 N 
ATOM     65  H20 ACR d         -20.802  -7.525  -8.959  0.00  0.00     0.278 HD
ATOM     66  H21 ACR d         -21.125  -5.917  -8.819  0.00  0.00     0.278 HD
BRANCH  64  67
ATOM     67  C1A ACR d         -19.584  -6.340 -10.070  0.00  0.00     0.146 C 
ATOM     68  C2A ACR d         -20.356  -5.715 -11.250  0.00  0.00     0.093 C 
ATOM     69  C3A ACR d         -21.291  -6.757 -11.866  0.00  0.00     0.091 C 
ATOM     70  H2  ACR d         -19.635  -5.378 -12.010  0.00  0.00     0.090 H 
ATOM     71  C4A ACR d         -20.446  -7.829 -12.527  0.00  0.00     0.086 C 
ATOM     72  H3  ACR d         -21.840  -7.225 -11.036  0.00  0.00     0.091 H 
ATOM     73  C5A ACR d         -19.329  -8.292 -11.617  0.00  0.00    -0.027 C 
ATOM     74  H4  ACR d         -20.006  -7.419 -13.448  0.00  0.00     0.094 H 
ATOM     75  C7A ACR d         -18.850  -7.573 -10.589  0.00  0.00    -0.064 C 
ATOM     76  H7  ACR d         -17.918  -7.875 -10.116  0.00  0.00     0.080 H 
ATOM     77  H1  ACR d         -18.820  -5.609  -9.766  0.00  0.00     0.095 H 
BRANCH  68  78
ATOM     78  O2A ACR d         -21.128  -4.605 -10.815  0.00  0.00    -0.390 OA
ATOM     79  H8  ACR d         -20.860  -4.358  -9.938  0.00  0.00     0.210 HD
ENDBRANCH  68  78
BRANCH  69  80
ATOM     80  O3A ACR d         -22.307  -6.235 -12.794  0.00  0.00    -0.390 OA
ATOM     81  H9  ACR d         -23.074  -5.966 -12.303  0.00  0.00     0.210 HD
ENDBRANCH  69  80
BRANCH  71  82
ATOM     82  O4A ACR d         -21.282  -8.937 -12.859  0.00  0.00    -0.388 OA
ATOM     83  H10 ACR d         -20.776  -9.582 -13.341  0.00  0.00     0.210 HD
ENDBRANCH  71  82
BRANCH  73  84
ATOM     84  C6A ACR d         -18.728  -9.622 -11.951  0.00  0.00     0.039 C 
ATOM     85  H5  ACR d         -19.377 -10.191 -12.631  0.00  0.00     0.081 H 
ATOM     86  H6  ACR d         -18.542 -10.213 -11.042  0.00  0.00     0.081 H 
BRANCH  84  87
ATOM     87  O6A ACR d         -17.491  -9.261 -12.596  0.00  0.00    -0.397 OA
ATOM     88  H11 ACR d         -17.047 -10.048 -12.890  0.00  0.00     0.209 HD
ENDBRANCH  84  87
ENDBRANCH  73  84
ENDBRANCH  64  67
ENDBRANCH   4  64
TORSDOF 23
ENDMDL
MODEL 4
REMARK VINA RESULT:      -5.2      2.622      4.259
REMARK  23 active torsions:
REMARK  status: ('A' for Active; 'I' for Inactive)
REMARK    1  A    between atoms: N4B_18  and  C1A_1 
REMARK    2  A    between atoms: C2A_2  and  O2A_8 
REMARK    3  A    between atoms: C3A_3  and  O3A_9 
REMARK    4  A    between atoms: C4A_4  and  O4A_10 
REMARK    5  A    between atoms: C5A_5  and  C6A_6 
REMARK    6  A    between atoms: C6A_6  and  O6A_11 
REMARK    7  A    between atoms: O4C_30  and  C1B_12 
REMARK    8  A    between atoms: C2B_13  and  O2B_19 
REMARK    9  A    between atoms: C3B_14  and  O3B_20 
REMARK   10  A    between atoms: C4B_15  and  N4B_18 
REMARK   11  A    between atoms: C5B_16  and  C6B_17 
REMARK   12  A    between atoms: O4D_42  and  C1C_22 
REMARK   13  A    between atoms: C2C_23  and  O2C_28 
REMARK   14  A    between atoms: C3C_24  and  O3C_29 
REMARK   15  A    between atoms: C4C_25  and  O4C_30 
REMARK   16  A    between atoms: C5C_26  and  C6C_27 
REMARK   17  A    between atoms: C6C_27  and  O6C_32 
REMARK   18  A    between atoms: C1D_33  and  O1D_39 
REMARK   19  A    between atoms: C2D_34  and  O2D_40 
REMARK   20  A    between atoms: C3D_35  and  O3D_41 
REMARK   21  A    between atoms: C4D_36  and  O4D_42 
REMARK   22  A    between atoms: C5D_37  and  C6D_38 
REMARK   23  A    between atoms: C6D_38  and  O6D_44 
ROOT
ATOM      1  C1B ACR d         -18.674  -6.124  -4.925  0.00  0.00     0.159 C 
ATOM      2  C2B ACR d         -17.936  -5.462  -6.087  0.00  0.00     0.110 C 
ATOM      3  C3B ACR d         -18.903  -5.199  -7.253  0.00  0.00     0.094 C 
ATOM      4  C4B ACR d         -19.514  -6.516  -7.732  0.00  0.00     0.154 C 
ATOM      5  C5B ACR d         -20.230  -7.168  -6.530  0.00  0.00     0.068 C 
ATOM      6  O5B ACR d         -19.304  -7.309  -5.422  0.00  0.00    -0.351 OA
ATOM      7  H12 ACR d         -17.959  -6.391  -4.133  0.00  0.00     0.133 H 
ATOM      8  H13 ACR d         -17.123  -6.120  -6.429  0.00  0.00     0.094 H 
ATOM      9  H14 ACR d         -19.703  -4.525  -6.912  0.00  0.00     0.090 H 
ATOM     10  H15 ACR d         -18.684  -7.184  -8.005  0.00  0.00     0.092 H 
ATOM     11  H16 ACR d         -21.065  -6.519  -6.228  0.00  0.00     0.086 H 
ENDROOT
BRANCH   1  12
ATOM     12  O4C ACR d         -19.654  -5.211  -4.392  0.00  0.00    -0.348 OA
BRANCH  12  13
ATOM     13  C4C ACR d         -20.046  -5.417  -3.035  0.00  0.00     0.096 C 
ATOM     14  C3C ACR d         -21.154  -6.470  -3.011  0.00  0.00     0.092 C 
ATOM     15  C2C ACR d         -21.487  -6.973  -1.603  0.00  0.00     0.110 C 
ATOM     16  H26 ACR d         -20.801  -7.336  -3.591  0.00  0.00     0.091 H 
ATOM     17  C1C ACR d         -20.237  -7.358  -0.819  0.00  0.00     0.159 C 
ATOM     18  H25 ACR d         -22.049  -6.203  -1.052  0.00  0.00     0.094 H 
ATOM     19  O5C ACR d         -19.296  -6.272  -0.877  0.00  0.00    -0.348 OA
ATOM     20  H24 ACR d         -20.505  -7.558   0.229  0.00  0.00     0.133 H 
ATOM     21  C5C ACR d         -18.852  -5.886  -2.195  0.00  0.00     0.089 C 
ATOM     22  H28 ACR d         -18.408  -6.761  -2.692  0.00  0.00     0.090 H 
ATOM     23  H27 ACR d         -20.427  -4.474  -2.618  0.00  0.00     0.091 H 
BRANCH  14  24
ATOM     24  O3C ACR d         -22.325  -5.951  -3.656  0.00  0.00    -0.390 OA
ATOM     25  H32 ACR d         -23.030  -6.582  -3.584  0.00  0.00     0.210 HD
ENDBRANCH  14  24
BRANCH  15  26
ATOM     26  O2C ACR d         -22.270  -8.148  -1.771  0.00  0.00    -0.388 OA
ATOM     27  H31 ACR d         -22.946  -8.176  -1.103  0.00  0.00     0.210 HD
ENDBRANCH  15  26
BRANCH  17  28
ATOM     28  O4D ACR d         -19.656  -8.534  -1.396  0.00  0.00    -0.348 OA
BRANCH  28  29
ATOM     29  C4D ACR d         -18.977  -9.447  -0.523  0.00  0.00     0.096 C 
ATOM     30  C3D ACR d         -17.738  -8.673  -0.062  0.00  0.00     0.092 C 
ATOM     31  C2D ACR d         -16.916  -9.410   1.002  0.00  0.00     0.110 C 
ATOM     32  H36 ACR d         -18.093  -7.738   0.396  0.00  0.00     0.091 H 
ATOM     33  C1D ACR d         -17.782 -10.004   2.145  0.00  0.00     0.156 C 
ATOM     34  H35 ACR d         -16.397 -10.249   0.515  0.00  0.00     0.094 H 
ATOM     35  O5D ACR d         -19.018 -10.589   1.683  0.00  0.00    -0.349 OA
ATOM     36  H34 ACR d         -17.192 -10.809   2.607  0.00  0.00     0.133 H 
ATOM     37  C5D ACR d         -19.795  -9.818   0.736  0.00  0.00     0.089 C 
ATOM     38  H38 ACR d         -20.073  -8.871   1.222  0.00  0.00     0.090 H 
ATOM     39  H37 ACR d         -18.701 -10.363  -1.067  0.00  0.00     0.091 H 
BRANCH  30  40
ATOM     40  O3D ACR d         -16.912  -8.320  -1.191  0.00  0.00    -0.390 OA
ATOM     41  H43 ACR d         -16.003  -8.287  -0.919  0.00  0.00     0.210 HD
ENDBRANCH  30  40
BRANCH  31  42
ATOM     42  O2D ACR d         -15.928  -8.488   1.503  0.00  0.00    -0.388 OA
ATOM     43  H42 ACR d         -16.223  -8.131   2.333  0.00  0.00     0.210 HD
ENDBRANCH  31  42
BRANCH  33  44
ATOM     44  O1D ACR d         -18.061  -9.028   3.164  0.00  0.00    -0.369 OA
ATOM     45  H41 ACR d         -17.919  -8.156   2.814  0.00  0.00     0.212 HD
ENDBRANCH  33  44
BRANCH  37  46
ATOM     46  C6D ACR d         -21.092 -10.580   0.447  0.00  0.00     0.043 C 
ATOM     47  H39 ACR d         -21.930 -10.092   0.965  0.00  0.00     0.078 H 
ATOM     48  H40 ACR d         -20.996 -11.618   0.801  0.00  0.00     0.078 H 
BRANCH  46  49
ATOM     49  O6D ACR d         -21.334 -10.577  -0.971  0.00  0.00    -0.398 OA
ATOM     50  H44 ACR d         -20.862  -9.855  -1.370  0.00  0.00     0.209 HD
ENDBRANCH  46  49
ENDBRANCH  37  46
ENDBRANCH  28  29
ENDBRANCH  17  28
BRANCH  21  51
ATOM     51  C6C ACR d         -17.775  -4.816  -2.053  0.00  0.00     0.043 C 
ATOM     52  H29 ACR d         -17.983  -4.202  -1.165  0.00  0.00     0.078 H 
ATOM     53  H30 ACR d         -17.774  -4.176  -2.949  0.00  0.00     0.078 H 
BRANCH  51  54
ATOM     54  O6C ACR d         -16.490  -5.441  -1.910  0.00  0.00    -0.398 OA
ATOM     55  H33 ACR d         -16.136  -5.634  -2.770  0.00  0.00     0.209 HD
ENDBRANCH  51  54
ENDBRANCH  21  51
ENDBRANCH  12  13
ENDBRANCH   1  12
BRANCH   2  56
ATOM     56  O2B ACR d         -17.397  -4.221  -5.637  0.00  0.00    -0.388 OA
ATOM     57  H22 ACR d         -16.871  -3.836  -6.329  0.00  0.00     0.210 HD
ENDBRANCH   2  56
BRANCH   3  58
ATOM     58  O3B ACR d         -18.215  -4.603  -8.347  0.00  0.00    -0.391 OA
ATOM     59  H23 ACR d         -18.320  -5.146  -9.119  0.00  0.00     0.210 HD
ENDBRANCH   3  58
BRANCH   5  60
ATOM     60  C6B ACR d         -20.777  -8.552  -6.862  0.00  0.00    -0.050 C 
ATOM     61  H17 ACR d         -19.943  -9.262  -6.963  0.00  0.00     0.031 H 
ATOM     62  H18 ACR d         -21.337  -8.508  -7.808  0.00  0.00     0.031 H 
ATOM     63  H19 ACR d         -21.446  -8.886  -6.055  0.00  0.00     0.031 H 
ENDBRANCH   5  60
BRANCH   4  64
ATOM     64  N4B ACR d         -20.320  -6.350  -8.961  0.00  0.00    -0.056 N 
ATOM     65  H20 ACR d         -20.904  -7.167  -9.047  0.00  0.00     0.278 HD
ATOM     66  H21 ACR d         -20.898  -5.535  -8.831  0.00  0.00     0.278 HD
BRANCH  64  67
ATOM     67  C1A ACR d         -19.606  -6.181 -10.256  0.00  0.00     0.146 C 
ATOM     68  C2A ACR d         -20.489  -5.758 -11.448  0.00  0.00     0.093 C 
ATOM     69  C3A ACR d         -21.381  -6.925 -11.871  0.00  0.00     0.091 C 
ATOM     70  H2  ACR d         -19.841  -5.471 -12.289  0.00  0.00     0.090 H 
ATOM     71  C4A ACR d         -20.502  -8.014 -12.455  0.00  0.00     0.086 C 
ATOM     72  H3  ACR d         -21.845  -7.322 -10.955  0.00  0.00     0.091 H 
ATOM     73  C5A ACR d         -19.303  -8.288 -11.574  0.00  0.00    -0.027 C 
ATOM     74  H4  ACR d         -20.148  -7.693 -13.446  0.00  0.00     0.094 H 
ATOM     75  C7A ACR d         -18.817  -7.419 -10.674  0.00  0.00    -0.064 C 
ATOM     76  H7  ACR d         -17.839  -7.600 -10.232  0.00  0.00     0.080 H 
ATOM     77  H1  ACR d         -18.880  -5.371 -10.094  0.00  0.00     0.095 H 
BRANCH  68  78
ATOM     78  O2A ACR d         -21.312  -4.654 -11.096  0.00  0.00    -0.390 OA
ATOM     79  H8  ACR d         -20.955  -3.860 -11.478  0.00  0.00     0.210 HD
ENDBRANCH  68  78
BRANCH  69  80
ATOM     80  O3A ACR d         -22.486  -6.588 -12.783  0.00  0.00    -0.390 OA
ATOM     81  H9  ACR d         -22.188  -6.666 -13.682  0.00  0.00     0.210 HD
ENDBRANCH  69  80
BRANCH  71  82
ATOM     82  O4A ACR d         -21.275  -9.206 -12.596  0.00  0.00    -0.388 OA
ATOM     83  H10 ACR d         -21.952  -9.069 -13.248  0.00  0.00     0.210 HD
ENDBRANCH  71  82
BRANCH  73  84
ATOM     84  C6A ACR d         -18.628  -9.608 -11.787  0.00  0.00     0.039 C 
ATOM     85  H5  ACR d         -19.361 -10.397 -12.008  0.00  0.00     0.081 H 
ATOM     86  H6  ACR d         -18.033  -9.896 -10.909  0.00  0.00     0.081 H 
BRANCH  84  87
ATOM     87  O6A ACR d         -17.782  -9.354 -12.926  0.00  0.00    -0.397 OA
ATOM     88  H11 ACR d         -18.183  -9.722 -13.705  0.00  0.00     0.209 HD
ENDBRANCH  84  87
ENDBRANCH  73  84
ENDBRANCH  64  67
ENDBRANCH   4  64
TORSDOF 23
ENDMDL
MODEL 5
REMARK VINA RESULT:      -4.8      2.467      3.893
REMARK  23 active torsions:
REMARK  status: ('A' for Active; 'I' for Inactive)
REMARK    1  A    between atoms: N4B_18  and  C1A_1 
REMARK    2  A    between atoms: C2A_2  and  O2A_8 
REMARK    3  A    between atoms: C3A_3  and  O3A_9 
REMARK    4  A    between atoms: C4A_4  and  O4A_10 
REMARK    5  A    between atoms: C5A_5  and  C6A_6 
REMARK    6  A    between atoms: C6A_6  and  O6A_11 
REMARK    7  A    between atoms: O4C_30  and  C1B_12 
REMARK    8  A    between atoms: C2B_13  and  O2B_19 
REMARK    9  A    between atoms: C3B_14  and  O3B_20 
REMARK   10  A    between atoms: C4B_15  and  N4B_18 
REMARK   11  A    between atoms: C5B_16  and  C6B_17 
REMARK   12  A    between atoms: O4D_42  and  C1C_22 
REMARK   13  A    between atoms: C2C_23  and  O2C_28 
REMARK   14  A    between atoms: C3C_24  and  O3C_29 
REMARK   15  A    between atoms: C4C_25  and  O4C_30 
REMARK   16  A    between atoms: C5C_26  and  C6C_27 
REMARK   17  A    between atoms: C6C_27  and  O6C_32 
REMARK   18  A    between atoms: C1D_33  and  O1D_39 
REMARK   19  A    between atoms: C2D_34  and  O2D_40 
REMARK   20  A    between atoms: C3D_35  and  O3D_41 
REMARK   21  A    between atoms: C4D_36  and  O4D_42 
REMARK   22  A    between atoms: C5D_37  and  C6D_38 
REMARK   23  A    between atoms: C6D_38  and  O6D_44 
ROOT
ATOM      1  C1B ACR d         -18.412  -7.705  -3.835  0.00  0.00     0.159 C 
ATOM      2  C2B ACR d         -18.298  -8.973  -4.681  0.00  0.00     0.110 C 
ATOM      3  C3B ACR d         -18.564  -8.653  -6.161  0.00  0.00     0.094 C 
ATOM      4  C4B ACR d         -19.967  -8.066  -6.324  0.00  0.00     0.154 C 
ATOM      5  C5B ACR d         -20.055  -6.804  -5.440  0.00  0.00     0.068 C 
ATOM      6  O5B ACR d         -19.703  -7.134  -4.073  0.00  0.00    -0.351 OA
ATOM      7  H12 ACR d         -18.311  -7.957  -2.770  0.00  0.00     0.133 H 
ATOM      8  H13 ACR d         -19.030  -9.716  -4.330  0.00  0.00     0.094 H 
ATOM      9  H14 ACR d         -17.818  -7.925  -6.512  0.00  0.00     0.090 H 
ATOM     10  H15 ACR d         -20.679  -8.793  -5.907  0.00  0.00     0.092 H 
ATOM     11  H16 ACR d         -19.348  -6.056  -5.829  0.00  0.00     0.086 H 
ENDROOT
BRANCH   1  12
ATOM     12  O4C ACR d         -17.370  -6.781  -4.207  0.00  0.00    -0.348 OA
BRANCH  12  13
ATOM     13  C4C ACR d         -17.097  -5.725  -3.285  0.00  0.00     0.096 C 
ATOM     14  C3C ACR d         -18.121  -4.614  -3.513  0.00  0.00     0.092 C 
ATOM     15  C2C ACR d         -18.104  -3.536  -2.425  0.00  0.00     0.110 C 
ATOM     16  H26 ACR d         -19.120  -5.075  -3.499  0.00  0.00     0.091 H 
ATOM     17  C1C ACR d         -18.127  -4.134  -1.022  0.00  0.00     0.159 C 
ATOM     18  H25 ACR d         -17.215  -2.898  -2.542  0.00  0.00     0.094 H 
ATOM     19  O5C ACR d         -17.092  -5.127  -0.921  0.00  0.00    -0.348 OA
ATOM     20  H24 ACR d         -17.953  -3.342  -0.279  0.00  0.00     0.133 H 
ATOM     21  C5C ACR d         -17.181  -6.235  -1.842  0.00  0.00     0.089 C 
ATOM     22  H28 ACR d         -18.154  -6.730  -1.711  0.00  0.00     0.090 H 
ATOM     23  H27 ACR d         -16.085  -5.335  -3.468  0.00  0.00     0.091 H 
BRANCH  14  24
ATOM     24  O3C ACR d         -17.920  -4.033  -4.809  0.00  0.00    -0.390 OA
ATOM     25  H32 ACR d         -18.424  -4.515  -5.452  0.00  0.00     0.210 HD
ENDBRANCH  14  24
BRANCH  15  26
ATOM     26  O2C ACR d         -19.297  -2.779  -2.591  0.00  0.00    -0.388 OA
ATOM     27  H31 ACR d         -19.077  -1.858  -2.676  0.00  0.00     0.210 HD
ENDBRANCH  15  26
BRANCH  17  28
ATOM     28  O4D ACR d         -19.404  -4.740  -0.784  0.00  0.00    -0.348 OA
BRANCH  28  29
ATOM     29  C4D ACR d         -20.011  -4.548   0.502  0.00  0.00     0.096 C 
ATOM     30  C3D ACR d         -21.393  -3.969   0.180  0.00  0.00     0.092 C 
ATOM     31  C2D ACR d         -22.289  -3.806   1.414  0.00  0.00     0.110 C 
ATOM     32  H36 ACR d         -21.894  -4.683  -0.490  0.00  0.00     0.091 H 
ATOM     33  C1D ACR d         -22.298  -5.053   2.336  0.00  0.00     0.156 C 
ATOM     34  H35 ACR d         -21.908  -2.962   2.006  0.00  0.00     0.094 H 
ATOM     35  O5D ACR d         -20.998  -5.662   2.490  0.00  0.00    -0.349 OA
ATOM     36  H34 ACR d         -22.619  -4.711   3.332  0.00  0.00     0.133 H 
ATOM     37  C5D ACR d         -20.223  -5.864   1.286  0.00  0.00     0.089 C 
ATOM     38  H38 ACR d         -20.794  -6.535   0.627  0.00  0.00     0.090 H 
ATOM     39  H37 ACR d         -19.412  -3.850   1.106  0.00  0.00     0.091 H 
BRANCH  30  40
ATOM     40  O3D ACR d         -21.266  -2.720  -0.529  0.00  0.00    -0.390 OA
ATOM     41  H43 ACR d         -22.109  -2.477  -0.893  0.00  0.00     0.210 HD
ENDBRANCH  30  40
BRANCH  31  42
ATOM     42  O2D ACR d         -23.613  -3.476   0.947  0.00  0.00    -0.388 OA
ATOM     43  H42 ACR d         -24.056  -2.950   1.602  0.00  0.00     0.210 HD
ENDBRANCH  31  42
BRANCH  33  44
ATOM     44  O1D ACR d         -23.245  -6.040   1.890  0.00  0.00    -0.369 OA
ATOM     45  H41 ACR d         -24.104  -5.835   2.240  0.00  0.00     0.212 HD
ENDBRANCH  33  44
BRANCH  37  46
ATOM     46  C6D ACR d         -18.929  -6.590   1.665  0.00  0.00     0.043 C 
ATOM     47  H39 ACR d         -18.629  -7.261   0.846  0.00  0.00     0.078 H 
ATOM     48  H40 ACR d         -19.091  -7.179   2.581  0.00  0.00     0.078 H 
BRANCH  46  49
ATOM     49  O6D ACR d         -17.893  -5.618   1.896  0.00  0.00    -0.398 OA
ATOM     50  H44 ACR d         -17.958  -5.292   2.786  0.00  0.00     0.209 HD
ENDBRANCH  46  49
ENDBRANCH  37  46
ENDBRANCH  28  29
ENDBRANCH  17  28
BRANCH  21  51
ATOM     51  C6C ACR d         -16.082  -7.238  -1.506  0.00  0.00     0.043 C 
ATOM     52  H29 ACR d         -15.276  -6.729  -0.959  0.00  0.00     0.078 H 
ATOM     53  H30 ACR d         -15.681  -7.667  -2.437  0.00  0.00     0.078 H 
BRANCH  51  54
ATOM     54  O6C ACR d         -16.622  -8.288  -0.690  0.00  0.00    -0.398 OA
ATOM     55  H33 ACR d         -17.236  -7.919  -0.066  0.00  0.00     0.209 HD
ENDBRANCH  51  54
ENDBRANCH  21  51
ENDBRANCH  12  13
ENDBRANCH   1  12
BRANCH   2  56
ATOM     56  O2B ACR d         -16.978  -9.494  -4.545  0.00  0.00    -0.388 OA
ATOM     57  H22 ACR d         -16.538  -9.056  -3.826  0.00  0.00     0.210 HD
ENDBRANCH   2  56
BRANCH   3  58
ATOM     58  O3B ACR d         -18.481  -9.835  -6.949  0.00  0.00    -0.391 OA
ATOM     59  H23 ACR d         -18.520 -10.596  -6.382  0.00  0.00     0.210 HD
ENDBRANCH   3  58
BRANCH   5  60
ATOM     60  C6B ACR d         -21.455  -6.199  -5.431  0.00  0.00    -0.050 C 
ATOM     61  H17 ACR d         -21.565  -5.542  -4.556  0.00  0.00     0.031 H 
ATOM     62  H18 ACR d         -22.202  -7.005  -5.381  0.00  0.00     0.031 H 
ATOM     63  H19 ACR d         -21.608  -5.613  -6.349  0.00  0.00     0.031 H 
ENDBRANCH   5  60
BRANCH   4  64
ATOM     64  N4B ACR d         -20.346  -7.898  -7.744  0.00  0.00    -0.056 N 
ATOM     65  H20 ACR d         -20.824  -8.740  -8.026  0.00  0.00     0.278 HD
ATOM     66  H21 ACR d         -20.982  -7.118  -7.792  0.00  0.00     0.278 HD
BRANCH  64  67
ATOM     67  C1A ACR d         -19.268  -7.650  -8.738  0.00  0.00     0.146 C 
ATOM     68  C2A ACR d         -19.241  -6.231  -9.344  0.00  0.00     0.093 C 
ATOM     69  C3A ACR d         -20.425  -6.054 -10.296  0.00  0.00     0.091 C 
ATOM     70  H2  ACR d         -18.302  -6.098  -9.902  0.00  0.00     0.090 H 
ATOM     71  C4A ACR d         -20.214  -6.953 -11.499  0.00  0.00     0.086 C 
ATOM     72  H3  ACR d         -21.320  -6.408  -9.763  0.00  0.00     0.091 H 
ATOM     73  C5A ACR d         -19.812  -8.351 -11.079  0.00  0.00    -0.027 C 
ATOM     74  H4  ACR d         -19.416  -6.528 -12.126  0.00  0.00     0.094 H 
ATOM     75  C7A ACR d         -19.268  -8.651  -9.889  0.00  0.00    -0.064 C 
ATOM     76  H7  ACR d         -18.818  -9.631  -9.742  0.00  0.00     0.080 H 
ATOM     77  H1  ACR d         -18.322  -7.780  -8.192  0.00  0.00     0.095 H 
BRANCH  68  78
ATOM     78  O2A ACR d         -19.320  -5.247  -8.323  0.00  0.00    -0.390 OA
ATOM     79  H8  ACR d         -20.169  -5.299  -7.899  0.00  0.00     0.210 HD
ENDBRANCH  68  78
BRANCH  69  80
ATOM     80  O3A ACR d         -20.710  -4.671 -10.711  0.00  0.00    -0.390 OA
ATOM     81  H9  ACR d         -20.299  -4.068 -10.102  0.00  0.00     0.210 HD
ENDBRANCH  69  80
BRANCH  71  82
ATOM     82  O4A ACR d         -21.425  -7.009 -12.253  0.00  0.00    -0.388 OA
ATOM     83  H10 ACR d         -21.552  -7.892 -12.580  0.00  0.00     0.210 HD
ENDBRANCH  71  82
BRANCH  73  84
ATOM     84  C6A ACR d         -20.016  -9.421 -12.107  0.00  0.00     0.039 C 
ATOM     85  H5  ACR d         -19.566 -10.371 -11.784  0.00  0.00     0.081 H 
ATOM     86  H6  ACR d         -19.592  -9.125 -13.077  0.00  0.00     0.081 H 
BRANCH  84  87
ATOM     87  O6A ACR d         -21.451  -9.525 -12.178  0.00  0.00    -0.397 OA
ATOM     88  H11 ACR d         -21.717 -10.402 -11.927  0.00  0.00     0.209 HD
ENDBRANCH  84  87
ENDBRANCH  73  84
ENDBRANCH  64  67
ENDBRANCH   4  64
TORSDOF 23
ENDMDL
MODEL 6
REMARK VINA RESULT:      -4.7      2.290     10.051
REMARK  23 active torsions:
REMARK  status: ('A' for Active; 'I' for Inactive)
REMARK    1  A    between atoms: N4B_18  and  C1A_1 
REMARK    2  A    between atoms: C2A_2  and  O2A_8 
REMARK    3  A    between atoms: C3A_3  and  O3A_9 
REMARK    4  A    between atoms: C4A_4  and  O4A_10 
REMARK    5  A    between atoms: C5A_5  and  C6A_6 
REMARK    6  A    between atoms: C6A_6  and  O6A_11 
REMARK    7  A    between atoms: O4C_30  and  C1B_12 
REMARK    8  A    between atoms: C2B_13  and  O2B_19 
REMARK    9  A    between atoms: C3B_14  and  O3B_20 
REMARK   10  A    between atoms: C4B_15  and  N4B_18 
REMARK   11  A    between atoms: C5B_16  and  C6B_17 
REMARK   12  A    between atoms: O4D_42  and  C1C_22 
REMARK   13  A    between atoms: C2C_23  and  O2C_28 
REMARK   14  A    between atoms: C3C_24  and  O3C_29 
REMARK   15  A    between atoms: C4C_25  and  O4C_30 
REMARK   16  A    between atoms: C5C_26  and  C6C_27 
REMARK   17  A    between atoms: C6C_27  and  O6C_32 
REMARK   18  A    between atoms: C1D_33  and  O1D_39 
REMARK   19  A    between atoms: C2D_34  and  O2D_40 
REMARK   20  A    between atoms: C3D_35  and  O3D_41 
REMARK   21  A    between atoms: C4D_36  and  O4D_42 
REMARK   22  A    between atoms: C5D_37  and  C6D_38 
REMARK   23  A    between atoms: C6D_38  and  O6D_44 
ROOT
ATOM      1  C1B ACR d         -22.248  -8.291  -3.573  0.00  0.00     0.159 C 
ATOM      2  C2B ACR d         -23.253  -7.140  -3.604  0.00  0.00     0.110 C 
ATOM      3  C3B ACR d         -23.638  -6.729  -2.173  0.00  0.00     0.094 C 
ATOM      4  C4B ACR d         -24.260  -7.917  -1.439  0.00  0.00     0.154 C 
ATOM      5  C5B ACR d         -23.230  -9.067  -1.446  0.00  0.00     0.068 C 
ATOM      6  O5B ACR d         -22.824  -9.355  -2.809  0.00  0.00    -0.351 OA
ATOM      7  H12 ACR d         -22.047  -8.638  -4.596  0.00  0.00     0.133 H 
ATOM      8  H13 ACR d         -24.155  -7.454  -4.149  0.00  0.00     0.094 H 
ATOM      9  H14 ACR d         -22.736  -6.397  -1.639  0.00  0.00     0.090 H 
ATOM     10  H15 ACR d         -25.120  -8.259  -2.033  0.00  0.00     0.092 H 
ATOM     11  H16 ACR d         -22.353  -8.752  -0.862  0.00  0.00     0.086 H 
ENDROOT
BRANCH   1  12
ATOM     12  O4C ACR d         -21.017  -7.841  -2.973  0.00  0.00    -0.348 OA
BRANCH  12  13
ATOM     13  C4C ACR d         -19.814  -8.162  -3.672  0.00  0.00     0.096 C 
ATOM     14  C3C ACR d         -20.109  -9.320  -4.626  0.00  0.00     0.092 C 
ATOM     15  C2C ACR d         -18.976  -9.594  -5.619  0.00  0.00     0.110 C 
ATOM     16  H26 ACR d         -20.999  -9.046  -5.213  0.00  0.00     0.091 H 
ATOM     17  C1C ACR d         -18.491  -8.322  -6.305  0.00  0.00     0.159 C 
ATOM     18  H25 ACR d         -18.134 -10.082  -5.104  0.00  0.00     0.094 H 
ATOM     19  O5C ACR d         -18.203  -7.331  -5.303  0.00  0.00    -0.348 OA
ATOM     20  H24 ACR d         -17.580  -8.537  -6.884  0.00  0.00     0.133 H 
ATOM     21  C5C ACR d         -19.305  -6.946  -4.455  0.00  0.00     0.089 C 
ATOM     22  H28 ACR d         -20.128  -6.578  -5.085  0.00  0.00     0.090 H 
ATOM     23  H27 ACR d         -19.044  -8.469  -2.949  0.00  0.00     0.091 H 
BRANCH  14  24
ATOM     24  O3C ACR d         -20.421 -10.497  -3.870  0.00  0.00    -0.390 OA
ATOM     25  H32 ACR d         -20.816 -11.144  -4.443  0.00  0.00     0.210 HD
ENDBRANCH  14  24
BRANCH  15  26
ATOM     26  O2C ACR d         -19.519 -10.445  -6.622  0.00  0.00    -0.388 OA
ATOM     27  H31 ACR d         -19.271 -11.345  -6.440  0.00  0.00     0.210 HD
ENDBRANCH  15  26
BRANCH  17  28
ATOM     28  O4D ACR d         -19.512  -7.836  -7.187  0.00  0.00    -0.348 OA
BRANCH  28  29
ATOM     29  C4D ACR d         -19.115  -7.361  -8.480  0.00  0.00     0.096 C 
ATOM     30  C3D ACR d         -20.122  -8.003  -9.440  0.00  0.00     0.092 C 
ATOM     31  C2D ACR d         -19.976  -7.524 -10.889  0.00  0.00     0.110 C 
ATOM     32  H36 ACR d         -21.125  -7.706  -9.102  0.00  0.00     0.091 H 
ATOM     33  C1D ACR d         -19.838  -5.984 -11.016  0.00  0.00     0.156 C 
ATOM     34  H35 ACR d         -19.063  -7.971 -11.309  0.00  0.00     0.094 H 
ATOM     35  O5D ACR d         -19.003  -5.396  -9.997  0.00  0.00    -0.349 OA
ATOM     36  H34 ACR d         -19.359  -5.785 -11.986  0.00  0.00     0.133 H 
ATOM     37  C5D ACR d         -19.232  -5.826  -8.634  0.00  0.00     0.089 C 
ATOM     38  H38 ACR d         -20.265  -5.560  -8.367  0.00  0.00     0.090 H 
ATOM     39  H37 ACR d         -18.086  -7.677  -8.704  0.00  0.00     0.091 H 
BRANCH  30  40
ATOM     40  O3D ACR d         -20.044  -9.442  -9.367  0.00  0.00    -0.390 OA
ATOM     41  H43 ACR d         -19.627  -9.694  -8.552  0.00  0.00     0.210 HD
ENDBRANCH  30  40
BRANCH  31  42
ATOM     42  O2D ACR d         -21.110  -8.022 -11.627  0.00  0.00    -0.388 OA
ATOM     43  H42 ACR d         -20.944  -7.934 -12.558  0.00  0.00     0.210 HD
ENDBRANCH  31  42
BRANCH  33  44
ATOM     44  O1D ACR d         -21.121  -5.333 -11.024  0.00  0.00    -0.369 OA
ATOM     45  H41 ACR d         -21.638  -5.663 -11.750  0.00  0.00     0.212 HD
ENDBRANCH  33  44
BRANCH  37  46
ATOM     46  C6D ACR d         -18.302  -5.026  -7.717  0.00  0.00     0.043 C 
ATOM     47  H39 ACR d         -17.820  -4.221  -8.292  0.00  0.00     0.078 H 
ATOM     48  H40 ACR d         -17.531  -5.692  -7.301  0.00  0.00     0.078 H 
BRANCH  46  49
ATOM     49  O6D ACR d         -19.075  -4.455  -6.645  0.00  0.00    -0.398 OA
ATOM     50  H44 ACR d         -19.948  -4.252  -6.958  0.00  0.00     0.209 HD
ENDBRANCH  46  49
ENDBRANCH  37  46
ENDBRANCH  28  29
ENDBRANCH  17  28
BRANCH  21  51
ATOM     51  C6C ACR d         -18.848  -5.809  -3.547  0.00  0.00     0.043 C 
ATOM     52  H29 ACR d         -17.935  -5.357  -3.959  0.00  0.00     0.078 H 
ATOM     53  H30 ACR d         -18.641  -6.204  -2.541  0.00  0.00     0.078 H 
BRANCH  51  54
ATOM     54  O6C ACR d         -19.879  -4.813  -3.466  0.00  0.00    -0.398 OA
ATOM     55  H33 ACR d         -20.524  -5.078  -2.821  0.00  0.00     0.209 HD
ENDBRANCH  51  54
ENDBRANCH  21  51
ENDBRANCH  12  13
ENDBRANCH   1  12
BRANCH   2  56
ATOM     56  O2B ACR d         -22.652  -6.028  -4.264  0.00  0.00    -0.388 OA
ATOM     57  H22 ACR d         -22.031  -5.611  -3.679  0.00  0.00     0.210 HD
ENDBRANCH   2  56
BRANCH   3  58
ATOM     58  O3B ACR d         -24.591  -5.672  -2.198  0.00  0.00    -0.391 OA
ATOM     59  H23 ACR d         -25.321  -5.918  -2.754  0.00  0.00     0.210 HD
ENDBRANCH   3  58
BRANCH   5  60
ATOM     60  C6B ACR d         -23.790 -10.350  -0.842  0.00  0.00    -0.050 C 
ATOM     61  H17 ACR d         -24.809 -10.519  -1.220  0.00  0.00     0.031 H 
ATOM     62  H18 ACR d         -23.815 -10.259   0.253  0.00  0.00     0.031 H 
ATOM     63  H19 ACR d         -23.149 -11.198  -1.126  0.00  0.00     0.031 H 
ENDBRANCH   5  60
BRANCH   4  64
ATOM     64  N4B ACR d         -24.808  -7.539  -0.118  0.00  0.00    -0.056 N 
ATOM     65  H20 ACR d         -25.322  -6.680  -0.243  0.00  0.00     0.278 HD
ATOM     66  H21 ACR d         -25.441  -8.271   0.163  0.00  0.00     0.278 HD
BRANCH  64  67
ATOM     67  C1A ACR d         -23.857  -7.324   1.006  0.00  0.00     0.146 C 
ATOM     68  C2A ACR d         -24.390  -6.459   2.167  0.00  0.00     0.093 C 
ATOM     69  C3A ACR d         -24.492  -5.000   1.720  0.00  0.00     0.091 C 
ATOM     70  H2  ACR d         -23.695  -6.532   3.016  0.00  0.00     0.090 H 
ATOM     71  C4A ACR d         -23.090  -4.466   1.499  0.00  0.00     0.086 C 
ATOM     72  H3  ACR d         -25.010  -4.998   0.749  0.00  0.00     0.091 H 
ATOM     73  C5A ACR d         -22.254  -5.429   0.682  0.00  0.00    -0.027 C 
ATOM     74  H4  ACR d         -22.607  -4.319   2.476  0.00  0.00     0.094 H 
ATOM     75  C7A ACR d         -22.521  -6.738   0.560  0.00  0.00    -0.064 C 
ATOM     76  H7  ACR d         -21.767  -7.398   0.134  0.00  0.00     0.080 H 
ATOM     77  H1  ACR d         -23.654  -8.323   1.421  0.00  0.00     0.095 H 
BRANCH  68  78
ATOM     78  O2A ACR d         -25.675  -6.905   2.578  0.00  0.00    -0.390 OA
ATOM     79  H8  ACR d         -26.316  -6.226   2.402  0.00  0.00     0.210 HD
ENDBRANCH  68  78
BRANCH  69  80
ATOM     80  O3A ACR d         -25.265  -4.113   2.604  0.00  0.00    -0.390 OA
ATOM     81  H9  ACR d         -24.710  -3.816   3.316  0.00  0.00     0.210 HD
ENDBRANCH  69  80
BRANCH  71  82
ATOM     82  O4A ACR d         -23.173  -3.212   0.823  0.00  0.00    -0.388 OA
ATOM     83  H10 ACR d         -22.330  -3.004   0.438  0.00  0.00     0.210 HD
ENDBRANCH  71  82
BRANCH  73  84
ATOM     84  C6A ACR d         -21.045  -4.841   0.023  0.00  0.00     0.039 C 
ATOM     85  H5  ACR d         -20.271  -5.605  -0.137  0.00  0.00     0.081 H 
ATOM     86  H6  ACR d         -20.630  -4.017   0.620  0.00  0.00     0.081 H 
BRANCH  84  87
ATOM     87  O6A ACR d         -21.566  -4.361  -1.231  0.00  0.00    -0.397 OA
ATOM     88  H11 ACR d         -20.869  -3.944  -1.724  0.00  0.00     0.209 HD
ENDBRANCH  84  87
ENDBRANCH  73  84
ENDBRANCH  64  67
ENDBRANCH   4  64
TORSDOF 23
ENDMDL
MODEL 7
REMARK VINA RESULT:      -4.3      2.618      9.976
REMARK  23 active torsions:
REMARK  status: ('A' for Active; 'I' for Inactive)
REMARK    1  A    between atoms: N4B_18  and  C1A_1 
REMARK    2  A    between atoms: C2A_2  and  O2A_8 
REMARK    3  A    between atoms: C3A_3  and  O3A_9 
REMARK    4  A    between atoms: C4A_4  and  O4A_10 
REMARK    5  A    between atoms: C5A_5  and  C6A_6 
REMARK    6  A    between atoms: C6A_6  and  O6A_11 
REMARK    7  A    between atoms: O4C_30  and  C1B_12 
REMARK    8  A    between atoms: C2B_13  and  O2B_19 
REMARK    9  A    between atoms: C3B_14  and  O3B_20 
REMARK   10  A    between atoms: C4B_15  and  N4B_18 
REMARK   11  A    between atoms: C5B_16  and  C6B_17 
REMARK   12  A    between atoms: O4D_42  and  C1C_22 
REMARK   13  A    between atoms: C2C_23  and  O2C_28 
REMARK   14  A    between atoms: C3C_24  and  O3C_29 
REMARK   15  A    between atoms: C4C_25  and  O4C_30 
REMARK   16  A    between atoms: C5C_26  and  C6C_27 
REMARK   17  A    between atoms: C6C_27  and  O6C_32 
REMARK   18  A    between atoms: C1D_33  and  O1D_39 
REMARK   19  A    between atoms: C2D_34  and  O2D_40 
REMARK   20  A    between atoms: C3D_35  and  O3D_41 
REMARK   21  A    between atoms: C4D_36  and  O4D_42 
REMARK   22  A    between atoms: C5D_37  and  C6D_38 
REMARK   23  A    between atoms: C6D_38  and  O6D_44 
ROOT
ATOM      1  C1B ACR d         -21.260  -6.975  -3.687  0.00  0.00     0.159 C 
ATOM      2  C2B ACR d         -21.302  -5.459  -3.503  0.00  0.00     0.110 C 
ATOM      3  C3B ACR d         -21.114  -5.097  -2.021  0.00  0.00     0.094 C 
ATOM      4  C4B ACR d         -22.223  -5.734  -1.183  0.00  0.00     0.154 C 
ATOM      5  C5B ACR d         -22.168  -7.260  -1.411  0.00  0.00     0.068 C 
ATOM      6  O5B ACR d         -22.252  -7.549  -2.830  0.00  0.00    -0.351 OA
ATOM      7  H12 ACR d         -21.486  -7.230  -4.733  0.00  0.00     0.133 H 
ATOM      8  H13 ACR d         -22.270  -5.072  -3.854  0.00  0.00     0.094 H 
ATOM      9  H14 ACR d         -20.136  -5.468  -1.680  0.00  0.00     0.090 H 
ATOM     10  H15 ACR d         -23.184  -5.389  -1.591  0.00  0.00     0.092 H 
ATOM     11  H16 ACR d         -21.212  -7.637  -1.017  0.00  0.00     0.086 H 
ENDROOT
BRANCH   1  12
ATOM     12  O4C ACR d         -19.948  -7.468  -3.350  0.00  0.00    -0.348 OA
BRANCH  12  13
ATOM     13  C4C ACR d         -19.326  -8.328  -4.305  0.00  0.00     0.096 C 
ATOM     14  C3C ACR d         -20.420  -9.120  -5.020  0.00  0.00     0.092 C 
ATOM     15  C2C ACR d         -19.914  -9.890  -6.243  0.00  0.00     0.110 C 
ATOM     16  H26 ACR d         -21.171  -8.399  -5.376  0.00  0.00     0.091 H 
ATOM     17  C1C ACR d         -19.066  -9.017  -7.163  0.00  0.00     0.159 C 
ATOM     18  H25 ACR d         -19.331 -10.766  -5.922  0.00  0.00     0.094 H 
ATOM     19  O5C ACR d         -18.049  -8.367  -6.381  0.00  0.00    -0.348 OA
ATOM     20  H24 ACR d         -18.594  -9.643  -7.936  0.00  0.00     0.133 H 
ATOM     21  C5C ACR d         -18.514  -7.512  -5.317  0.00  0.00     0.089 C 
ATOM     22  H28 ACR d         -19.175  -6.741  -5.742  0.00  0.00     0.090 H 
ATOM     23  H27 ACR d         -18.651  -9.023  -3.784  0.00  0.00     0.091 H 
BRANCH  14  24
ATOM     24  O3C ACR d         -21.060 -10.004  -4.090  0.00  0.00    -0.390 OA
ATOM     25  H32 ACR d         -21.937 -10.202  -4.396  0.00  0.00     0.210 HD
ENDBRANCH  14  24
BRANCH  15  26
ATOM     26  O2C ACR d         -21.069 -10.289  -6.972  0.00  0.00    -0.388 OA
ATOM     27  H31 ACR d         -21.345 -11.150  -6.678  0.00  0.00     0.210 HD
ENDBRANCH  15  26
BRANCH  17  28
ATOM     28  O4D ACR d         -19.899  -8.033  -7.788  0.00  0.00    -0.348 OA
BRANCH  28  29
ATOM     29  C4D ACR d         -19.461  -7.473  -9.034  0.00  0.00     0.096 C 
ATOM     30  C3D ACR d         -20.517  -7.935 -10.043  0.00  0.00     0.092 C 
ATOM     31  C2D ACR d         -20.329  -7.335 -11.442  0.00  0.00     0.110 C 
ATOM     32  H36 ACR d         -21.492  -7.587  -9.672  0.00  0.00     0.091 H 
ATOM     33  C1D ACR d         -20.061  -5.807 -11.425  0.00  0.00     0.156 C 
ATOM     34  H35 ACR d         -19.456  -7.816 -11.908  0.00  0.00     0.094 H 
ATOM     35  O5D ACR d         -19.180  -5.391 -10.360  0.00  0.00    -0.349 OA
ATOM     36  H34 ACR d         -19.565  -5.559 -12.375  0.00  0.00     0.133 H 
ATOM     37  C5D ACR d         -19.447  -5.926  -9.042  0.00  0.00     0.089 C 
ATOM     38  H38 ACR d         -20.455  -5.600  -8.745  0.00  0.00     0.090 H 
ATOM     39  H37 ACR d         -18.462  -7.853  -9.293  0.00  0.00     0.091 H 
BRANCH  30  40
ATOM     40  O3D ACR d         -20.562  -9.375 -10.106  0.00  0.00    -0.390 OA
ATOM     41  H43 ACR d         -19.680  -9.721 -10.041  0.00  0.00     0.210 HD
ENDBRANCH  30  40
BRANCH  31  42
ATOM     42  O2D ACR d         -21.500  -7.664 -12.216  0.00  0.00    -0.388 OA
ATOM     43  H42 ACR d         -21.955  -6.865 -12.455  0.00  0.00     0.210 HD
ENDBRANCH  31  42
BRANCH  33  44
ATOM     44  O1D ACR d         -21.284  -5.052 -11.363  0.00  0.00    -0.369 OA
ATOM     45  H41 ACR d         -21.122  -4.223 -10.930  0.00  0.00     0.212 HD
ENDBRANCH  33  44
BRANCH  37  46
ATOM     46  C6D ACR d         -18.455  -5.297  -8.060  0.00  0.00     0.043 C 
ATOM     47  H39 ACR d         -17.743  -4.664  -8.610  0.00  0.00     0.078 H 
ATOM     48  H40 ACR d         -17.907  -6.091  -7.530  0.00  0.00     0.078 H 
BRANCH  46  49
ATOM     49  O6D ACR d         -19.178  -4.494  -7.108  0.00  0.00    -0.398 OA
ATOM     50  H44 ACR d         -18.914  -4.735  -6.228  0.00  0.00     0.209 HD
ENDBRANCH  46  49
ENDBRANCH  37  46
ENDBRANCH  28  29
ENDBRANCH  17  28
BRANCH  21  51
ATOM     51  C6C ACR d         -17.311  -6.818  -4.687  0.00  0.00     0.043 C 
ATOM     52  H29 ACR d         -16.707  -6.346  -5.474  0.00  0.00     0.078 H 
ATOM     53  H30 ACR d         -16.700  -7.560  -4.150  0.00  0.00     0.078 H 
BRANCH  51  54
ATOM     54  O6C ACR d         -17.762  -5.814  -3.765  0.00  0.00    -0.398 OA
ATOM     55  H33 ACR d         -17.420  -6.005  -2.899  0.00  0.00     0.209 HD
ENDBRANCH  51  54
ENDBRANCH  21  51
ENDBRANCH  12  13
ENDBRANCH   1  12
BRANCH   2  56
ATOM     56  O2B ACR d         -20.245  -4.878  -4.264  0.00  0.00    -0.388 OA
ATOM     57  H22 ACR d         -19.985  -4.055  -3.867  0.00  0.00     0.210 HD
ENDBRANCH   2  56
BRANCH   3  58
ATOM     58  O3B ACR d         -21.175  -3.686  -1.840  0.00  0.00    -0.391 OA
ATOM     59  H23 ACR d         -21.412  -3.273  -2.662  0.00  0.00     0.210 HD
ENDBRANCH   3  58
BRANCH   5  60
ATOM     60  C6B ACR d         -23.311  -7.992  -0.715  0.00  0.00    -0.050 C 
ATOM     61  H17 ACR d         -23.363  -9.026  -1.086  0.00  0.00     0.031 H 
ATOM     62  H18 ACR d         -24.259  -7.476  -0.927  0.00  0.00     0.031 H 
ATOM     63  H19 ACR d         -23.133  -8.001   0.371  0.00  0.00     0.031 H 
ENDBRANCH   5  60
BRANCH   4  64
ATOM     64  N4B ACR d         -22.197  -5.282   0.225  0.00  0.00    -0.056 N 
ATOM     65  H20 ACR d         -22.049  -4.285   0.216  0.00  0.00     0.278 HD
ATOM     66  H21 ACR d         -23.102  -5.484   0.620  0.00  0.00     0.278 HD
BRANCH  64  67
ATOM     67  C1A ACR d         -21.178  -5.869   1.137  0.00  0.00     0.146 C 
ATOM     68  C2A ACR d         -20.906  -5.070   2.428  0.00  0.00     0.093 C 
ATOM     69  C3A ACR d         -20.146  -3.787   2.091  0.00  0.00     0.091 C 
ATOM     70  H2  ACR d         -20.299  -5.685   3.109  0.00  0.00     0.090 H 
ATOM     71  C4A ACR d         -18.757  -4.163   1.613  0.00  0.00     0.086 C 
ATOM     72  H3  ACR d         -20.675  -3.312   1.251  0.00  0.00     0.091 H 
ATOM     73  C5A ACR d         -18.808  -5.277   0.589  0.00  0.00    -0.027 C 
ATOM     74  H4  ACR d         -18.163  -4.501   2.474  0.00  0.00     0.094 H 
ATOM     75  C7A ACR d         -19.838  -6.127   0.455  0.00  0.00    -0.064 C 
ATOM     76  H7  ACR d         -19.714  -7.021  -0.155  0.00  0.00     0.080 H 
ATOM     77  H1  ACR d         -21.580  -6.846   1.446  0.00  0.00     0.095 H 
BRANCH  68  78
ATOM     78  O2A ACR d         -22.125  -4.727   3.072  0.00  0.00    -0.390 OA
ATOM     79  H8  ACR d         -22.081  -3.827   3.373  0.00  0.00     0.210 HD
ENDBRANCH  68  78
BRANCH  69  80
ATOM     80  O3A ACR d         -20.084  -2.781   3.163  0.00  0.00    -0.390 OA
ATOM     81  H9  ACR d         -20.869  -2.246   3.141  0.00  0.00     0.210 HD
ENDBRANCH  69  80
BRANCH  71  82
ATOM     82  O4A ACR d         -18.139  -3.012   1.037  0.00  0.00    -0.388 OA
ATOM     83  H10 ACR d         -17.194  -3.098   1.097  0.00  0.00     0.210 HD
ENDBRANCH  71  82
BRANCH  73  84
ATOM     84  C6A ACR d         -17.593  -5.421  -0.275  0.00  0.00     0.039 C 
ATOM     85  H5  ACR d         -16.701  -5.638   0.330  0.00  0.00     0.081 H 
ATOM     86  H6  ACR d         -17.421  -4.513  -0.871  0.00  0.00     0.081 H 
BRANCH  84  87
ATOM     87  O6A ACR d         -17.932  -6.539  -1.119  0.00  0.00    -0.397 OA
ATOM     88  H11 ACR d         -18.702  -6.324  -1.633  0.00  0.00     0.209 HD
ENDBRANCH  84  87
ENDBRANCH  73  84
ENDBRANCH  64  67
ENDBRANCH   4  64
TORSDOF 23
ENDMDL
MODEL 8
REMARK VINA RESULT:      -4.1      2.283     10.013
REMARK  23 active torsions:
REMARK  status: ('A' for Active; 'I' for Inactive)
REMARK    1  A    between atoms: N4B_18  and  C1A_1 
REMARK    2  A    between atoms: C2A_2  and  O2A_8 
REMARK    3  A    between atoms: C3A_3  and  O3A_9 
REMARK    4  A    between atoms: C4A_4  and  O4A_10 
REMARK    5  A    between atoms: C5A_5  and  C6A_6 
REMARK    6  A    between atoms: C6A_6  and  O6A_11 
REMARK    7  A    between atoms: O4C_30  and  C1B_12 
REMARK    8  A    between atoms: C2B_13  and  O2B_19 
REMARK    9  A    between atoms: C3B_14  and  O3B_20 
REMARK   10  A    between atoms: C4B_15  and  N4B_18 
REMARK   11  A    between atoms: C5B_16  and  C6B_17 
REMARK   12  A    between atoms: O4D_42  and  C1C_22 
REMARK   13  A    between atoms: C2C_23  and  O2C_28 
REMARK   14  A    between atoms: C3C_24  and  O3C_29 
REMARK   15  A    between atoms: C4C_25  and  O4C_30 
REMARK   16  A    between atoms: C5C_26  and  C6C_27 
REMARK   17  A    between atoms: C6C_27  and  O6C_32 
REMARK   18  A    between atoms: C1D_33  and  O1D_39 
REMARK   19  A    between atoms: C2D_34  and  O2D_40 
REMARK   20  A    between atoms: C3D_35  and  O3D_41 
REMARK   21  A    between atoms: C4D_36  and  O4D_42 
REMARK   22  A    between atoms: C5D_37  and  C6D_38 
REMARK   23  A    between atoms: C6D_38  and  O6D_44 
ROOT
ATOM      1  C1B ACR d         -20.716  -8.306  -1.720  0.00  0.00     0.159 C 
ATOM      2  C2B ACR d         -22.089  -8.947  -1.522  0.00  0.00     0.110 C 
ATOM      3  C3B ACR d         -23.201  -7.943  -1.863  0.00  0.00     0.094 C 
ATOM      4  C4B ACR d         -23.088  -6.713  -0.961  0.00  0.00     0.154 C 
ATOM      5  C5B ACR d         -21.684  -6.105  -1.168  0.00  0.00     0.068 C 
ATOM      6  O5B ACR d         -20.670  -7.114  -0.930  0.00  0.00    -0.351 OA
ATOM      7  H12 ACR d         -19.929  -8.999  -1.389  0.00  0.00     0.133 H 
ATOM      8  H13 ACR d         -22.196  -9.271  -0.476  0.00  0.00     0.094 H 
ATOM      9  H14 ACR d         -23.102  -7.638  -2.915  0.00  0.00     0.090 H 
ATOM     10  H15 ACR d         -23.130  -7.063   0.081  0.00  0.00     0.092 H 
ATOM     11  H16 ACR d         -21.608  -5.749  -2.206  0.00  0.00     0.086 H 
ENDROOT
BRANCH   1  12
ATOM     12  O4C ACR d         -20.523  -8.000  -3.116  0.00  0.00    -0.348 OA
BRANCH  12  13
ATOM     13  C4C ACR d         -19.863  -6.768  -3.412  0.00  0.00     0.096 C 
ATOM     14  C3C ACR d         -18.356  -7.026  -3.430  0.00  0.00     0.092 C 
ATOM     15  C2C ACR d         -17.544  -5.852  -3.985  0.00  0.00     0.110 C 
ATOM     16  H26 ACR d         -18.175  -7.888  -4.089  0.00  0.00     0.091 H 
ATOM     17  C1C ACR d         -18.110  -5.333  -5.303  0.00  0.00     0.159 C 
ATOM     18  H25 ACR d         -17.512  -5.035  -3.249  0.00  0.00     0.094 H 
ATOM     19  O5C ACR d         -19.517  -5.086  -5.142  0.00  0.00    -0.348 OA
ATOM     20  H24 ACR d         -17.600  -4.399  -5.583  0.00  0.00     0.133 H 
ATOM     21  C5C ACR d         -20.324  -6.222  -4.767  0.00  0.00     0.089 C 
ATOM     22  H28 ACR d         -20.192  -7.015  -5.518  0.00  0.00     0.090 H 
ATOM     23  H27 ACR d         -20.099  -6.032  -2.630  0.00  0.00     0.091 H 
BRANCH  14  24
ATOM     24  O3C ACR d         -17.912  -7.374  -2.112  0.00  0.00    -0.390 OA
ATOM     25  H32 ACR d         -18.004  -8.311  -1.986  0.00  0.00     0.210 HD
ENDBRANCH  14  24
BRANCH  15  26
ATOM     26  O2C ACR d         -16.238  -6.354  -4.244  0.00  0.00    -0.388 OA
ATOM     27  H31 ACR d         -16.298  -7.262  -4.519  0.00  0.00     0.210 HD
ENDBRANCH  15  26
BRANCH  17  28
ATOM     28  O4D ACR d         -17.905  -6.314  -6.329  0.00  0.00    -0.348 OA
BRANCH  28  29
ATOM     29  C4D ACR d         -19.020  -6.659  -7.162  0.00  0.00     0.096 C 
ATOM     30  C3D ACR d         -18.801  -5.840  -8.438  0.00  0.00     0.092 C 
ATOM     31  C2D ACR d         -19.813  -6.154  -9.547  0.00  0.00     0.110 C 
ATOM     32  H36 ACR d         -17.806  -6.105  -8.825  0.00  0.00     0.091 H 
ATOM     33  C1D ACR d         -20.028  -7.674  -9.771  0.00  0.00     0.156 C 
ATOM     34  H35 ACR d         -20.784  -5.725  -9.258  0.00  0.00     0.094 H 
ATOM     35  O5D ACR d         -20.074  -8.434  -8.545  0.00  0.00    -0.349 OA
ATOM     36  H34 ACR d         -21.004  -7.789 -10.264  0.00  0.00     0.133 H 
ATOM     37  C5D ACR d         -19.050  -8.154  -7.561  0.00  0.00     0.089 C 
ATOM     38  H38 ACR d         -18.075  -8.377  -8.018  0.00  0.00     0.090 H 
ATOM     39  H37 ACR d         -19.965  -6.390  -6.667  0.00  0.00     0.091 H 
BRANCH  30  40
ATOM     40  O3D ACR d         -18.791  -4.429  -8.139  0.00  0.00    -0.390 OA
ATOM     41  H43 ACR d         -18.223  -4.269  -7.396  0.00  0.00     0.210 HD
ENDBRANCH  30  40
BRANCH  31  42
ATOM     42  O2D ACR d         -19.360  -5.495 -10.747  0.00  0.00    -0.388 OA
ATOM     43  H42 ACR d         -18.424  -5.624 -10.842  0.00  0.00     0.210 HD
ENDBRANCH  31  42
BRANCH  33  44
ATOM     44  O1D ACR d         -19.031  -8.230 -10.647  0.00  0.00    -0.369 OA
ATOM     45  H41 ACR d         -18.778  -7.578 -11.291  0.00  0.00     0.212 HD
ENDBRANCH  33  44
BRANCH  37  46
ATOM     46  C6D ACR d         -19.236  -9.119  -6.387  0.00  0.00     0.043 C 
ATOM     47  H39 ACR d         -18.652  -8.766  -5.524  0.00  0.00     0.078 H 
ATOM     48  H40 ACR d         -18.892 -10.123  -6.677  0.00  0.00     0.078 H 
BRANCH  46  49
ATOM     49  O6D ACR d         -20.631  -9.171  -6.036  0.00  0.00    -0.398 OA
ATOM     50  H44 ACR d         -21.148  -9.315  -6.820  0.00  0.00     0.209 HD
ENDBRANCH  46  49
ENDBRANCH  37  46
ENDBRANCH  28  29
ENDBRANCH  17  28
BRANCH  21  51
ATOM     51  C6C ACR d         -21.790  -5.801  -4.766  0.00  0.00     0.043 C 
ATOM     52  H29 ACR d         -21.936  -4.982  -5.486  0.00  0.00     0.078 H 
ATOM     53  H30 ACR d         -22.071  -5.459  -3.759  0.00  0.00     0.078 H 
BRANCH  51  54
ATOM     54  O6C ACR d         -22.612  -6.916  -5.140  0.00  0.00    -0.398 OA
ATOM     55  H33 ACR d         -22.726  -6.923  -6.082  0.00  0.00     0.209 HD
ENDBRANCH  51  54
ENDBRANCH  21  51
ENDBRANCH  12  13
ENDBRANCH   1  12
BRANCH   2  56
ATOM     56  O2B ACR d         -22.195 -10.074  -2.389  0.00  0.00    -0.388 OA
ATOM     57  H22 ACR d         -21.788  -9.871  -3.224  0.00  0.00     0.210 HD
ENDBRANCH   2  56
BRANCH   3  58
ATOM     58  O3B ACR d         -24.482  -8.528  -1.658  0.00  0.00    -0.391 OA
ATOM     59  H23 ACR d         -25.003  -8.432  -2.446  0.00  0.00     0.210 HD
ENDBRANCH   3  58
BRANCH   5  60
ATOM     60  C6B ACR d         -21.414  -4.937  -0.226  0.00  0.00    -0.050 C 
ATOM     61  H17 ACR d         -20.418  -4.519  -0.437  0.00  0.00     0.031 H 
ATOM     62  H18 ACR d         -21.452  -5.289   0.815  0.00  0.00     0.031 H 
ATOM     63  H19 ACR d         -22.176  -4.159  -0.378  0.00  0.00     0.031 H 
ENDBRANCH   5  60
BRANCH   4  64
ATOM     64  N4B ACR d         -24.231  -5.788  -1.122  0.00  0.00    -0.056 N 
ATOM     65  H20 ACR d         -23.851  -4.861  -1.234  0.00  0.00     0.278 HD
ATOM     66  H21 ACR d         -24.716  -6.057  -1.964  0.00  0.00     0.278 HD
BRANCH  64  67
ATOM     67  C1A ACR d         -25.243  -5.721  -0.034  0.00  0.00     0.146 C 
ATOM     68  C2A ACR d         -24.859  -4.840   1.173  0.00  0.00     0.093 C 
ATOM     69  C3A ACR d         -23.754  -5.521   1.980  0.00  0.00     0.091 C 
ATOM     70  H2  ACR d         -25.745  -4.702   1.812  0.00  0.00     0.090 H 
ATOM     71  C4A ACR d         -24.329  -6.767   2.626  0.00  0.00     0.086 C 
ATOM     72  H3  ACR d         -22.983  -5.839   1.263  0.00  0.00     0.091 H 
ATOM     73  C5A ACR d         -25.125  -7.587   1.632  0.00  0.00    -0.027 C 
ATOM     74  H4  ACR d         -24.993  -6.468   3.450  0.00  0.00     0.094 H 
ATOM     75  C7A ACR d         -25.647  -7.093   0.498  0.00  0.00    -0.064 C 
ATOM     76  H7  ACR d         -26.376  -7.684  -0.055  0.00  0.00     0.080 H 
ATOM     77  H1  ACR d         -26.139  -5.269  -0.485  0.00  0.00     0.095 H 
BRANCH  68  78
ATOM     78  O2A ACR d         -24.395  -3.568   0.740  0.00  0.00    -0.390 OA
ATOM     79  H8  ACR d         -24.687  -3.412  -0.151  0.00  0.00     0.210 HD
ENDBRANCH  68  78
BRANCH  69  80
ATOM     80  O3A ACR d         -23.074  -4.675   2.974  0.00  0.00    -0.390 OA
ATOM     81  H9  ACR d         -22.663  -3.940   2.534  0.00  0.00     0.210 HD
ENDBRANCH  69  80
BRANCH  71  82
ATOM     82  O4A ACR d         -23.259  -7.555   3.146  0.00  0.00    -0.388 OA
ATOM     83  H10 ACR d         -22.511  -7.497   2.563  0.00  0.00     0.210 HD
ENDBRANCH  71  82
BRANCH  73  84
ATOM     84  C6A ACR d         -25.349  -9.020   2.004  0.00  0.00     0.039 C 
ATOM     85  H5  ACR d         -26.371  -9.339   1.753  0.00  0.00     0.081 H 
ATOM     86  H6  ACR d         -25.167  -9.184   3.075  0.00  0.00     0.081 H 
BRANCH  84  87
ATOM     87  O6A ACR d         -24.378  -9.715   1.199  0.00  0.00    -0.397 OA
ATOM     88  H11 ACR d         -24.749 -10.534   0.893  0.00  0.00     0.209 HD
ENDBRANCH  84  87
ENDBRANCH  73  84
ENDBRANCH  64  67
ENDBRANCH   4  64
TORSDOF 23
ENDMDL
