MODEL 1
REMARK VINA RESULT:      -7.7      0.000      0.000
REMARK  6 active torsions:
REMARK  status: ('A' for Active; 'I' for Inactive)
REMARK    1  A    between atoms: CAX_6  and  CAW_7 
REMARK       I    between atoms: CAW_7  and  NAR_9 
REMARK    2  A    between atoms: CAO_16  and  CAN_18 
REMARK    3  A    between atoms: CAN_18  and  CAL_19 
REMARK    4  A    between atoms: CAL_19  and  NAM_20 
REMARK    5  A    between atoms: CAL_19  and  CAK_21 
REMARK    6  A    between atoms: CAK_21  and  CAG_22 
ROOT
ATOM      1  CAW KR2 d          -3.488   4.544  -8.528  0.00  0.00     0.250 C 
ATOM      2  OAA KR2 d          -4.736   3.864  -8.708  0.00  0.00    -0.199 OA
ATOM      3  NAR KR2 d          -2.536   3.735  -7.748  0.00  0.00    -0.181 NA
ATOM      4  CAV KR2 d          -1.435   3.301  -8.623  0.00  0.00     0.001 C 
ATOM      5  CDD KR2 d          -1.058   1.824  -8.490  0.00  0.00    -0.052 C 
ATOM      6  CNN KR2 d          -2.092   0.880  -9.106  0.00  0.00    -0.062 C 
ATOM      7  CAT KR2 d          -3.242   0.541  -8.151  0.00  0.00    -0.049 C 
ATOM      8  CAS KR2 d          -4.084   1.760  -7.758  0.00  0.00     0.013 C 
ATOM      9  NAQ KR2 d          -3.235   2.766  -7.097  0.00  0.00    -0.288 N 
ATOM     10  CAO KR2 d          -2.881   2.615  -5.825  0.00  0.00     0.170 C 
ATOM     11  OAP KR2 d          -1.783   3.198  -5.281  0.00  0.00    -0.176 OA
ATOM     12  H6  KR2 d          -0.547   3.905  -8.382  0.00  0.00     0.058 H 
ATOM     13  H7  KR2 d          -1.732   3.486  -9.665  0.00  0.00     0.058 H 
ATOM     14  H8  KR2 d          -0.957   1.584  -7.421  0.00  0.00     0.034 H 
ATOM     15  H9  KR2 d          -0.094   1.663  -8.994  0.00  0.00     0.034 H 
ATOM     16  H10 KR2 d          -1.587  -0.055  -9.391  0.00  0.00     0.033 H 
ATOM     17  H11 KR2 d          -2.512   1.358 -10.003  0.00  0.00     0.033 H 
ATOM     18  H12 KR2 d          -2.818   0.100  -7.237  0.00  0.00     0.035 H 
ATOM     19  H13 KR2 d          -3.898  -0.193  -8.641  0.00  0.00     0.035 H 
ATOM     20  H14 KR2 d          -4.881   1.445  -7.069  0.00  0.00     0.066 H 
ATOM     21  H15 KR2 d          -4.533   2.199  -8.661  0.00  0.00     0.066 H 
ENDROOT
BRANCH  10  22
ATOM     22  CAN KR2 d          -3.688   1.673  -4.936  0.00  0.00     0.025 C 
ATOM     23  H16 KR2 d          -3.188   0.694  -4.898  0.00  0.00     0.048 H 
ATOM     24  H17 KR2 d          -4.698   1.553  -5.356  0.00  0.00     0.048 H 
BRANCH  22  25
ATOM     25  CAL KR2 d          -3.793   2.239  -3.520  0.00  0.00     0.111 C 
ATOM     26  H18 KR2 d          -2.906   1.939  -2.943  0.00  0.00     0.085 H 
BRANCH  25  27
ATOM     27  NAM KR2 d          -5.037   1.699  -2.954  0.00  0.00    -0.074 N 
ATOM     28  H19 KR2 d          -5.821   2.021  -3.498  0.00  0.00     0.274 HD
ATOM     29  H20 KR2 d          -5.137   2.013  -2.002  0.00  0.00     0.274 HD
ATOM     30  H21 KR2 d          -5.004   0.691  -2.973  0.00  0.00     0.274 HD
ENDBRANCH  25  27
BRANCH  25  31
ATOM     31  CAK KR2 d          -4.018   3.745  -3.391  0.00  0.00    -0.011 C 
ATOM     32  H22 KR2 d          -5.027   3.946  -3.781  0.00  0.00     0.043 H 
ATOM     33  H23 KR2 d          -3.271   4.229  -4.039  0.00  0.00     0.043 H 
BRANCH  31  34
ATOM     34  CAG KR2 d          -3.939   4.380  -2.156  0.00  0.00    -0.015 A 
ATOM     35  CAH KR2 d          -3.028   3.951  -1.202  0.00  0.00    -0.034 A 
ATOM     36  CAC KR2 d          -3.074   4.405   0.114  0.00  0.00     0.155 A 
ATOM     37  H24 KR2 d          -2.259   3.243  -1.488  0.00  0.00     0.089 H 
ATOM     38  FAB KR2 d          -2.067   4.077   0.944  0.00  0.00    -0.203 F 
ATOM     39  CAD KR2 d          -4.079   5.293   0.486  0.00  0.00     0.157 A 
ATOM     40  FAI KR2 d          -4.407   5.485   1.779  0.00  0.00    -0.203 F 
ATOM     41  CAE KR2 d          -4.936   5.790  -0.486  0.00  0.00    -0.005 A 
ATOM     42  CAF KR2 d          -4.868   5.356  -1.805  0.00  0.00     0.125 A 
ATOM     43  H25 KR2 d          -5.676   6.533  -0.210  0.00  0.00     0.093 H 
ATOM     44  FAJ KR2 d          -5.775   5.833  -2.674  0.00  0.00    -0.205 F 
ENDBRANCH  31  34
ENDBRANCH  25  31
ENDBRANCH  22  25
ENDBRANCH  10  22
BRANCH   1  45
ATOM     45  CAX KR2 d          -3.725   5.767  -7.635  0.00  0.00     0.001 A 
ATOM     46  CAY KR2 d          -2.938   6.905  -7.796  0.00  0.00    -0.072 A 
ATOM     47  CBC KR2 d          -2.965   7.915  -6.837  0.00  0.00    -0.082 A 
ATOM     48  H1  KR2 d          -2.303   7.005  -8.669  0.00  0.00     0.084 H 
ATOM     49  CBB KR2 d          -3.783   7.788  -5.716  0.00  0.00    -0.083 A 
ATOM     50  H2  KR2 d          -2.351   8.798  -6.963  0.00  0.00     0.083 H 
ATOM     51  CBA KR2 d          -4.580   6.656  -5.562  0.00  0.00    -0.082 A 
ATOM     52  H3  KR2 d          -3.799   8.570  -4.965  0.00  0.00     0.083 H 
ATOM     53  CAZ KR2 d          -4.555   5.649  -6.523  0.00  0.00    -0.072 A 
ATOM     54  H4  KR2 d          -5.220   6.559  -4.692  0.00  0.00     0.083 H 
ATOM     55  H5  KR2 d          -5.183   4.773  -6.406  0.00  0.00     0.084 H 
ENDBRANCH   1  45
TORSDOF 6
ENDMDL
MODEL 2
REMARK VINA RESULT:      -7.2      3.925      7.243
REMARK  6 active torsions:
REMARK  status: ('A' for Active; 'I' for Inactive)
REMARK    1  A    between atoms: CAX_6  and  CAW_7 
REMARK       I    between atoms: CAW_7  and  NAR_9 
REMARK    2  A    between atoms: CAO_16  and  CAN_18 
REMARK    3  A    between atoms: CAN_18  and  CAL_19 
REMARK    4  A    between atoms: CAL_19  and  NAM_20 
REMARK    5  A    between atoms: CAL_19  and  CAK_21 
REMARK    6  A    between atoms: CAK_21  and  CAG_22 
ROOT
ATOM      1  CAW KR2 d          -3.504   3.458  -1.323  0.00  0.00     0.250 C 
ATOM      2  OAA KR2 d          -2.230   3.864  -1.836  0.00  0.00    -0.199 OA
ATOM      3  NAR KR2 d          -4.522   3.390  -2.385  0.00  0.00    -0.181 NA
ATOM      4  CAV KR2 d          -4.891   1.983  -2.616  0.00  0.00     0.001 C 
ATOM      5  CDD KR2 d          -4.954   1.573  -4.089  0.00  0.00    -0.052 C 
ATOM      6  CNN KR2 d          -3.575   1.455  -4.742  0.00  0.00    -0.062 C 
ATOM      7  CAT KR2 d          -3.041   2.791  -5.268  0.00  0.00    -0.049 C 
ATOM      8  CAS KR2 d          -2.808   3.829  -4.164  0.00  0.00     0.013 C 
ATOM      9  NAQ KR2 d          -4.070   4.100  -3.454  0.00  0.00    -0.288 N 
ATOM     10  CAO KR2 d          -4.986   4.896  -3.992  0.00  0.00     0.170 C 
ATOM     11  OAP KR2 d          -6.304   4.846  -3.668  0.00  0.00    -0.176 OA
ATOM     12  H6  KR2 d          -5.881   1.810  -2.169  0.00  0.00     0.058 H 
ATOM     13  H7  KR2 d          -4.147   1.347  -2.115  0.00  0.00     0.058 H 
ATOM     14  H8  KR2 d          -5.537   2.329  -4.637  0.00  0.00     0.034 H 
ATOM     15  H9  KR2 d          -5.459   0.599  -4.159  0.00  0.00     0.034 H 
ATOM     16  H10 KR2 d          -3.646   0.750  -5.584  0.00  0.00     0.033 H 
ATOM     17  H11 KR2 d          -2.867   1.065  -3.995  0.00  0.00     0.033 H 
ATOM     18  H12 KR2 d          -3.770   3.201  -5.984  0.00  0.00     0.035 H 
ATOM     19  H13 KR2 d          -2.086   2.608  -5.782  0.00  0.00     0.035 H 
ATOM     20  H14 KR2 d          -2.435   4.761  -4.613  0.00  0.00     0.066 H 
ATOM     21  H15 KR2 d          -2.064   3.442  -3.452  0.00  0.00     0.066 H 
ENDROOT
BRANCH  10  22
ATOM     22  CAN KR2 d          -4.574   5.864  -5.098  0.00  0.00     0.025 C 
ATOM     23  H16 KR2 d          -3.490   5.783  -5.264  0.00  0.00     0.048 H 
ATOM     24  H17 KR2 d          -4.823   6.892  -4.792  0.00  0.00     0.048 H 
BRANCH  22  25
ATOM     25  CAL KR2 d          -5.309   5.532  -6.395  0.00  0.00     0.111 C 
ATOM     26  H18 KR2 d          -5.837   6.429  -6.752  0.00  0.00     0.085 H 
BRANCH  25  27
ATOM     27  NAM KR2 d          -6.230   4.433  -6.075  0.00  0.00    -0.074 N 
ATOM     28  H19 KR2 d          -7.132   4.811  -5.832  0.00  0.00     0.274 HD
ATOM     29  H20 KR2 d          -5.866   3.905  -5.298  0.00  0.00     0.274 HD
ATOM     30  H21 KR2 d          -6.324   3.829  -6.877  0.00  0.00     0.274 HD
ENDBRANCH  25  27
BRANCH  25  31
ATOM     31  CAK KR2 d          -4.480   4.927  -7.527  0.00  0.00    -0.011 C 
ATOM     32  H22 KR2 d          -5.139   4.225  -8.058  0.00  0.00     0.043 H 
ATOM     33  H23 KR2 d          -3.659   4.371  -7.050  0.00  0.00     0.043 H 
BRANCH  31  34
ATOM     34  CAG KR2 d          -3.897   5.733  -8.500  0.00  0.00    -0.015 A 
ATOM     35  CAH KR2 d          -2.745   6.452  -8.220  0.00  0.00    -0.034 A 
ATOM     36  CAC KR2 d          -2.265   7.436  -9.081  0.00  0.00     0.155 A 
ATOM     37  H24 KR2 d          -2.203   6.243  -7.306  0.00  0.00     0.089 H 
ATOM     38  FAB KR2 d          -1.060   7.979  -8.832  0.00  0.00    -0.203 F 
ATOM     39  CAD KR2 d          -2.978   7.722 -10.242  0.00  0.00     0.157 A 
ATOM     40  FAI KR2 d          -2.793   8.873 -10.918  0.00  0.00    -0.203 F 
ATOM     41  CAE KR2 d          -4.081   6.944 -10.567  0.00  0.00    -0.005 A 
ATOM     42  CAF KR2 d          -4.540   5.943  -9.718  0.00  0.00     0.125 A 
ATOM     43  H25 KR2 d          -4.597   7.121 -11.504  0.00  0.00     0.093 H 
ATOM     44  FAJ KR2 d          -5.653   5.278 -10.069  0.00  0.00    -0.205 F 
ENDBRANCH  31  34
ENDBRANCH  25  31
ENDBRANCH  22  25
ENDBRANCH  10  22
BRANCH   1  45
ATOM     45  CAX KR2 d          -4.032   4.563  -0.400  0.00  0.00     0.001 A 
ATOM     46  CAY KR2 d          -3.403   4.808   0.818  0.00  0.00    -0.072 A 
ATOM     47  CBC KR2 d          -4.015   5.620   1.770  0.00  0.00    -0.082 A 
ATOM     48  H1  KR2 d          -2.435   4.366   1.026  0.00  0.00     0.084 H 
ATOM     49  CBB KR2 d          -5.259   6.190   1.502  0.00  0.00    -0.083 A 
ATOM     50  H2  KR2 d          -3.525   5.808   2.718  0.00  0.00     0.083 H 
ATOM     51  CBA KR2 d          -5.882   5.955   0.279  0.00  0.00    -0.082 A 
ATOM     52  H3  KR2 d          -5.740   6.814   2.246  0.00  0.00     0.083 H 
ATOM     53  CAZ KR2 d          -5.266   5.146  -0.673  0.00  0.00    -0.072 A 
ATOM     54  H4  KR2 d          -6.847   6.402   0.068  0.00  0.00     0.083 H 
ATOM     55  H5  KR2 d          -5.749   4.972  -1.629  0.00  0.00     0.084 H 
ENDBRANCH   1  45
TORSDOF 6
ENDMDL
MODEL 3
REMARK VINA RESULT:      -7.2      1.705      4.260
REMARK  6 active torsions:
REMARK  status: ('A' for Active; 'I' for Inactive)
REMARK    1  A    between atoms: CAX_6  and  CAW_7 
REMARK       I    between atoms: CAW_7  and  NAR_9 
REMARK    2  A    between atoms: CAO_16  and  CAN_18 
REMARK    3  A    between atoms: CAN_18  and  CAL_19 
REMARK    4  A    between atoms: CAL_19  and  NAM_20 
REMARK    5  A    between atoms: CAL_19  and  CAK_21 
REMARK    6  A    between atoms: CAK_21  and  CAG_22 
ROOT
ATOM      1  CAW KR2 d          -2.115   3.859  -8.765  0.00  0.00     0.250 C 
ATOM      2  OAA KR2 d          -1.208   4.588  -7.930  0.00  0.00    -0.199 OA
ATOM      3  NAR KR2 d          -3.422   4.530  -8.865  0.00  0.00    -0.181 NA
ATOM      4  CAV KR2 d          -3.599   5.050 -10.231  0.00  0.00     0.001 C 
ATOM      5  CDD KR2 d          -4.124   6.486 -10.304  0.00  0.00    -0.052 C 
ATOM      6  CNN KR2 d          -3.080   7.531  -9.902  0.00  0.00    -0.062 C 
ATOM      7  CAT KR2 d          -3.017   7.767  -8.389  0.00  0.00    -0.049 C 
ATOM      8  CAS KR2 d          -2.581   6.528  -7.599  0.00  0.00     0.013 C 
ATOM      9  NAQ KR2 d          -3.522   5.421  -7.840  0.00  0.00    -0.288 N 
ATOM     10  CAO KR2 d          -4.695   5.389  -7.218  0.00  0.00     0.170 C 
ATOM     11  OAP KR2 d          -5.773   4.711  -7.689  0.00  0.00    -0.176 OA
ATOM     12  H6  KR2 d          -4.311   4.398 -10.757  0.00  0.00     0.058 H 
ATOM     13  H7  KR2 d          -2.625   5.015 -10.740  0.00  0.00     0.058 H 
ATOM     14  H8  KR2 d          -4.988   6.577  -9.629  0.00  0.00     0.034 H 
ATOM     15  H9  KR2 d          -4.442   6.689 -11.337  0.00  0.00     0.034 H 
ATOM     16  H10 KR2 d          -3.331   8.482 -10.394  0.00  0.00     0.033 H 
ATOM     17  H11 KR2 d          -2.092   7.189 -10.245  0.00  0.00     0.033 H 
ATOM     18  H12 KR2 d          -4.015   8.069  -8.041  0.00  0.00     0.035 H 
ATOM     19  H13 KR2 d          -2.299   8.577  -8.192  0.00  0.00     0.035 H 
ATOM     20  H14 KR2 d          -2.565   6.766  -6.526  0.00  0.00     0.066 H 
ATOM     21  H15 KR2 d          -1.573   6.226  -7.922  0.00  0.00     0.066 H 
ENDROOT
BRANCH  10  22
ATOM     22  CAN KR2 d          -4.890   6.223  -5.955  0.00  0.00     0.025 C 
ATOM     23  H16 KR2 d          -5.914   6.623  -5.939  0.00  0.00     0.048 H 
ATOM     24  H17 KR2 d          -4.170   7.056  -5.955  0.00  0.00     0.048 H 
BRANCH  22  25
ATOM     25  CAL KR2 d          -4.666   5.363  -4.711  0.00  0.00     0.111 C 
ATOM     26  H18 KR2 d          -4.231   4.398  -5.012  0.00  0.00     0.085 H 
BRANCH  25  27
ATOM     27  NAM KR2 d          -5.981   5.209  -4.076  0.00  0.00    -0.074 N 
ATOM     28  H19 KR2 d          -6.452   6.100  -4.058  0.00  0.00     0.274 HD
ATOM     29  H20 KR2 d          -5.862   4.872  -3.134  0.00  0.00     0.274 HD
ATOM     30  H21 KR2 d          -6.533   4.549  -4.602  0.00  0.00     0.274 HD
ENDBRANCH  25  27
BRANCH  25  31
ATOM     31  CAK KR2 d          -3.842   5.980  -3.582  0.00  0.00    -0.011 C 
ATOM     32  H22 KR2 d          -4.222   7.002  -3.439  0.00  0.00     0.043 H 
ATOM     33  H23 KR2 d          -2.802   6.022  -3.941  0.00  0.00     0.043 H 
BRANCH  31  34
ATOM     34  CAG KR2 d          -3.801   5.394  -2.320  0.00  0.00    -0.015 A 
ATOM     35  CAH KR2 d          -4.221   6.100  -1.204  0.00  0.00    -0.034 A 
ATOM     36  CAC KR2 d          -3.984   5.639   0.089  0.00  0.00     0.155 A 
ATOM     37  H24 KR2 d          -4.749   7.037  -1.340  0.00  0.00     0.089 H 
ATOM     38  FAB KR2 d          -4.559   6.286   1.119  0.00  0.00    -0.203 F 
ATOM     39  CAD KR2 d          -3.282   4.450   0.263  0.00  0.00     0.157 A 
ATOM     40  FAI KR2 d          -2.707   4.135   1.440  0.00  0.00    -0.203 F 
ATOM     41  CAE KR2 d          -2.938   3.699  -0.852  0.00  0.00    -0.005 A 
ATOM     42  CAF KR2 d          -3.202   4.149  -2.141  0.00  0.00     0.125 A 
ATOM     43  H25 KR2 d          -2.452   2.739  -0.716  0.00  0.00     0.093 H 
ATOM     44  FAJ KR2 d          -2.779   3.398  -3.171  0.00  0.00    -0.205 F 
ENDBRANCH  31  34
ENDBRANCH  25  31
ENDBRANCH  22  25
ENDBRANCH  10  22
BRANCH   1  45
ATOM     45  CAX KR2 d          -2.453   2.532  -8.075  0.00  0.00     0.001 A 
ATOM     46  CAY KR2 d          -3.074   1.515  -8.795  0.00  0.00    -0.072 A 
ATOM     47  CBC KR2 d          -3.614   0.417  -8.129  0.00  0.00    -0.082 A 
ATOM     48  H1  KR2 d          -3.138   1.578  -9.875  0.00  0.00     0.084 H 
ATOM     49  CBB KR2 d          -3.530   0.335  -6.740  0.00  0.00    -0.083 A 
ATOM     50  H2  KR2 d          -4.099  -0.372  -8.691  0.00  0.00     0.083 H 
ATOM     51  CBA KR2 d          -2.897   1.346  -6.022  0.00  0.00    -0.082 A 
ATOM     52  H3  KR2 d          -3.957  -0.515  -6.221  0.00  0.00     0.083 H 
ATOM     53  CAZ KR2 d          -2.354   2.441  -6.689  0.00  0.00    -0.072 A 
ATOM     54  H4  KR2 d          -2.827   1.280  -4.942  0.00  0.00     0.083 H 
ATOM     55  H5  KR2 d          -1.853   3.223  -6.128  0.00  0.00     0.084 H 
ENDBRANCH   1  45
TORSDOF 6
ENDMDL
MODEL 4
REMARK VINA RESULT:      -7.0      2.153      4.656
REMARK  6 active torsions:
REMARK  status: ('A' for Active; 'I' for Inactive)
REMARK    1  A    between atoms: CAX_6  and  CAW_7 
REMARK       I    between atoms: CAW_7  and  NAR_9 
REMARK    2  A    between atoms: CAO_16  and  CAN_18 
REMARK    3  A    between atoms: CAN_18  and  CAL_19 
REMARK    4  A    between atoms: CAL_19  and  NAM_20 
REMARK    5  A    between atoms: CAL_19  and  CAK_21 
REMARK    6  A    between atoms: CAK_21  and  CAG_22 
ROOT
ATOM      1  CAW KR2 d          -2.119   3.875  -8.896  0.00  0.00     0.250 C 
ATOM      2  OAA KR2 d          -1.186   4.438  -7.966  0.00  0.00    -0.199 OA
ATOM      3  NAR KR2 d          -3.368   4.652  -8.952  0.00  0.00    -0.181 NA
ATOM      4  CAV KR2 d          -3.464   5.328 -10.256  0.00  0.00     0.001 C 
ATOM      5  CDD KR2 d          -3.878   6.799 -10.184  0.00  0.00    -0.052 C 
ATOM      6  CNN KR2 d          -2.773   7.711  -9.646  0.00  0.00    -0.062 C 
ATOM      7  CAT KR2 d          -2.739   7.777  -8.115  0.00  0.00    -0.049 C 
ATOM      8  CAS KR2 d          -2.421   6.430  -7.456  0.00  0.00     0.013 C 
ATOM      9  NAQ KR2 d          -3.434   5.432  -7.838  0.00  0.00    -0.288 N 
ATOM     10  CAO KR2 d          -4.625   5.424  -7.251  0.00  0.00     0.170 C 
ATOM     11  OAP KR2 d          -5.735   4.885  -7.817  0.00  0.00    -0.176 OA
ATOM     12  H6  KR2 d          -4.206   4.792 -10.867  0.00  0.00     0.058 H 
ATOM     13  H7  KR2 d          -2.480   5.272 -10.744  0.00  0.00     0.058 H 
ATOM     14  H8  KR2 d          -4.754   6.883  -9.523  0.00  0.00     0.034 H 
ATOM     15  H9  KR2 d          -4.148   7.136 -11.195  0.00  0.00     0.034 H 
ATOM     16  H10 KR2 d          -2.936   8.726 -10.037  0.00  0.00     0.033 H 
ATOM     17  H11 KR2 d          -1.803   7.332 -10.001  0.00  0.00     0.033 H 
ATOM     18  H12 KR2 d          -3.723   8.117  -7.759  0.00  0.00     0.035 H 
ATOM     19  H13 KR2 d          -1.969   8.503  -7.814  0.00  0.00     0.035 H 
ATOM     20  H14 KR2 d          -2.421   6.550  -6.363  0.00  0.00     0.066 H 
ATOM     21  H15 KR2 d          -1.429   6.089  -7.787  0.00  0.00     0.066 H 
ENDROOT
BRANCH  10  22
ATOM     22  CAN KR2 d          -4.796   6.130  -5.908  0.00  0.00     0.025 C 
ATOM     23  H16 KR2 d          -5.638   6.835  -5.975  0.00  0.00     0.048 H 
ATOM     24  H17 KR2 d          -3.874   6.680  -5.668  0.00  0.00     0.048 H 
BRANCH  22  25
ATOM     25  CAL KR2 d          -5.078   5.110  -4.805  0.00  0.00     0.111 C 
ATOM     26  H18 KR2 d          -5.196   4.113  -5.254  0.00  0.00     0.085 H 
BRANCH  25  27
ATOM     27  NAM KR2 d          -6.301   5.565  -4.129  0.00  0.00    -0.074 N 
ATOM     28  H19 KR2 d          -7.095   5.067  -4.500  0.00  0.00     0.274 HD
ATOM     29  H20 KR2 d          -6.422   6.554  -4.283  0.00  0.00     0.274 HD
ATOM     30  H21 KR2 d          -6.224   5.387  -3.140  0.00  0.00     0.274 HD
ENDBRANCH  25  27
BRANCH  25  31
ATOM     31  CAK KR2 d          -4.083   5.049  -3.647  0.00  0.00    -0.011 C 
ATOM     32  H22 KR2 d          -4.478   5.708  -2.860  0.00  0.00     0.043 H 
ATOM     33  H23 KR2 d          -3.136   5.460  -4.028  0.00  0.00     0.043 H 
BRANCH  31  34
ATOM     34  CAG KR2 d          -3.771   3.841  -3.031  0.00  0.00    -0.015 A 
ATOM     35  CAH KR2 d          -4.063   2.638  -3.655  0.00  0.00    -0.034 A 
ATOM     36  CAC KR2 d          -3.978   1.422  -2.982  0.00  0.00     0.155 A 
ATOM     37  H24 KR2 d          -4.365   2.644  -4.696  0.00  0.00     0.089 H 
ATOM     38  FAB KR2 d          -4.114   0.284  -3.687  0.00  0.00    -0.203 F 
ATOM     39  CAD KR2 d          -3.616   1.419  -1.638  0.00  0.00     0.157 A 
ATOM     40  FAI KR2 d          -3.863   0.359  -0.843  0.00  0.00    -0.203 F 
ATOM     41  CAE KR2 d          -3.240   2.612  -1.036  0.00  0.00    -0.005 A 
ATOM     42  CAF KR2 d          -3.299   3.821  -1.721  0.00  0.00     0.125 A 
ATOM     43  H25 KR2 d          -2.894   2.601  -0.009  0.00  0.00     0.093 H 
ATOM     44  FAJ KR2 d          -2.983   4.941  -1.051  0.00  0.00    -0.205 F 
ENDBRANCH  31  34
ENDBRANCH  25  31
ENDBRANCH  22  25
ENDBRANCH  10  22
BRANCH   1  45
ATOM     45  CAX KR2 d          -2.575   2.511  -8.364  0.00  0.00     0.001 A 
ATOM     46  CAY KR2 d          -3.727   1.918  -8.875  0.00  0.00    -0.072 A 
ATOM     47  CBC KR2 d          -4.291   0.819  -8.231  0.00  0.00    -0.082 A 
ATOM     48  H1  KR2 d          -4.184   2.311  -9.775  0.00  0.00     0.084 H 
ATOM     49  CBB KR2 d          -3.701   0.311  -7.075  0.00  0.00    -0.083 A 
ATOM     50  H2  KR2 d          -5.188   0.359  -8.629  0.00  0.00     0.083 H 
ATOM     51  CBA KR2 d          -2.542   0.897  -6.572  0.00  0.00    -0.082 A 
ATOM     52  H3  KR2 d          -4.144  -0.539  -6.569  0.00  0.00     0.083 H 
ATOM     53  CAZ KR2 d          -1.977   1.992  -7.218  0.00  0.00    -0.072 A 
ATOM     54  H4  KR2 d          -2.080   0.499  -5.675  0.00  0.00     0.083 H 
ATOM     55  H5  KR2 d          -1.069   2.442  -6.830  0.00  0.00     0.084 H 
ENDBRANCH   1  45
TORSDOF 6
ENDMDL
MODEL 5
REMARK VINA RESULT:      -6.8      3.362      6.356
REMARK  6 active torsions:
REMARK  status: ('A' for Active; 'I' for Inactive)
REMARK    1  A    between atoms: CAX_6  and  CAW_7 
REMARK       I    between atoms: CAW_7  and  NAR_9 
REMARK    2  A    between atoms: CAO_16  and  CAN_18 
REMARK    3  A    between atoms: CAN_18  and  CAL_19 
REMARK    4  A    between atoms: CAL_19  and  NAM_20 
REMARK    5  A    between atoms: CAL_19  and  CAK_21 
REMARK    6  A    between atoms: CAK_21  and  CAG_22 
ROOT
ATOM      1  CAW KR2 d          -2.479   5.309  -4.353  0.00  0.00     0.250 C 
ATOM      2  OAA KR2 d          -1.905   4.057  -4.748  0.00  0.00    -0.199 OA
ATOM      3  NAR KR2 d          -3.802   5.129  -3.734  0.00  0.00    -0.181 NA
ATOM      4  CAV KR2 d          -3.717   5.453  -2.300  0.00  0.00     0.001 C 
ATOM      5  CDD KR2 d          -4.399   4.442  -1.375  0.00  0.00    -0.052 C 
ATOM      6  CNN KR2 d          -3.634   3.122  -1.257  0.00  0.00    -0.062 C 
ATOM      7  CAT KR2 d          -3.966   2.130  -2.376  0.00  0.00    -0.049 C 
ATOM      8  CAS KR2 d          -3.567   2.631  -3.769  0.00  0.00     0.013 C 
ATOM      9  NAQ KR2 d          -4.265   3.894  -4.068  0.00  0.00    -0.288 N 
ATOM     10  CAO KR2 d          -5.537   3.885  -4.449  0.00  0.00     0.170 C 
ATOM     11  OAP KR2 d          -6.369   4.948  -4.304  0.00  0.00    -0.176 OA
ATOM     12  H6  KR2 d          -4.187   6.435  -2.141  0.00  0.00     0.058 H 
ATOM     13  H7  KR2 d          -2.654   5.507  -2.024  0.00  0.00     0.058 H 
ATOM     14  H8  KR2 d          -5.404   4.230  -1.771  0.00  0.00     0.034 H 
ATOM     15  H9  KR2 d          -4.485   4.888  -0.374  0.00  0.00     0.034 H 
ATOM     16  H10 KR2 d          -3.886   2.657  -0.291  0.00  0.00     0.033 H 
ATOM     17  H11 KR2 d          -2.555   3.338  -1.289  0.00  0.00     0.033 H 
ATOM     18  H12 KR2 d          -5.051   1.946  -2.369  0.00  0.00     0.035 H 
ATOM     19  H13 KR2 d          -3.433   1.189  -2.179  0.00  0.00     0.035 H 
ATOM     20  H14 KR2 d          -3.842   1.876  -4.521  0.00  0.00     0.066 H 
ATOM     21  H15 KR2 d          -2.481   2.799  -3.798  0.00  0.00     0.066 H 
ENDROOT
BRANCH  10  22
ATOM     22  CAN KR2 d          -6.139   2.595  -4.999  0.00  0.00     0.025 C 
ATOM     23  H16 KR2 d          -7.197   2.534  -4.702  0.00  0.00     0.048 H 
ATOM     24  H17 KR2 d          -5.592   1.734  -4.587  0.00  0.00     0.048 H 
BRANCH  22  25
ATOM     25  CAL KR2 d          -6.042   2.572  -6.524  0.00  0.00     0.111 C 
ATOM     26  H18 KR2 d          -6.700   3.348  -6.941  0.00  0.00     0.085 H 
BRANCH  25  27
ATOM     27  NAM KR2 d          -6.439   1.220  -6.940  0.00  0.00    -0.074 N 
ATOM     28  H19 KR2 d          -7.224   0.915  -6.386  0.00  0.00     0.274 HD
ATOM     29  H20 KR2 d          -5.667   0.587  -6.806  0.00  0.00     0.274 HD
ATOM     30  H21 KR2 d          -6.700   1.231  -7.914  0.00  0.00     0.274 HD
ENDBRANCH  25  27
BRANCH  25  31
ATOM     31  CAK KR2 d          -4.644   2.689  -7.131  0.00  0.00    -0.011 C 
ATOM     32  H22 KR2 d          -4.321   1.666  -7.371  0.00  0.00     0.043 H 
ATOM     33  H23 KR2 d          -3.996   3.104  -6.344  0.00  0.00     0.043 H 
BRANCH  31  34
ATOM     34  CAG KR2 d          -4.418   3.452  -8.272  0.00  0.00    -0.015 A 
ATOM     35  CAH KR2 d          -3.334   3.184  -9.094  0.00  0.00    -0.034 A 
ATOM     36  CAC KR2 d          -2.946   4.058 -10.107  0.00  0.00     0.155 A 
ATOM     37  H24 KR2 d          -2.772   2.270  -8.944  0.00  0.00     0.089 H 
ATOM     38  FAB KR2 d          -1.991   3.662 -10.968  0.00  0.00    -0.203 F 
ATOM     39  CAD KR2 d          -3.652   5.244 -10.281  0.00  0.00     0.157 A 
ATOM     40  FAI KR2 d          -3.132   6.280 -10.969  0.00  0.00    -0.203 F 
ATOM     41  CAE KR2 d          -4.789   5.473  -9.518  0.00  0.00    -0.005 A 
ATOM     42  CAF KR2 d          -5.189   4.583  -8.527  0.00  0.00     0.125 A 
ATOM     43  H25 KR2 d          -5.378   6.365  -9.699  0.00  0.00     0.093 H 
ATOM     44  FAJ KR2 d          -6.262   4.906  -7.785  0.00  0.00    -0.205 F 
ENDBRANCH  31  34
ENDBRANCH  25  31
ENDBRANCH  22  25
ENDBRANCH  10  22
BRANCH   1  45
ATOM     45  CAX KR2 d          -2.788   6.123  -5.615  0.00  0.00     0.001 A 
ATOM     46  CAY KR2 d          -2.009   5.954  -6.757  0.00  0.00    -0.072 A 
ATOM     47  CBC KR2 d          -2.111   6.858  -7.812  0.00  0.00    -0.082 A 
ATOM     48  H1  KR2 d          -1.322   5.118  -6.825  0.00  0.00     0.084 H 
ATOM     49  CBB KR2 d          -2.996   7.931  -7.726  0.00  0.00    -0.083 A 
ATOM     50  H2  KR2 d          -1.503   6.726  -8.699  0.00  0.00     0.083 H 
ATOM     51  CBA KR2 d          -3.784   8.092  -6.589  0.00  0.00    -0.082 A 
ATOM     52  H3  KR2 d          -3.070   8.640  -8.543  0.00  0.00     0.083 H 
ATOM     53  CAZ KR2 d          -3.684   7.186  -5.537  0.00  0.00    -0.072 A 
ATOM     54  H4  KR2 d          -4.476   8.924  -6.524  0.00  0.00     0.083 H 
ATOM     55  H5  KR2 d          -4.305   7.308  -4.656  0.00  0.00     0.084 H 
ENDBRANCH   1  45
TORSDOF 6
ENDMDL
MODEL 6
REMARK VINA RESULT:      -6.7      1.597      3.798
REMARK  6 active torsions:
REMARK  status: ('A' for Active; 'I' for Inactive)
REMARK    1  A    between atoms: CAX_6  and  CAW_7 
REMARK       I    between atoms: CAW_7  and  NAR_9 
REMARK    2  A    between atoms: CAO_16  and  CAN_18 
REMARK    3  A    between atoms: CAN_18  and  CAL_19 
REMARK    4  A    between atoms: CAL_19  and  NAM_20 
REMARK    5  A    between atoms: CAL_19  and  CAK_21 
REMARK    6  A    between atoms: CAK_21  and  CAG_22 
ROOT
ATOM      1  CAW KR2 d          -3.128   4.408  -9.107  0.00  0.00     0.250 C 
ATOM      2  OAA KR2 d          -1.737   4.239  -8.809  0.00  0.00    -0.199 OA
ATOM      3  NAR KR2 d          -3.957   4.334  -7.892  0.00  0.00    -0.181 NA
ATOM      4  CAV KR2 d          -4.521   5.664  -7.606  0.00  0.00     0.001 C 
ATOM      5  CDD KR2 d          -4.415   6.100  -6.143  0.00  0.00    -0.052 C 
ATOM      6  CNN KR2 d          -2.990   6.469  -5.725  0.00  0.00    -0.062 C 
ATOM      7  CAT KR2 d          -2.156   5.259  -5.292  0.00  0.00    -0.049 C 
ATOM      8  CAS KR2 d          -1.929   4.244  -6.418  0.00  0.00     0.013 C 
ATOM      9  NAQ KR2 d          -3.223   3.742  -6.911  0.00  0.00    -0.288 N 
ATOM     10  CAO KR2 d          -3.890   2.818  -6.229  0.00  0.00     0.170 C 
ATOM     11  OAP KR2 d          -5.231   2.634  -6.333  0.00  0.00    -0.176 OA
ATOM     12  H6  KR2 d          -5.585   5.653  -7.884  0.00  0.00     0.058 H 
ATOM     13  H7  KR2 d          -3.988   6.402  -8.223  0.00  0.00     0.058 H 
ATOM     14  H8  KR2 d          -4.763   5.272  -5.505  0.00  0.00     0.034 H 
ATOM     15  H9  KR2 d          -5.062   6.976  -5.992  0.00  0.00     0.034 H 
ATOM     16  H10 KR2 d          -3.044   7.176  -4.883  0.00  0.00     0.033 H 
ATOM     17  H11 KR2 d          -2.489   6.952  -6.578  0.00  0.00     0.033 H 
ATOM     18  H12 KR2 d          -2.678   4.753  -4.466  0.00  0.00     0.035 H 
ATOM     19  H13 KR2 d          -1.177   5.617  -4.942  0.00  0.00     0.035 H 
ATOM     20  H14 KR2 d          -1.333   3.402  -6.035  0.00  0.00     0.066 H 
ATOM     21  H15 KR2 d          -1.388   4.731  -7.243  0.00  0.00     0.066 H 
ENDROOT
BRANCH  10  22
ATOM     22  CAN KR2 d          -3.144   1.967  -5.205  0.00  0.00     0.025 C 
ATOM     23  H16 KR2 d          -2.082   2.254  -5.200  0.00  0.00     0.048 H 
ATOM     24  H17 KR2 d          -3.236   0.905  -5.479  0.00  0.00     0.048 H 
BRANCH  22  25
ATOM     25  CAL KR2 d          -3.730   2.181  -3.809  0.00  0.00     0.111 C 
ATOM     26  H18 KR2 d          -2.945   2.010  -3.057  0.00  0.00     0.085 H 
BRANCH  25  27
ATOM     27  NAM KR2 d          -4.841   1.229  -3.682  0.00  0.00    -0.074 N 
ATOM     28  H19 KR2 d          -4.532   0.311  -3.960  0.00  0.00     0.274 HD
ATOM     29  H20 KR2 d          -5.603   1.520  -4.273  0.00  0.00     0.274 HD
ATOM     30  H21 KR2 d          -5.152   1.202  -2.723  0.00  0.00     0.274 HD
ENDBRANCH  25  27
BRANCH  25  31
ATOM     31  CAK KR2 d          -4.427   3.515  -3.547  0.00  0.00    -0.011 C 
ATOM     32  H22 KR2 d          -5.508   3.312  -3.567  0.00  0.00     0.043 H 
ATOM     33  H23 KR2 d          -4.162   4.176  -4.386  0.00  0.00     0.043 H 
BRANCH  31  34
ATOM     34  CAG KR2 d          -4.182   4.236  -2.383  0.00  0.00    -0.015 A 
ATOM     35  CAH KR2 d          -3.283   3.764  -1.439  0.00  0.00    -0.034 A 
ATOM     36  CAC KR2 d          -3.182   4.332  -0.171  0.00  0.00     0.155 A 
ATOM     37  H24 KR2 d          -2.640   2.929  -1.695  0.00  0.00     0.089 H 
ATOM     38  FAB KR2 d          -2.181   3.935   0.635  0.00  0.00    -0.203 F 
ATOM     39  CAD KR2 d          -4.026   5.386   0.164  0.00  0.00     0.157 A 
ATOM     40  FAI KR2 d          -4.243   5.735   1.448  0.00  0.00    -0.203 F 
ATOM     41  CAE KR2 d          -4.865   5.916  -0.806  0.00  0.00    -0.005 A 
ATOM     42  CAF KR2 d          -4.942   5.364  -2.081  0.00  0.00     0.125 A 
ATOM     43  H25 KR2 d          -5.474   6.780  -0.566  0.00  0.00     0.093 H 
ATOM     44  FAJ KR2 d          -5.825   5.890  -2.944  0.00  0.00    -0.205 F 
ENDBRANCH  31  34
ENDBRANCH  25  31
ENDBRANCH  22  25
ENDBRANCH  10  22
BRANCH   1  45
ATOM     45  CAX KR2 d          -3.600   3.203  -9.929  0.00  0.00     0.001 A 
ATOM     46  CAY KR2 d          -4.962   2.953 -10.074  0.00  0.00    -0.072 A 
ATOM     47  CBC KR2 d          -5.398   1.736 -10.593  0.00  0.00    -0.082 A 
ATOM     48  H1  KR2 d          -5.685   3.707  -9.784  0.00  0.00     0.084 H 
ATOM     49  CBB KR2 d          -4.470   0.767 -10.969  0.00  0.00    -0.083 A 
ATOM     50  H2  KR2 d          -6.458   1.542 -10.703  0.00  0.00     0.083 H 
ATOM     51  CBA KR2 d          -3.107   1.022 -10.836  0.00  0.00    -0.082 A 
ATOM     52  H3  KR2 d          -4.808  -0.184 -11.364  0.00  0.00     0.083 H 
ATOM     53  CAZ KR2 d          -2.672   2.241 -10.322  0.00  0.00    -0.072 A 
ATOM     54  H4  KR2 d          -2.384   0.271 -11.133  0.00  0.00     0.083 H 
ATOM     55  H5  KR2 d          -1.611   2.441 -10.227  0.00  0.00     0.084 H 
ENDBRANCH   1  45
TORSDOF 6
ENDMDL
MODEL 7
REMARK VINA RESULT:      -6.6      3.516      7.405
REMARK  6 active torsions:
REMARK  status: ('A' for Active; 'I' for Inactive)
REMARK    1  A    between atoms: CAX_6  and  CAW_7 
REMARK       I    between atoms: CAW_7  and  NAR_9 
REMARK    2  A    between atoms: CAO_16  and  CAN_18 
REMARK    3  A    between atoms: CAN_18  and  CAL_19 
REMARK    4  A    between atoms: CAL_19  and  NAM_20 
REMARK    5  A    between atoms: CAL_19  and  CAK_21 
REMARK    6  A    between atoms: CAK_21  and  CAG_22 
ROOT
ATOM      1  CAW KR2 d          -3.691   3.547  -1.449  0.00  0.00     0.250 C 
ATOM      2  OAA KR2 d          -2.299   3.776  -1.700  0.00  0.00    -0.199 OA
ATOM      3  NAR KR2 d          -4.511   3.817  -2.642  0.00  0.00    -0.181 NA
ATOM      4  CAV KR2 d          -5.057   2.549  -3.154  0.00  0.00     0.001 C 
ATOM      5  CDD KR2 d          -4.934   2.368  -4.669  0.00  0.00    -0.052 C 
ATOM      6  CNN KR2 d          -3.502   2.087  -5.128  0.00  0.00    -0.062 C 
ATOM      7  CAT KR2 d          -2.678   3.361  -5.343  0.00  0.00    -0.049 C 
ATOM      8  CAS KR2 d          -2.471   4.174  -4.060  0.00  0.00     0.013 C 
ATOM      9  NAQ KR2 d          -3.775   4.573  -3.501  0.00  0.00    -0.288 N 
ATOM     10  CAO KR2 d          -4.446   5.592  -4.025  0.00  0.00     0.170 C 
ATOM     11  OAP KR2 d          -5.790   5.743  -3.905  0.00  0.00    -0.176 OA
ATOM     12  H6  KR2 d          -6.123   2.503  -2.889  0.00  0.00     0.058 H 
ATOM     13  H7  KR2 d          -4.521   1.723  -2.665  0.00  0.00     0.058 H 
ATOM     14  H8  KR2 d          -5.286   3.287  -5.161  0.00  0.00     0.034 H 
ATOM     15  H9  KR2 d          -5.570   1.524  -4.972  0.00  0.00     0.034 H 
ATOM     16  H10 KR2 d          -3.542   1.532  -6.078  0.00  0.00     0.033 H 
ATOM     17  H11 KR2 d          -3.003   1.472  -4.364  0.00  0.00     0.033 H 
ATOM     18  H12 KR2 d          -3.198   3.994  -6.077  0.00  0.00     0.035 H 
ATOM     19  H13 KR2 d          -1.691   3.077  -5.738  0.00  0.00     0.035 H 
ATOM     20  H14 KR2 d          -1.882   5.073  -4.289  0.00  0.00     0.066 H 
ATOM     21  H15 KR2 d          -1.932   3.560  -3.323  0.00  0.00     0.066 H 
ENDROOT
BRANCH  10  22
ATOM     22  CAN KR2 d          -3.701   6.611  -4.883  0.00  0.00     0.025 C 
ATOM     23  H16 KR2 d          -2.654   6.293  -4.995  0.00  0.00     0.048 H 
ATOM     24  H17 KR2 d          -3.735   7.595  -4.391  0.00  0.00     0.048 H 
BRANCH  22  25
ATOM     25  CAL KR2 d          -4.347   6.715  -6.264  0.00  0.00     0.111 C 
ATOM     26  H18 KR2 d          -4.996   7.603  -6.294  0.00  0.00     0.085 H 
BRANCH  25  27
ATOM     27  NAM KR2 d          -5.098   5.468  -6.461  0.00  0.00    -0.074 N 
ATOM     28  H19 KR2 d          -5.931   5.485  -5.894  0.00  0.00     0.274 HD
ATOM     29  H20 KR2 d          -4.525   4.684  -6.192  0.00  0.00     0.274 HD
ATOM     30  H21 KR2 d          -5.354   5.379  -7.432  0.00  0.00     0.274 HD
ENDBRANCH  25  27
BRANCH  25  31
ATOM     31  CAK KR2 d          -3.409   6.711  -7.470  0.00  0.00    -0.011 C 
ATOM     32  H22 KR2 d          -2.405   6.483  -7.085  0.00  0.00     0.043 H 
ATOM     33  H23 KR2 d          -3.422   7.732  -7.880  0.00  0.00     0.043 H 
BRANCH  31  34
ATOM     34  CAG KR2 d          -3.624   5.852  -8.544  0.00  0.00    -0.015 A 
ATOM     35  CAH KR2 d          -4.807   5.909  -9.264  0.00  0.00    -0.034 A 
ATOM     36  CAC KR2 d          -5.153   4.926 -10.188  0.00  0.00     0.155 A 
ATOM     37  H24 KR2 d          -5.483   6.741  -9.103  0.00  0.00     0.089 H 
ATOM     38  FAB KR2 d          -6.232   5.125 -10.967  0.00  0.00    -0.203 F 
ATOM     39  CAD KR2 d          -4.298   3.844 -10.374  0.00  0.00     0.157 A 
ATOM     40  FAI KR2 d          -4.719   2.703 -10.954  0.00  0.00    -0.203 F 
ATOM     41  CAE KR2 d          -3.074   3.830  -9.719  0.00  0.00    -0.005 A 
ATOM     42  CAF KR2 d          -2.720   4.829  -8.819  0.00  0.00     0.125 A 
ATOM     43  H25 KR2 d          -2.378   3.022  -9.914  0.00  0.00     0.093 H 
ATOM     44  FAJ KR2 d          -1.547   4.711  -8.174  0.00  0.00    -0.205 F 
ENDBRANCH  31  34
ENDBRANCH  25  31
ENDBRANCH  22  25
ENDBRANCH  10  22
BRANCH   1  45
ATOM     45  CAX KR2 d          -4.182   4.591  -0.440  0.00  0.00     0.001 A 
ATOM     46  CAY KR2 d          -3.488   4.784   0.752  0.00  0.00    -0.072 A 
ATOM     47  CBC KR2 d          -4.057   5.533   1.779  0.00  0.00    -0.082 A 
ATOM     48  H1  KR2 d          -2.502   4.351   0.880  0.00  0.00     0.084 H 
ATOM     49  CBB KR2 d          -5.323   6.092   1.614  0.00  0.00    -0.083 A 
ATOM     50  H2  KR2 d          -3.517   5.681   2.706  0.00  0.00     0.083 H 
ATOM     51  CBA KR2 d          -6.012   5.909   0.417  0.00  0.00    -0.082 A 
ATOM     52  H3  KR2 d          -5.771   6.667   2.416  0.00  0.00     0.083 H 
ATOM     53  CAZ KR2 d          -5.440   5.164  -0.611  0.00  0.00    -0.072 A 
ATOM     54  H4  KR2 d          -6.995   6.347   0.286  0.00  0.00     0.083 H 
ATOM     55  H5  KR2 d          -5.974   5.030  -1.545  0.00  0.00     0.084 H 
ENDBRANCH   1  45
TORSDOF 6
ENDMDL
MODEL 8
REMARK VINA RESULT:      -6.2      1.710      2.163
REMARK  6 active torsions:
REMARK  status: ('A' for Active; 'I' for Inactive)
REMARK    1  A    between atoms: CAX_6  and  CAW_7 
REMARK       I    between atoms: CAW_7  and  NAR_9 
REMARK    2  A    between atoms: CAO_16  and  CAN_18 
REMARK    3  A    between atoms: CAN_18  and  CAL_19 
REMARK    4  A    between atoms: CAL_19  and  NAM_20 
REMARK    5  A    between atoms: CAL_19  and  CAK_21 
REMARK    6  A    between atoms: CAK_21  and  CAG_22 
ROOT
ATOM      1  CAW KR2 d          -3.237   4.516  -8.732  0.00  0.00     0.250 C 
ATOM      2  OAA KR2 d          -4.639   4.489  -9.023  0.00  0.00    -0.199 OA
ATOM      3  NAR KR2 d          -2.758   3.213  -8.241  0.00  0.00    -0.181 NA
ATOM      4  CAV KR2 d          -1.879   2.605  -9.253  0.00  0.00     0.001 C 
ATOM      5  CDD KR2 d          -2.155   1.126  -9.533  0.00  0.00    -0.052 C 
ATOM      6  CNN KR2 d          -3.445   0.893 -10.325  0.00  0.00    -0.062 C 
ATOM      7  CAT KR2 d          -4.692   0.827  -9.437  0.00  0.00    -0.049 C 
ATOM      8  CAS KR2 d          -4.979   2.137  -8.695  0.00  0.00     0.013 C 
ATOM      9  NAQ KR2 d          -3.836   2.489  -7.835  0.00  0.00    -0.288 N 
ATOM     10  CAO KR2 d          -3.662   1.880  -6.667  0.00  0.00     0.170 C 
ATOM     11  OAP KR2 d          -2.459   1.790  -6.044  0.00  0.00    -0.176 OA
ATOM     12  H6  KR2 d          -0.839   2.699  -8.907  0.00  0.00     0.058 H 
ATOM     13  H7  KR2 d          -2.003   3.160 -10.194  0.00  0.00     0.058 H 
ATOM     14  H8  KR2 d          -2.235   0.597  -8.572  0.00  0.00     0.034 H 
ATOM     15  H9  KR2 d          -1.313   0.716 -10.109  0.00  0.00     0.034 H 
ATOM     16  H10 KR2 d          -3.353  -0.058 -10.871  0.00  0.00     0.033 H 
ATOM     17  H11 KR2 d          -3.569   1.718 -11.042  0.00  0.00     0.033 H 
ATOM     18  H12 KR2 d          -4.550   0.029  -8.694  0.00  0.00     0.035 H 
ATOM     19  H13 KR2 d          -5.559   0.588 -10.070  0.00  0.00     0.035 H 
ATOM     20  H14 KR2 d          -5.879   2.015  -8.074  0.00  0.00     0.066 H 
ATOM     21  H15 KR2 d          -5.145   2.941  -9.427  0.00  0.00     0.066 H 
ENDROOT
BRANCH  10  22
ATOM     22  CAN KR2 d          -4.842   1.163  -6.019  0.00  0.00     0.025 C 
ATOM     23  H16 KR2 d          -4.486   0.238  -5.541  0.00  0.00     0.048 H 
ATOM     24  H17 KR2 d          -5.585   0.913  -6.793  0.00  0.00     0.048 H 
BRANCH  22  25
ATOM     25  CAL KR2 d          -5.493   2.057  -4.965  0.00  0.00     0.111 C 
ATOM     26  H18 KR2 d          -5.749   1.451  -4.083  0.00  0.00     0.085 H 
BRANCH  25  27
ATOM     27  NAM KR2 d          -6.680   2.644  -5.601  0.00  0.00    -0.074 N 
ATOM     28  H19 KR2 d          -6.450   3.555  -5.965  0.00  0.00     0.274 HD
ATOM     29  H20 KR2 d          -7.418   2.731  -4.921  0.00  0.00     0.274 HD
ATOM     30  H21 KR2 d          -6.987   2.048  -6.355  0.00  0.00     0.274 HD
ENDBRANCH  25  27
BRANCH  25  31
ATOM     31  CAK KR2 d          -4.718   3.303  -4.538  0.00  0.00    -0.011 C 
ATOM     32  H22 KR2 d          -5.318   4.169  -4.853  0.00  0.00     0.043 H 
ATOM     33  H23 KR2 d          -3.771   3.289  -5.099  0.00  0.00     0.043 H 
BRANCH  31  34
ATOM     34  CAG KR2 d          -4.384   3.519  -3.204  0.00  0.00    -0.015 A 
ATOM     35  CAH KR2 d          -4.495   4.784  -2.648  0.00  0.00    -0.034 A 
ATOM     36  CAC KR2 d          -3.959   5.087  -1.398  0.00  0.00     0.155 A 
ATOM     37  H24 KR2 d          -5.012   5.559  -3.201  0.00  0.00     0.089 H 
ATOM     38  FAB KR2 d          -4.243   6.281  -0.848  0.00  0.00    -0.203 F 
ATOM     39  CAD KR2 d          -3.272   4.097  -0.702  0.00  0.00     0.157 A 
ATOM     40  FAI KR2 d          -2.433   4.399   0.309  0.00  0.00    -0.203 F 
ATOM     41  CAE KR2 d          -3.235   2.809  -1.217  0.00  0.00    -0.005 A 
ATOM     42  CAF KR2 d          -3.796   2.504  -2.453  0.00  0.00     0.125 A 
ATOM     43  H25 KR2 d          -2.758   2.022  -0.644  0.00  0.00     0.093 H 
ATOM     44  FAJ KR2 d          -3.662   1.250  -2.915  0.00  0.00    -0.205 F 
ENDBRANCH  31  34
ENDBRANCH  25  31
ENDBRANCH  22  25
ENDBRANCH  10  22
BRANCH   1  45
ATOM     45  CAX KR2 d          -3.005   5.449  -7.538  0.00  0.00     0.001 A 
ATOM     46  CAY KR2 d          -2.074   5.105  -6.560  0.00  0.00    -0.072 A 
ATOM     47  CBC KR2 d          -2.037   5.802  -5.355  0.00  0.00    -0.082 A 
ATOM     48  H1  KR2 d          -1.377   4.294  -6.738  0.00  0.00     0.084 H 
ATOM     49  CBB KR2 d          -2.931   6.847  -5.127  0.00  0.00    -0.083 A 
ATOM     50  H2  KR2 d          -1.314   5.532  -4.595  0.00  0.00     0.083 H 
ATOM     51  CBA KR2 d          -3.853   7.199  -6.110  0.00  0.00    -0.082 A 
ATOM     52  H3  KR2 d          -2.909   7.384  -4.186  0.00  0.00     0.083 H 
ATOM     53  CAZ KR2 d          -3.886   6.504  -7.317  0.00  0.00    -0.072 A 
ATOM     54  H4  KR2 d          -4.546   8.015  -5.936  0.00  0.00     0.083 H 
ATOM     55  H5  KR2 d          -4.599   6.785  -8.084  0.00  0.00     0.084 H 
ENDBRANCH   1  45
TORSDOF 6
ENDMDL
MODEL 9
REMARK VINA RESULT:      -5.0      3.449      6.713
REMARK  6 active torsions:
REMARK  status: ('A' for Active; 'I' for Inactive)
REMARK    1  A    between atoms: CAX_6  and  CAW_7 
REMARK       I    between atoms: CAW_7  and  NAR_9 
REMARK    2  A    between atoms: CAO_16  and  CAN_18 
REMARK    3  A    between atoms: CAN_18  and  CAL_19 
REMARK    4  A    between atoms: CAL_19  and  NAM_20 
REMARK    5  A    between atoms: CAL_19  and  CAK_21 
REMARK    6  A    between atoms: CAK_21  and  CAG_22 
ROOT
ATOM      1  CAW KR2 d          -3.372   5.550  -3.257  0.00  0.00     0.250 C 
ATOM      2  OAA KR2 d          -4.463   6.367  -3.700  0.00  0.00    -0.199 OA
ATOM      3  NAR KR2 d          -3.348   4.252  -3.951  0.00  0.00    -0.181 NA
ATOM      4  CAV KR2 d          -2.179   4.199  -4.845  0.00  0.00     0.001 C 
ATOM      5  CDD KR2 d          -2.473   3.668  -6.250  0.00  0.00    -0.052 C 
ATOM      6  CNN KR2 d          -3.255   4.657  -7.117  0.00  0.00    -0.062 C 
ATOM      7  CAT KR2 d          -4.771   4.575  -6.907  0.00  0.00    -0.049 C 
ATOM      8  CAS KR2 d          -5.208   4.948  -5.486  0.00  0.00     0.013 C 
ATOM      9  NAQ KR2 d          -4.571   4.045  -4.511  0.00  0.00    -0.288 N 
ATOM     10  CAO KR2 d          -5.045   2.819  -4.322  0.00  0.00     0.170 C 
ATOM     11  OAP KR2 d          -4.300   1.798  -3.826  0.00  0.00    -0.176 OA
ATOM     12  H6  KR2 d          -1.423   3.547  -4.384  0.00  0.00     0.058 H 
ATOM     13  H7  KR2 d          -1.775   5.217  -4.941  0.00  0.00     0.058 H 
ATOM     14  H8  KR2 d          -3.061   2.743  -6.158  0.00  0.00     0.034 H 
ATOM     15  H9  KR2 d          -1.518   3.447  -6.747  0.00  0.00     0.034 H 
ATOM     16  H10 KR2 d          -3.037   4.445  -8.174  0.00  0.00     0.033 H 
ATOM     17  H11 KR2 d          -2.923   5.677  -6.871  0.00  0.00     0.033 H 
ATOM     18  H12 KR2 d          -5.096   3.545  -7.113  0.00  0.00     0.035 H 
ATOM     19  H13 KR2 d          -5.259   5.262  -7.613  0.00  0.00     0.035 H 
ATOM     20  H14 KR2 d          -6.301   4.859  -5.405  0.00  0.00     0.066 H 
ATOM     21  H15 KR2 d          -4.908   5.984  -5.273  0.00  0.00     0.066 H 
ENDROOT
BRANCH  10  22
ATOM     22  CAN KR2 d          -6.471   2.496  -4.760  0.00  0.00     0.025 C 
ATOM     23  H16 KR2 d          -6.727   3.108  -5.637  0.00  0.00     0.048 H 
ATOM     24  H17 KR2 d          -7.164   2.727  -3.937  0.00  0.00     0.048 H 
BRANCH  22  25
ATOM     25  CAL KR2 d          -6.593   1.017  -5.124  0.00  0.00     0.111 C 
ATOM     26  H18 KR2 d          -7.499   0.866  -5.729  0.00  0.00     0.085 H 
BRANCH  25  27
ATOM     27  NAM KR2 d          -6.644   0.285  -3.851  0.00  0.00    -0.074 N 
ATOM     28  H19 KR2 d          -7.579  -0.061  -3.700  0.00  0.00     0.274 HD
ATOM     29  H20 KR2 d          -6.389   0.903  -3.097  0.00  0.00     0.274 HD
ATOM     30  H21 KR2 d          -6.000  -0.490  -3.883  0.00  0.00     0.274 HD
ENDBRANCH  25  27
BRANCH  25  31
ATOM     31  CAK KR2 d          -5.390   0.370  -5.809  0.00  0.00    -0.011 C 
ATOM     32  H22 KR2 d          -5.645  -0.690  -5.954  0.00  0.00     0.043 H 
ATOM     33  H23 KR2 d          -4.548   0.452  -5.106  0.00  0.00     0.043 H 
BRANCH  31  34
ATOM     34  CAG KR2 d          -4.927   0.836  -7.036  0.00  0.00    -0.015 A 
ATOM     35  CAH KR2 d          -5.816   1.295  -7.995  0.00  0.00    -0.034 A 
ATOM     36  CAC KR2 d          -5.417   1.552  -9.305  0.00  0.00     0.155 A 
ATOM     37  H24 KR2 d          -6.851   1.460  -7.718  0.00  0.00     0.089 H 
ATOM     38  FAB KR2 d          -6.288   2.149 -10.138  0.00  0.00    -0.203 F 
ATOM     39  CAD KR2 d          -4.094   1.314  -9.665  0.00  0.00     0.157 A 
ATOM     40  FAI KR2 d          -3.727   1.185 -10.955  0.00  0.00    -0.203 F 
ATOM     41  CAE KR2 d          -3.184   0.937  -8.687  0.00  0.00    -0.005 A 
ATOM     42  CAF KR2 d          -3.582   0.711  -7.374  0.00  0.00     0.125 A 
ATOM     43  H25 KR2 d          -2.140   0.817  -8.953  0.00  0.00     0.093 H 
ATOM     44  FAJ KR2 d          -2.655   0.284  -6.499  0.00  0.00    -0.205 F 
ENDBRANCH  31  34
ENDBRANCH  25  31
ENDBRANCH  22  25
ENDBRANCH  10  22
BRANCH   1  45
ATOM     45  CAX KR2 d          -3.616   5.163  -1.794  0.00  0.00     0.001 A 
ATOM     46  CAY KR2 d          -4.491   5.915  -1.015  0.00  0.00    -0.072 A 
ATOM     47  CBC KR2 d          -4.527   5.736   0.366  0.00  0.00    -0.082 A 
ATOM     48  H1  KR2 d          -5.147   6.640  -1.483  0.00  0.00     0.084 H 
ATOM     49  CBB KR2 d          -3.687   4.802   0.969  0.00  0.00    -0.083 A 
ATOM     50  H2  KR2 d          -5.207   6.324   0.971  0.00  0.00     0.083 H 
ATOM     51  CBA KR2 d          -2.820   4.041   0.188  0.00  0.00    -0.082 A 
ATOM     52  H3  KR2 d          -3.707   4.669   2.044  0.00  0.00     0.083 H 
ATOM     53  CAZ KR2 d          -2.789   4.217  -1.193  0.00  0.00    -0.072 A 
ATOM     54  H4  KR2 d          -2.170   3.310   0.655  0.00  0.00     0.083 H 
ATOM     55  H5  KR2 d          -2.120   3.618  -1.801  0.00  0.00     0.084 H 
ENDBRANCH   1  45
TORSDOF 6
ENDMDL
MODEL 10
REMARK VINA RESULT:      -4.9      3.863      7.176
REMARK  6 active torsions:
REMARK  status: ('A' for Active; 'I' for Inactive)
REMARK    1  A    between atoms: CAX_6  and  CAW_7 
REMARK       I    between atoms: CAW_7  and  NAR_9 
REMARK    2  A    between atoms: CAO_16  and  CAN_18 
REMARK    3  A    between atoms: CAN_18  and  CAL_19 
REMARK    4  A    between atoms: CAL_19  and  NAM_20 
REMARK    5  A    between atoms: CAL_19  and  CAK_21 
REMARK    6  A    between atoms: CAK_21  and  CAG_22 
ROOT
ATOM      1  CAW KR2 d          -5.113   4.036  -4.082  0.00  0.00     0.250 C 
ATOM      2  OAA KR2 d          -5.863   3.862  -5.290  0.00  0.00    -0.199 OA
ATOM      3  NAR KR2 d          -3.760   4.552  -4.352  0.00  0.00    -0.181 NA
ATOM      4  CAV KR2 d          -3.658   5.933  -3.851  0.00  0.00     0.001 C 
ATOM      5  CDD KR2 d          -3.002   6.917  -4.822  0.00  0.00    -0.052 C 
ATOM      6  CNN KR2 d          -3.895   7.277  -6.012  0.00  0.00    -0.062 C 
ATOM      7  CAT KR2 d          -3.797   6.271  -7.165  0.00  0.00    -0.049 C 
ATOM      8  CAS KR2 d          -4.280   4.866  -6.787  0.00  0.00     0.013 C 
ATOM      9  NAQ KR2 d          -3.479   4.343  -5.667  0.00  0.00    -0.288 N 
ATOM     10  CAO KR2 d          -2.263   3.854  -5.882  0.00  0.00     0.170 C 
ATOM     11  OAP KR2 d          -1.305   3.783  -4.922  0.00  0.00    -0.176 OA
ATOM     12  H6  KR2 d          -3.065   5.919  -2.925  0.00  0.00     0.058 H 
ATOM     13  H7  KR2 d          -4.673   6.294  -3.631  0.00  0.00     0.058 H 
ATOM     14  H8  KR2 d          -2.075   6.465  -5.206  0.00  0.00     0.034 H 
ATOM     15  H9  KR2 d          -2.761   7.840  -4.275  0.00  0.00     0.034 H 
ATOM     16  H10 KR2 d          -3.598   8.268  -6.386  0.00  0.00     0.033 H 
ATOM     17  H11 KR2 d          -4.940   7.313  -5.667  0.00  0.00     0.033 H 
ATOM     18  H12 KR2 d          -2.746   6.205  -7.481  0.00  0.00     0.035 H 
ATOM     19  H13 KR2 d          -4.410   6.638  -8.001  0.00  0.00     0.035 H 
ATOM     20  H14 KR2 d          -4.174   4.199  -7.655  0.00  0.00     0.066 H 
ATOM     21  H15 KR2 d          -5.338   4.913  -6.488  0.00  0.00     0.066 H 
ENDROOT
BRANCH  10  22
ATOM     22  CAN KR2 d          -1.872   3.426  -7.294  0.00  0.00     0.025 C 
ATOM     23  H16 KR2 d          -0.783   3.517  -7.411  0.00  0.00     0.048 H 
ATOM     24  H17 KR2 d          -2.376   4.078  -8.023  0.00  0.00     0.048 H 
BRANCH  22  25
ATOM     25  CAL KR2 d          -2.287   1.976  -7.543  0.00  0.00     0.111 C 
ATOM     26  H18 KR2 d          -2.656   1.538  -6.604  0.00  0.00     0.085 H 
BRANCH  25  27
ATOM     27  NAM KR2 d          -1.091   1.288  -8.047  0.00  0.00    -0.074 N 
ATOM     28  H19 KR2 d          -0.740   0.663  -7.339  0.00  0.00     0.274 HD
ATOM     29  H20 KR2 d          -0.384   1.968  -8.276  0.00  0.00     0.274 HD
ATOM     30  H21 KR2 d          -1.330   0.761  -8.873  0.00  0.00     0.274 HD
ENDBRANCH  25  27
BRANCH  25  31
ATOM     31  CAK KR2 d          -3.291   1.726  -8.668  0.00  0.00    -0.011 C 
ATOM     32  H22 KR2 d          -4.185   1.291  -8.198  0.00  0.00     0.043 H 
ATOM     33  H23 KR2 d          -2.831   0.985  -9.338  0.00  0.00     0.043 H 
BRANCH  31  34
ATOM     34  CAG KR2 d          -3.737   2.767  -9.477  0.00  0.00    -0.015 A 
ATOM     35  CAH KR2 d          -2.871   3.778  -9.862  0.00  0.00    -0.034 A 
ATOM     36  CAC KR2 d          -3.328   4.944 -10.473  0.00  0.00     0.155 A 
ATOM     37  H24 KR2 d          -1.809   3.659  -9.684  0.00  0.00     0.089 H 
ATOM     38  FAB KR2 d          -2.424   5.809 -10.968  0.00  0.00    -0.203 F 
ATOM     39  CAD KR2 d          -4.695   5.106 -10.677  0.00  0.00     0.157 A 
ATOM     40  FAI KR2 d          -5.234   6.319 -10.913  0.00  0.00    -0.203 F 
ATOM     41  CAE KR2 d          -5.554   4.060 -10.372  0.00  0.00    -0.005 A 
ATOM     42  CAF KR2 d          -5.089   2.886  -9.788  0.00  0.00     0.125 A 
ATOM     43  H25 KR2 d          -6.610   4.159 -10.593  0.00  0.00     0.093 H 
ATOM     44  FAJ KR2 d          -5.990   1.945  -9.461  0.00  0.00    -0.205 F 
ENDBRANCH  31  34
ENDBRANCH  25  31
ENDBRANCH  22  25
ENDBRANCH  10  22
BRANCH   1  45
ATOM     45  CAX KR2 d          -4.847   2.656  -3.471  0.00  0.00     0.001 A 
ATOM     46  CAY KR2 d          -5.648   1.573  -3.827  0.00  0.00    -0.072 A 
ATOM     47  CBC KR2 d          -5.587   0.389  -3.097  0.00  0.00    -0.082 A 
ATOM     48  H1  KR2 d          -6.321   1.654  -4.673  0.00  0.00     0.084 H 
ATOM     49  CBB KR2 d          -4.720   0.284  -2.011  0.00  0.00    -0.083 A 
ATOM     50  H2  KR2 d          -6.212  -0.452  -3.374  0.00  0.00     0.083 H 
ATOM     51  CBA KR2 d          -3.910   1.362  -1.663  0.00  0.00    -0.082 A 
ATOM     52  H3  KR2 d          -4.678  -0.634  -1.438  0.00  0.00     0.083 H 
ATOM     53  CAZ KR2 d          -3.969   2.545  -2.396  0.00  0.00    -0.072 A 
ATOM     54  H4  KR2 d          -3.232   1.280  -0.821  0.00  0.00     0.083 H 
ATOM     55  H5  KR2 d          -3.330   3.380  -2.129  0.00  0.00     0.084 H 
ENDBRANCH   1  45
TORSDOF 6
ENDMDL
