MODEL 1
REMARK VINA RESULT:      -5.1      0.000      0.000
REMARK  7 active torsions:
REMARK  status: ('A' for Active; 'I' for Inactive)
REMARK    1  A    between atoms: CE_10  and  N1_1 
REMARK    2  A    between atoms: CA_3  and  N_2 
REMARK    3  A    between atoms: CA_3  and  C_4 
REMARK    4  A    between atoms: CB_7  and  CA_3 
REMARK    5  A    between atoms: CG_8  and  CB_7 
REMARK    6  A    between atoms: CD_9  and  CG_8 
REMARK    7  A    between atoms: CD_9  and  CE_10 
ROOT
ATOM      1  CB  MOL d          24.110 -15.717   8.308  0.00  0.00    -0.029 C 
ATOM      2  H5  MOL d          23.652 -15.401   9.257  0.00  0.00     0.036 H 
ATOM      3  H6  MOL d          25.154 -16.016   8.487  0.00  0.00     0.036 H 
ENDROOT
BRANCH   1   4
ATOM      4  CA  MOL d          24.096 -14.523   7.326  0.00  0.00     0.182 C 
ATOM      5  H4  MOL d          23.323 -13.813   7.653  0.00  0.00     0.101 H 
BRANCH   4   6
ATOM      6  N   MOL d          23.754 -15.015   5.964  0.00  0.00    -0.065 N 
ATOM      7  H1  MOL d          24.399 -15.743   5.698  0.00  0.00     0.275 HD
ATOM      8  H2  MOL d          23.818 -14.253   5.307  0.00  0.00     0.275 HD
ATOM      9  H3  MOL d          22.815 -15.381   5.966  0.00  0.00     0.275 HD
ENDBRANCH   4   6
BRANCH   4  10
ATOM     10  C   MOL d          25.449 -13.786   7.293  0.00  0.00     0.204 C 
ATOM     11  OXT MOL d          26.509 -14.400   7.617  0.00  0.00    -0.646 OA
ATOM     12  O   MOL d          25.500 -12.570   6.940  0.00  0.00    -0.646 OA
ENDBRANCH   4  10
ENDBRANCH   1   4
BRANCH   1  13
ATOM     13  CG  MOL d          23.340 -16.924   7.770  0.00  0.00    -0.061 C 
ATOM     14  H7  MOL d          23.937 -17.835   7.922  0.00  0.00     0.033 H 
ATOM     15  H8  MOL d          23.150 -16.785   6.696  0.00  0.00     0.033 H 
BRANCH  13  16
ATOM     16  CD  MOL d          22.019 -17.062   8.500  0.00  0.00    -0.044 C 
ATOM     17  H9  MOL d          21.832 -16.168   9.112  0.00  0.00     0.035 H 
ATOM     18  H10 MOL d          22.037 -17.952   9.147  0.00  0.00     0.035 H 
BRANCH  16  19
ATOM     19  CE  MOL d          20.933 -17.208   7.447  0.00  0.00     0.054 C 
ATOM     20  H11 MOL d          21.293 -17.895   6.667  0.00  0.00     0.073 H 
ATOM     21  H12 MOL d          20.038 -17.633   7.925  0.00  0.00     0.073 H 
BRANCH  19  22
ATOM     22  N1  MOL d          20.568 -15.958   6.823  0.00  0.00    -0.156 N 
ATOM     23  O2  MOL d          20.787 -15.803   5.531  0.00  0.00    -0.537 OA
ATOM     24  O1  MOL d          20.067 -14.964   7.525  0.00  0.00    -0.537 OA
ENDBRANCH  19  22
ENDBRANCH  16  19
ENDBRANCH  13  16
ENDBRANCH   1  13
TORSDOF 7
ENDMDL
MODEL 2
REMARK VINA RESULT:      -4.9      1.306      4.944
REMARK  7 active torsions:
REMARK  status: ('A' for Active; 'I' for Inactive)
REMARK    1  A    between atoms: CE_10  and  N1_1 
REMARK    2  A    between atoms: CA_3  and  N_2 
REMARK    3  A    between atoms: CA_3  and  C_4 
REMARK    4  A    between atoms: CB_7  and  CA_3 
REMARK    5  A    between atoms: CG_8  and  CB_7 
REMARK    6  A    between atoms: CD_9  and  CG_8 
REMARK    7  A    between atoms: CD_9  and  CE_10 
ROOT
ATOM      1  CB  MOL d          22.192 -16.823   8.314  0.00  0.00    -0.029 C 
ATOM      2  H5  MOL d          23.054 -17.506   8.297  0.00  0.00     0.036 H 
ATOM      3  H6  MOL d          21.670 -16.915   9.278  0.00  0.00     0.036 H 
ENDROOT
BRANCH   1   4
ATOM      4  CA  MOL d          21.218 -17.224   7.183  0.00  0.00     0.182 C 
ATOM      5  H4  MOL d          20.447 -17.886   7.605  0.00  0.00     0.101 H 
BRANCH   4   6
ATOM      6  N   MOL d          21.967 -17.965   6.132  0.00  0.00    -0.065 N 
ATOM      7  H1  MOL d          21.849 -17.500   5.245  0.00  0.00     0.275 HD
ATOM      8  H2  MOL d          21.612 -18.906   6.068  0.00  0.00     0.275 HD
ATOM      9  H3  MOL d          22.945 -17.990   6.372  0.00  0.00     0.275 HD
ENDBRANCH   4   6
BRANCH   4  10
ATOM     10  C   MOL d          20.518 -16.000   6.562  0.00  0.00     0.204 C 
ATOM     11  OXT MOL d          19.660 -15.355   7.236  0.00  0.00    -0.646 OA
ATOM     12  O   MOL d          20.800 -15.639   5.380  0.00  0.00    -0.646 OA
ENDBRANCH   4  10
ENDBRANCH   1   4
BRANCH   1  13
ATOM     13  CG  MOL d          22.700 -15.389   8.165  0.00  0.00    -0.061 C 
ATOM     14  H7  MOL d          22.708 -14.901   9.151  0.00  0.00     0.033 H 
ATOM     15  H8  MOL d          22.033 -14.835   7.488  0.00  0.00     0.033 H 
BRANCH  13  16
ATOM     16  CD  MOL d          24.104 -15.393   7.595  0.00  0.00    -0.044 C 
ATOM     17  H9  MOL d          24.199 -16.184   6.836  0.00  0.00     0.035 H 
ATOM     18  H10 MOL d          24.836 -15.565   8.398  0.00  0.00     0.035 H 
BRANCH  16  19
ATOM     19  CE  MOL d          24.339 -14.032   6.960  0.00  0.00     0.054 C 
ATOM     20  H11 MOL d          24.176 -14.120   5.876  0.00  0.00     0.073 H 
ATOM     21  H12 MOL d          23.615 -13.320   7.384  0.00  0.00     0.073 H 
BRANCH  19  22
ATOM     22  N1  MOL d          25.669 -13.519   7.183  0.00  0.00    -0.156 N 
ATOM     23  O2  MOL d          25.930 -12.265   6.864  0.00  0.00    -0.537 OA
ATOM     24  O1  MOL d          26.630 -14.286   7.653  0.00  0.00    -0.537 OA
ENDBRANCH  19  22
ENDBRANCH  16  19
ENDBRANCH  13  16
ENDBRANCH   1  13
TORSDOF 7
ENDMDL
MODEL 3
REMARK VINA RESULT:      -4.0      1.826      1.994
REMARK  7 active torsions:
REMARK  status: ('A' for Active; 'I' for Inactive)
REMARK    1  A    between atoms: CE_10  and  N1_1 
REMARK    2  A    between atoms: CA_3  and  N_2 
REMARK    3  A    between atoms: CA_3  and  C_4 
REMARK    4  A    between atoms: CB_7  and  CA_3 
REMARK    5  A    between atoms: CG_8  and  CB_7 
REMARK    6  A    between atoms: CD_9  and  CG_8 
REMARK    7  A    between atoms: CD_9  and  CE_10 
ROOT
ATOM      1  CB  MOL d          23.350 -16.455   8.774  0.00  0.00    -0.029 C 
ATOM      2  H5  MOL d          22.727 -15.642   9.174  0.00  0.00     0.036 H 
ATOM      3  H6  MOL d          23.983 -16.862   9.577  0.00  0.00     0.036 H 
ENDROOT
BRANCH   1   4
ATOM      4  CA  MOL d          24.262 -15.883   7.665  0.00  0.00     0.182 C 
ATOM      5  H4  MOL d          24.836 -16.711   7.224  0.00  0.00     0.101 H 
BRANCH   4   6
ATOM      6  N   MOL d          25.210 -14.907   8.267  0.00  0.00    -0.065 N 
ATOM      7  H1  MOL d          25.257 -15.055   9.263  0.00  0.00     0.275 HD
ATOM      8  H2  MOL d          24.889 -13.969   8.082  0.00  0.00     0.275 HD
ATOM      9  H3  MOL d          26.125 -15.035   7.865  0.00  0.00     0.275 HD
ENDBRANCH   4   6
BRANCH   4  10
ATOM     10  C   MOL d          23.453 -15.204   6.543  0.00  0.00     0.204 C 
ATOM     11  OXT MOL d          23.180 -15.846   5.486  0.00  0.00    -0.646 OA
ATOM     12  O   MOL d          23.061 -14.006   6.679  0.00  0.00    -0.646 OA
ENDBRANCH   4  10
ENDBRANCH   1   4
BRANCH   1  13
ATOM     13  CG  MOL d          22.434 -17.567   8.259  0.00  0.00    -0.061 C 
ATOM     14  H7  MOL d          22.815 -18.540   8.602  0.00  0.00     0.033 H 
ATOM     15  H8  MOL d          22.417 -17.545   7.160  0.00  0.00     0.033 H 
BRANCH  13  16
ATOM     16  CD  MOL d          21.028 -17.364   8.787  0.00  0.00    -0.044 C 
ATOM     17  H9  MOL d          20.998 -16.490   9.454  0.00  0.00     0.035 H 
ATOM     18  H10 MOL d          20.700 -18.257   9.339  0.00  0.00     0.035 H 
BRANCH  16  19
ATOM     19  CE  MOL d          20.123 -17.133   7.587  0.00  0.00     0.054 C 
ATOM     20  H11 MOL d          20.467 -17.776   6.763  0.00  0.00     0.073 H 
ATOM     21  H12 MOL d          19.096 -17.411   7.866  0.00  0.00     0.073 H 
BRANCH  19  22
ATOM     22  N1  MOL d          20.118 -15.765   7.128  0.00  0.00    -0.156 N 
ATOM     23  O2  MOL d          20.070 -15.528   5.831  0.00  0.00    -0.537 OA
ATOM     24  O1  MOL d          20.206 -14.759   7.972  0.00  0.00    -0.537 OA
ENDBRANCH  19  22
ENDBRANCH  16  19
ENDBRANCH  13  16
ENDBRANCH   1  13
TORSDOF 7
ENDMDL
MODEL 4
REMARK VINA RESULT:      -2.6      1.976      5.158
REMARK  7 active torsions:
REMARK  status: ('A' for Active; 'I' for Inactive)
REMARK    1  A    between atoms: CE_10  and  N1_1 
REMARK    2  A    between atoms: CA_3  and  N_2 
REMARK    3  A    between atoms: CA_3  and  C_4 
REMARK    4  A    between atoms: CB_7  and  CA_3 
REMARK    5  A    between atoms: CG_8  and  CB_7 
REMARK    6  A    between atoms: CD_9  and  CG_8 
REMARK    7  A    between atoms: CD_9  and  CE_10 
ROOT
ATOM      1  CB  MOL d          22.698 -15.599   6.337  0.00  0.00    -0.029 C 
ATOM      2  H5  MOL d          22.375 -14.618   5.958  0.00  0.00     0.036 H 
ATOM      3  H6  MOL d          23.576 -15.940   5.768  0.00  0.00     0.036 H 
ENDROOT
BRANCH   1   4
ATOM      4  CA  MOL d          21.550 -16.613   6.134  0.00  0.00     0.182 C 
ATOM      5  H4  MOL d          21.547 -16.930   5.080  0.00  0.00     0.101 H 
BRANCH   4   6
ATOM      6  N   MOL d          20.253 -15.952   6.442  0.00  0.00    -0.065 N 
ATOM      7  H1  MOL d          19.494 -16.542   6.136  0.00  0.00     0.275 HD
ATOM      8  H2  MOL d          20.205 -15.067   5.961  0.00  0.00     0.275 HD
ATOM      9  H3  MOL d          20.182 -15.800   7.435  0.00  0.00     0.275 HD
ENDBRANCH   4   6
BRANCH   4  10
ATOM     10  C   MOL d          21.721 -17.865   7.015  0.00  0.00     0.204 C 
ATOM     11  OXT MOL d          22.754 -18.589   6.889  0.00  0.00    -0.646 OA
ATOM     12  O   MOL d          20.832 -18.169   7.866  0.00  0.00    -0.646 OA
ENDBRANCH   4  10
ENDBRANCH   1   4
BRANCH   1  13
ATOM     13  CG  MOL d          23.092 -15.451   7.807  0.00  0.00    -0.061 C 
ATOM     14  H7  MOL d          22.810 -16.363   8.353  0.00  0.00     0.033 H 
ATOM     15  H8  MOL d          22.567 -14.587   8.240  0.00  0.00     0.033 H 
BRANCH  13  16
ATOM     16  CD  MOL d          24.589 -15.239   7.923  0.00  0.00    -0.044 C 
ATOM     17  H9  MOL d          25.118 -16.184   7.737  0.00  0.00     0.035 H 
ATOM     18  H10 MOL d          24.840 -14.869   8.928  0.00  0.00     0.035 H 
BRANCH  16  19
ATOM     19  CE  MOL d          24.981 -14.208   6.877  0.00  0.00     0.054 C 
ATOM     20  H11 MOL d          25.294 -14.739   5.965  0.00  0.00     0.073 H 
ATOM     21  H12 MOL d          24.103 -13.584   6.656  0.00  0.00     0.073 H 
BRANCH  19  22
ATOM     22  N1  MOL d          26.060 -13.348   7.298  0.00  0.00    -0.156 N 
ATOM     23  O2  MOL d          26.774 -13.691   8.353  0.00  0.00    -0.537 OA
ATOM     24  O1  MOL d          26.313 -12.214   6.680  0.00  0.00    -0.537 OA
ENDBRANCH  19  22
ENDBRANCH  16  19
ENDBRANCH  13  16
ENDBRANCH   1  13
TORSDOF 7
ENDMDL
MODEL 5
REMARK VINA RESULT:      -2.5      2.042      2.539
REMARK  7 active torsions:
REMARK  status: ('A' for Active; 'I' for Inactive)
REMARK    1  A    between atoms: CE_10  and  N1_1 
REMARK    2  A    between atoms: CA_3  and  N_2 
REMARK    3  A    between atoms: CA_3  and  C_4 
REMARK    4  A    between atoms: CB_7  and  CA_3 
REMARK    5  A    between atoms: CG_8  and  CB_7 
REMARK    6  A    between atoms: CD_9  and  CG_8 
REMARK    7  A    between atoms: CD_9  and  CE_10 
ROOT
ATOM      1  CB  MOL d          23.931 -16.023   8.787  0.00  0.00    -0.029 C 
ATOM      2  H5  MOL d          23.631 -15.134   9.363  0.00  0.00     0.036 H 
ATOM      3  H6  MOL d          24.708 -16.573   9.339  0.00  0.00     0.036 H 
ENDROOT
BRANCH   1   4
ATOM      4  CA  MOL d          24.517 -15.563   7.433  0.00  0.00     0.182 C 
ATOM      5  H4  MOL d          24.941 -16.439   6.921  0.00  0.00     0.101 H 
BRANCH   4   6
ATOM      6  N   MOL d          25.604 -14.577   7.680  0.00  0.00    -0.065 N 
ATOM      7  H1  MOL d          26.422 -14.839   7.152  0.00  0.00     0.275 HD
ATOM      8  H2  MOL d          25.829 -14.565   8.663  0.00  0.00     0.275 HD
ATOM      9  H3  MOL d          25.298 -13.661   7.394  0.00  0.00     0.275 HD
ENDBRANCH   4   6
BRANCH   4  10
ATOM     10  C   MOL d          23.444 -14.940   6.519  0.00  0.00     0.204 C 
ATOM     11  OXT MOL d          22.997 -13.782   6.772  0.00  0.00    -0.646 OA
ATOM     12  O   MOL d          23.012 -15.585   5.517  0.00  0.00    -0.646 OA
ENDBRANCH   4  10
ENDBRANCH   1   4
BRANCH   1  13
ATOM     13  CG  MOL d          22.713 -16.931   8.617  0.00  0.00    -0.061 C 
ATOM     14  H7  MOL d          21.898 -16.362   8.144  0.00  0.00     0.033 H 
ATOM     15  H8  MOL d          22.385 -17.290   9.603  0.00  0.00     0.033 H 
BRANCH  13  16
ATOM     16  CD  MOL d          23.069 -18.117   7.743  0.00  0.00    -0.044 C 
ATOM     17  H9  MOL d          23.482 -18.928   8.361  0.00  0.00     0.035 H 
ATOM     18  H10 MOL d          23.810 -17.818   6.987  0.00  0.00     0.035 H 
BRANCH  16  19
ATOM     19  CE  MOL d          21.791 -18.580   7.064  0.00  0.00     0.054 C 
ATOM     20  H11 MOL d          21.860 -18.344   5.992  0.00  0.00     0.073 H 
ATOM     21  H12 MOL d          21.700 -19.668   7.196  0.00  0.00     0.073 H 
BRANCH  19  22
ATOM     22  N1  MOL d          20.603 -17.955   7.594  0.00  0.00    -0.156 N 
ATOM     23  O2  MOL d          19.964 -18.541   8.589  0.00  0.00    -0.537 OA
ATOM     24  O1  MOL d          20.124 -16.844   7.076  0.00  0.00    -0.537 OA
ENDBRANCH  19  22
ENDBRANCH  16  19
ENDBRANCH  13  16
ENDBRANCH   1  13
TORSDOF 7
ENDMDL
MODEL 6
REMARK VINA RESULT:      -2.2      2.773      3.652
REMARK  7 active torsions:
REMARK  status: ('A' for Active; 'I' for Inactive)
REMARK    1  A    between atoms: CE_10  and  N1_1 
REMARK    2  A    between atoms: CA_3  and  N_2 
REMARK    3  A    between atoms: CA_3  and  C_4 
REMARK    4  A    between atoms: CB_7  and  CA_3 
REMARK    5  A    between atoms: CG_8  and  CB_7 
REMARK    6  A    between atoms: CD_9  and  CG_8 
REMARK    7  A    between atoms: CD_9  and  CE_10 
ROOT
ATOM      1  CB  MOL d          22.684 -15.569   8.473  0.00  0.00    -0.029 C 
ATOM      2  H5  MOL d          22.119 -16.302   9.068  0.00  0.00     0.036 H 
ATOM      3  H6  MOL d          23.245 -14.904   9.147  0.00  0.00     0.036 H 
ENDROOT
BRANCH   1   4
ATOM      4  CA  MOL d          21.685 -14.718   7.656  0.00  0.00     0.182 C 
ATOM      5  H4  MOL d          22.136 -13.731   7.474  0.00  0.00     0.101 H 
BRANCH   4   6
ATOM      6  N   MOL d          20.436 -14.539   8.443  0.00  0.00    -0.065 N 
ATOM      7  H1  MOL d          19.641 -14.565   7.823  0.00  0.00     0.275 HD
ATOM      8  H2  MOL d          20.462 -13.651   8.918  0.00  0.00     0.275 HD
ATOM      9  H3  MOL d          20.357 -15.282   9.121  0.00  0.00     0.275 HD
ENDBRANCH   4   6
BRANCH   4  10
ATOM     10  C   MOL d          21.359 -15.359   6.293  0.00  0.00     0.204 C 
ATOM     11  OXT MOL d          20.153 -15.584   5.976  0.00  0.00    -0.646 OA
ATOM     12  O   MOL d          22.294 -15.660   5.492  0.00  0.00    -0.646 OA
ENDBRANCH   4  10
ENDBRANCH   1   4
BRANCH   1  13
ATOM     13  CG  MOL d          23.676 -16.319   7.584  0.00  0.00    -0.061 C 
ATOM     14  H7  MOL d          24.663 -15.838   7.654  0.00  0.00     0.033 H 
ATOM     15  H8  MOL d          23.326 -16.288   6.542  0.00  0.00     0.033 H 
BRANCH  13  16
ATOM     16  CD  MOL d          23.787 -17.762   8.035  0.00  0.00    -0.044 C 
ATOM     17  H9  MOL d          24.656 -17.884   8.696  0.00  0.00     0.035 H 
ATOM     18  H10 MOL d          23.895 -18.422   7.161  0.00  0.00     0.035 H 
BRANCH  16  19
ATOM     19  CE  MOL d          22.510 -18.100   8.786  0.00  0.00     0.054 C 
ATOM     20  H11 MOL d          22.683 -19.013   9.375  0.00  0.00     0.073 H 
ATOM     21  H12 MOL d          22.272 -17.266   9.464  0.00  0.00     0.073 H 
BRANCH  19  22
ATOM     22  N1  MOL d          21.377 -18.322   7.920  0.00  0.00    -0.156 N 
ATOM     23  O2  MOL d          20.164 -18.301   8.440  0.00  0.00    -0.537 OA
ATOM     24  O1  MOL d          21.534 -18.588   6.641  0.00  0.00    -0.537 OA
ENDBRANCH  19  22
ENDBRANCH  16  19
ENDBRANCH  13  16
ENDBRANCH   1  13
TORSDOF 7
ENDMDL
