MODEL 1
REMARK VINA RESULT:      -7.3      0.000      0.000
REMARK  3 active torsions:
REMARK  status: ('A' for Active; 'I' for Inactive)
REMARK    1  A    between atoms: C2_2  and  C10_10 
REMARK    2  A    between atoms: C12_12  and  N15_15 
REMARK    3  A    between atoms: N13_13  and  C16_16 
ROOT
ATOM      1  C1  MOL d          -0.345  11.325  -6.331  0.00  0.00    -0.036 A 
ATOM      2  C2  MOL d          -0.806  10.121  -5.737  0.00  0.00    -0.003 A 
ATOM      3  C3  MOL d          -1.773  10.144  -4.680  0.00  0.00    -0.068 A 
ATOM      4  C4  MOL d          -2.319  11.329  -4.173  0.00  0.00    -0.047 A 
ATOM      5  C5  MOL d          -1.886  12.512  -4.738  0.00  0.00     0.105 A 
ATOM      6  C6  MOL d          -0.902  12.509  -5.842  0.00  0.00     0.105 A 
ATOM      7  O7  MOL d          -0.678  13.826  -6.178  0.00  0.00    -0.323 OA
ATOM      8  C8  MOL d          -1.586  14.663  -5.410  0.00  0.00     0.115 C 
ATOM      9  O9  MOL d          -2.214  13.816  -4.438  0.00  0.00    -0.323 OA
ATOM     10  H1  MOL d           0.398  11.326  -7.121  0.00  0.00     0.089 H 
ATOM     11  H2  MOL d          -2.096   9.201  -4.254  0.00  0.00     0.085 H 
ATOM     12  H3  MOL d          -3.049  11.318  -3.372  0.00  0.00     0.087 H 
ATOM     13  H4  MOL d          -2.345  15.104  -6.073  0.00  0.00     0.118 H 
ATOM     14  H5  MOL d          -1.026  15.465  -4.907  0.00  0.00     0.118 H 
ENDROOT
BRANCH   2  15
ATOM     15  C10 MOL d          -0.292   8.795  -6.196  0.00  0.00     0.091 A 
ATOM     16  C11 MOL d          -0.079   7.676  -5.369  0.00  0.00    -0.009 A 
ATOM     17  C12 MOL d           0.394   6.668  -6.208  0.00  0.00     0.119 A 
ATOM     18  H6  MOL d          -0.248   7.611  -4.295  0.00  0.00     0.093 H 
ATOM     19  N13 MOL d           0.466   7.097  -7.466  0.00  0.00    -0.258 N 
ATOM     20  N14 MOL d           0.048   8.449  -7.487  0.00  0.00    -0.171 NA
BRANCH  17  21
ATOM     21  N15 MOL d           0.734   5.392  -5.817  0.00  0.00    -0.384 N 
ATOM     22  H7  MOL d           0.030   4.785  -5.372  0.00  0.00     0.157 HD
ATOM     23  H8  MOL d           1.691   5.044  -5.971  0.00  0.00     0.157 HD
ENDBRANCH  17  21
BRANCH  19  24
ATOM     24  C16 MOL d           0.901   6.484  -8.759  0.00  0.00     0.004 C 
ATOM     25  H9  MOL d           0.075   6.533  -9.484  0.00  0.00     0.059 H 
ATOM     26  H10 MOL d           1.181   5.434  -8.592  0.00  0.00     0.059 H 
ATOM     27  H11 MOL d           1.767   7.036  -9.154  0.00  0.00     0.059 H 
ENDBRANCH  19  24
ENDBRANCH   2  15
TORSDOF 3
ENDMDL
MODEL 2
REMARK VINA RESULT:      -6.8      1.250      2.256
REMARK  3 active torsions:
REMARK  status: ('A' for Active; 'I' for Inactive)
REMARK    1  A    between atoms: C2_2  and  C10_10 
REMARK    2  A    between atoms: C12_12  and  N15_15 
REMARK    3  A    between atoms: N13_13  and  C16_16 
ROOT
ATOM      1  C1  MOL d          -1.429  10.833  -5.297  0.00  0.00    -0.036 A 
ATOM      2  C2  MOL d          -0.367  10.266  -6.051  0.00  0.00    -0.003 A 
ATOM      3  C3  MOL d           0.522  11.095  -6.809  0.00  0.00    -0.068 A 
ATOM      4  C4  MOL d           0.409  12.490  -6.856  0.00  0.00    -0.047 A 
ATOM      5  C5  MOL d          -0.615  13.062  -6.128  0.00  0.00     0.105 A 
ATOM      6  C6  MOL d          -1.533  12.226  -5.325  0.00  0.00     0.105 A 
ATOM      7  O7  MOL d          -2.432  13.082  -4.730  0.00  0.00    -0.323 OA
ATOM      8  C8  MOL d          -2.037  14.450  -5.025  0.00  0.00     0.115 C 
ATOM      9  O9  MOL d          -0.991  14.381  -6.003  0.00  0.00    -0.323 OA
ATOM     10  H1  MOL d          -2.120  10.218  -4.731  0.00  0.00     0.089 H 
ATOM     11  H2  MOL d           1.319  10.621  -7.371  0.00  0.00     0.085 H 
ATOM     12  H3  MOL d           1.096  13.094  -7.438  0.00  0.00     0.087 H 
ATOM     13  H4  MOL d          -1.669  14.942  -4.112  0.00  0.00     0.118 H 
ATOM     14  H5  MOL d          -2.893  15.012  -5.425  0.00  0.00     0.118 H 
ENDROOT
BRANCH   2  15
ATOM     15  C10 MOL d          -0.150   8.788  -6.077  0.00  0.00     0.091 A 
ATOM     16  C11 MOL d          -0.288   7.967  -7.211  0.00  0.00    -0.009 A 
ATOM     17  C12 MOL d           0.012   6.674  -6.784  0.00  0.00     0.119 A 
ATOM     18  H6  MOL d          -0.572   8.277  -8.216  0.00  0.00     0.093 H 
ATOM     19  N13 MOL d           0.329   6.667  -5.491  0.00  0.00    -0.258 N 
ATOM     20  N14 MOL d           0.222   7.995  -5.012  0.00  0.00    -0.171 NA
BRANCH  17  21
ATOM     21  N15 MOL d           0.004   5.545  -7.573  0.00  0.00    -0.384 N 
ATOM     22  H7  MOL d           0.656   4.773  -7.374  0.00  0.00     0.157 HD
ATOM     23  H8  MOL d          -0.655   5.473  -8.361  0.00  0.00     0.157 HD
ENDBRANCH  17  21
BRANCH  19  24
ATOM     24  C16 MOL d           0.715   5.604  -4.512  0.00  0.00     0.004 C 
ATOM     25  H9  MOL d           1.624   5.913  -3.975  0.00  0.00     0.059 H 
ATOM     26  H10 MOL d           0.907   4.664  -5.048  0.00  0.00     0.059 H 
ATOM     27  H11 MOL d          -0.103   5.455  -3.791  0.00  0.00     0.059 H 
ENDBRANCH  19  24
ENDBRANCH   2  15
TORSDOF 3
ENDMDL
MODEL 3
REMARK VINA RESULT:      -6.2      3.897      6.185
REMARK  3 active torsions:
REMARK  status: ('A' for Active; 'I' for Inactive)
REMARK    1  A    between atoms: C2_2  and  C10_10 
REMARK    2  A    between atoms: C12_12  and  N15_15 
REMARK    3  A    between atoms: N13_13  and  C16_16 
ROOT
ATOM      1  C1  MOL d          -0.177   8.668  -6.702  0.00  0.00    -0.036 A 
ATOM      2  C2  MOL d          -0.163  10.086  -6.780  0.00  0.00    -0.003 A 
ATOM      3  C3  MOL d           0.594  10.762  -7.791  0.00  0.00    -0.068 A 
ATOM      4  C4  MOL d           1.354  10.085  -8.753  0.00  0.00    -0.047 A 
ATOM      5  C5  MOL d           1.353   8.706  -8.698  0.00  0.00     0.105 A 
ATOM      6  C6  MOL d           0.564   7.989  -7.672  0.00  0.00     0.105 A 
ATOM      7  O7  MOL d           0.773   6.644  -7.880  0.00  0.00    -0.323 OA
ATOM      8  C8  MOL d           1.568   6.476  -9.085  0.00  0.00     0.115 C 
ATOM      9  O9  MOL d           2.015   7.781  -9.476  0.00  0.00    -0.323 OA
ATOM     10  H1  MOL d          -0.732   8.143  -5.934  0.00  0.00     0.089 H 
ATOM     11  H2  MOL d           0.577  11.845  -7.813  0.00  0.00     0.085 H 
ATOM     12  H3  MOL d           1.918  10.621  -9.508  0.00  0.00     0.087 H 
ATOM     13  H4  MOL d           0.955   6.033  -9.884  0.00  0.00     0.118 H 
ATOM     14  H5  MOL d           2.431   5.826  -8.881  0.00  0.00     0.118 H 
ENDROOT
BRANCH   2  15
ATOM     15  C10 MOL d          -0.937  10.914  -5.805  0.00  0.00     0.091 A 
ATOM     16  C11 MOL d          -1.698  10.408  -4.735  0.00  0.00    -0.009 A 
ATOM     17  C12 MOL d          -2.236  11.522  -4.091  0.00  0.00     0.119 A 
ATOM     18  H6  MOL d          -1.839   9.362  -4.466  0.00  0.00     0.093 H 
ATOM     19  N13 MOL d          -1.844  12.646  -4.687  0.00  0.00    -0.258 N 
ATOM     20  N14 MOL d          -1.027  12.289  -5.787  0.00  0.00    -0.171 NA
BRANCH  17  21
ATOM     21  N15 MOL d          -3.052  11.492  -2.982  0.00  0.00    -0.384 N 
ATOM     22  H7  MOL d          -3.847  12.142  -2.910  0.00  0.00     0.157 HD
ATOM     23  H8  MOL d          -2.867  10.818  -2.224  0.00  0.00     0.157 HD
ENDBRANCH  17  21
BRANCH  19  24
ATOM     24  C16 MOL d          -2.105  14.100  -4.458  0.00  0.00     0.004 C 
ATOM     25  H9  MOL d          -1.599  14.690  -5.236  0.00  0.00     0.059 H 
ATOM     26  H10 MOL d          -1.720  14.391  -3.469  0.00  0.00     0.059 H 
ATOM     27  H11 MOL d          -3.188  14.289  -4.500  0.00  0.00     0.059 H 
ENDBRANCH  19  24
ENDBRANCH   2  15
TORSDOF 3
ENDMDL
MODEL 4
REMARK VINA RESULT:      -5.8      3.620      6.181
REMARK  3 active torsions:
REMARK  status: ('A' for Active; 'I' for Inactive)
REMARK    1  A    between atoms: C2_2  and  C10_10 
REMARK    2  A    between atoms: C12_12  and  N15_15 
REMARK    3  A    between atoms: N13_13  and  C16_16 
ROOT
ATOM      1  C1  MOL d           0.143   9.327  -7.563  0.00  0.00    -0.036 A 
ATOM      2  C2  MOL d          -0.367   9.096  -6.258  0.00  0.00    -0.003 A 
ATOM      3  C3  MOL d          -0.202   7.826  -5.616  0.00  0.00    -0.068 A 
ATOM      4  C4  MOL d           0.461   6.749  -6.218  0.00  0.00    -0.047 A 
ATOM      5  C5  MOL d           0.967   6.953  -7.487  0.00  0.00     0.105 A 
ATOM      6  C6  MOL d           0.822   8.262  -8.159  0.00  0.00     0.105 A 
ATOM      7  O7  MOL d           1.420   8.142  -9.393  0.00  0.00    -0.323 OA
ATOM      8  C8  MOL d           2.055   6.837  -9.479  0.00  0.00     0.115 C 
ATOM      9  O9  MOL d           1.630   6.090  -8.331  0.00  0.00    -0.323 OA
ATOM     10  H1  MOL d           0.012  10.278  -8.068  0.00  0.00     0.089 H 
ATOM     11  H2  MOL d          -0.608   7.692  -4.620  0.00  0.00     0.085 H 
ATOM     12  H3  MOL d           0.572   5.798  -5.710  0.00  0.00     0.087 H 
ATOM     13  H4  MOL d           3.150   6.948  -9.473  0.00  0.00     0.118 H 
ATOM     14  H5  MOL d           1.743   6.325 -10.400  0.00  0.00     0.118 H 
ENDROOT
BRANCH   2  15
ATOM     15  C10 MOL d          -1.094  10.172  -5.518  0.00  0.00     0.091 A 
ATOM     16  C11 MOL d          -1.187  11.516  -5.925  0.00  0.00    -0.009 A 
ATOM     17  C12 MOL d          -1.954  12.156  -4.951  0.00  0.00     0.119 A 
ATOM     18  H6  MOL d          -0.752  11.964  -6.816  0.00  0.00     0.093 H 
ATOM     19  N13 MOL d          -2.330  11.295  -4.007  0.00  0.00    -0.258 N 
ATOM     20  N14 MOL d          -1.788  10.029  -4.335  0.00  0.00    -0.171 NA
BRANCH  17  21
ATOM     21  N15 MOL d          -2.299  13.488  -4.949  0.00  0.00    -0.384 N 
ATOM     22  H7  MOL d          -3.180  13.793  -5.387  0.00  0.00     0.157 HD
ATOM     23  H8  MOL d          -1.677  14.181  -4.508  0.00  0.00     0.157 HD
ENDBRANCH  17  21
BRANCH  19  24
ATOM     24  C16 MOL d          -3.127  11.404  -2.747  0.00  0.00     0.004 C 
ATOM     25  H9  MOL d          -3.296  12.465  -2.510  0.00  0.00     0.059 H 
ATOM     26  H10 MOL d          -2.577  10.928  -1.922  0.00  0.00     0.059 H 
ATOM     27  H11 MOL d          -4.096  10.900  -2.880  0.00  0.00     0.059 H 
ENDBRANCH  19  24
ENDBRANCH   2  15
TORSDOF 3
ENDMDL
MODEL 5
REMARK VINA RESULT:      -5.1      3.801      6.446
REMARK  3 active torsions:
REMARK  status: ('A' for Active; 'I' for Inactive)
REMARK    1  A    between atoms: C2_2  and  C10_10 
REMARK    2  A    between atoms: C12_12  and  N15_15 
REMARK    3  A    between atoms: N13_13  and  C16_16 
ROOT
ATOM      1  C1  MOL d          -0.182   8.958  -6.666  0.00  0.00    -0.036 A 
ATOM      2  C2  MOL d          -0.245  10.323  -7.052  0.00  0.00    -0.003 A 
ATOM      3  C3  MOL d           0.333  10.768  -8.285  0.00  0.00    -0.068 A 
ATOM      4  C4  MOL d           0.985   9.906  -9.175  0.00  0.00    -0.047 A 
ATOM      5  C5  MOL d           1.057   8.574  -8.821  0.00  0.00     0.105 A 
ATOM      6  C6  MOL d           0.451   8.091  -7.561  0.00  0.00     0.105 A 
ATOM      7  O7  MOL d           0.693   6.737  -7.498  0.00  0.00    -0.323 OA
ATOM      8  C8  MOL d           1.322   6.318  -8.739  0.00  0.00     0.115 C 
ATOM      9  O9  MOL d           1.649   7.510  -9.465  0.00  0.00    -0.323 OA
ATOM     10  H1  MOL d          -0.601   8.608  -5.730  0.00  0.00     0.089 H 
ATOM     11  H2  MOL d           0.263  11.819  -8.540  0.00  0.00     0.085 H 
ATOM     12  H3  MOL d           1.415  10.269 -10.102  0.00  0.00     0.087 H 
ATOM     13  H4  MOL d           0.627   5.698  -9.325  0.00  0.00     0.118 H 
ATOM     14  H5  MOL d           2.235   5.743  -8.525  0.00  0.00     0.118 H 
ENDROOT
BRANCH   2  15
ATOM     15  C10 MOL d          -0.916  11.334  -6.180  0.00  0.00     0.091 A 
ATOM     16  C11 MOL d          -1.119  12.686  -6.514  0.00  0.00    -0.009 A 
ATOM     17  C12 MOL d          -1.780  13.252  -5.424  0.00  0.00     0.119 A 
ATOM     18  H6  MOL d          -0.821  13.188  -7.434  0.00  0.00     0.093 H 
ATOM     19  N13 MOL d          -1.995  12.340  -4.478  0.00  0.00    -0.258 N 
ATOM     20  N14 MOL d          -1.445  11.114  -4.926  0.00  0.00    -0.171 NA
BRANCH  17  21
ATOM     21  N15 MOL d          -2.179  14.566  -5.321  0.00  0.00    -0.384 N 
ATOM     22  H7  MOL d          -1.947  15.110  -4.477  0.00  0.00     0.157 HD
ATOM     23  H8  MOL d          -2.710  15.005  -6.087  0.00  0.00     0.157 HD
ENDBRANCH  17  21
BRANCH  19  24
ATOM     24  C16 MOL d          -2.627  12.363  -3.123  0.00  0.00     0.004 C 
ATOM     25  H9  MOL d          -2.145  13.137  -2.507  0.00  0.00     0.059 H 
ATOM     26  H10 MOL d          -2.502  11.382  -2.643  0.00  0.00     0.059 H 
ATOM     27  H11 MOL d          -3.699  12.590  -3.222  0.00  0.00     0.059 H 
ENDBRANCH  19  24
ENDBRANCH   2  15
TORSDOF 3
ENDMDL
MODEL 6
REMARK VINA RESULT:      -4.4      3.844      6.500
REMARK  3 active torsions:
REMARK  status: ('A' for Active; 'I' for Inactive)
REMARK    1  A    between atoms: C2_2  and  C10_10 
REMARK    2  A    between atoms: C12_12  and  N15_15 
REMARK    3  A    between atoms: N13_13  and  C16_16 
ROOT
ATOM      1  C1  MOL d          -0.515   9.328  -5.724  0.00  0.00    -0.036 A 
ATOM      2  C2  MOL d          -0.508  10.463  -6.578  0.00  0.00    -0.003 A 
ATOM      3  C3  MOL d           0.049  10.390  -7.896  0.00  0.00    -0.068 A 
ATOM      4  C4  MOL d           0.610   9.221  -8.422  0.00  0.00    -0.047 A 
ATOM      5  C5  MOL d           0.611   8.104  -7.610  0.00  0.00     0.105 A 
ATOM      6  C6  MOL d           0.025   8.153  -6.252  0.00  0.00     0.105 A 
ATOM      7  O7  MOL d           0.183   6.899  -5.706  0.00  0.00    -0.323 OA
ATOM      8  C8  MOL d           0.735   6.016  -6.720  0.00  0.00     0.115 C 
ATOM      9  O9  MOL d           1.109   6.839  -7.833  0.00  0.00    -0.323 OA
ATOM     10  H1  MOL d          -0.919   9.371  -4.719  0.00  0.00     0.089 H 
ATOM     11  H2  MOL d           0.035  11.281  -8.513  0.00  0.00     0.085 H 
ATOM     12  H3  MOL d           1.025   9.193  -9.423  0.00  0.00     0.087 H 
ATOM     13  H4  MOL d          -0.020   5.279  -7.032  0.00  0.00     0.118 H 
ATOM     14  H5  MOL d           1.618   5.492  -6.325  0.00  0.00     0.118 H 
ENDROOT
BRANCH   2  15
ATOM     15  C10 MOL d          -1.078  11.767  -6.122  0.00  0.00     0.091 A 
ATOM     16  C11 MOL d          -1.725  12.703  -6.950  0.00  0.00    -0.009 A 
ATOM     17  C12 MOL d          -2.098  13.757  -6.115  0.00  0.00     0.119 A 
ATOM     18  H6  MOL d          -1.900  12.622  -8.022  0.00  0.00     0.093 H 
ATOM     19  N13 MOL d          -1.733  13.512  -4.858  0.00  0.00    -0.258 N 
ATOM     20  N14 MOL d          -1.072  12.260  -4.835  0.00  0.00    -0.171 NA
BRANCH  17  21
ATOM     21  N15 MOL d          -2.763  14.896  -6.508  0.00  0.00    -0.384 N 
ATOM     22  H7  MOL d          -3.773  14.860  -6.707  0.00  0.00     0.157 HD
ATOM     23  H8  MOL d          -2.251  15.785  -6.603  0.00  0.00     0.157 HD
ENDBRANCH  17  21
BRANCH  19  24
ATOM     24  C16 MOL d          -1.848  14.261  -3.569  0.00  0.00     0.004 C 
ATOM     25  H9  MOL d          -2.223  15.276  -3.767  0.00  0.00     0.059 H 
ATOM     26  H10 MOL d          -0.859  14.323  -3.091  0.00  0.00     0.059 H 
ATOM     27  H11 MOL d          -2.546  13.736  -2.901  0.00  0.00     0.059 H 
ENDBRANCH  19  24
ENDBRANCH   2  15
TORSDOF 3
ENDMDL
