MODEL 1
REMARK VINA RESULT:     -10.2      0.000      0.000
REMARK  17 active torsions:
REMARK  status: ('A' for Active; 'I' for Inactive)
REMARK    1  A    between atoms: C1_2  and  C2_4 
REMARK       I    between atoms: N2_13  and  C1_2 
REMARK    2  A    between atoms: C11_14  and  N2_13 
REMARK    3  A    between atoms: C12_15  and  C11_14 
REMARK    4  A    between atoms: C11_14  and  C13_17 
REMARK       I    between atoms: N4_24  and  C12_15 
REMARK    5  A    between atoms: C13_17  and  C14_18 
REMARK       I    between atoms: C14_18  and  N3_20 
REMARK    6  A    between atoms: C15_21  and  O4_22 
REMARK    7  A    between atoms: C16_23  and  C15_21 
REMARK    8  A    between atoms: C15_21  and  C24_33 
REMARK    9  A    between atoms: C16_23  and  N4_24 
REMARK   10  A    between atoms: C16_23  and  C17_25 
REMARK   11  A    between atoms: C17_25  and  C18_26 
REMARK   12  A    between atoms: C24_33  and  N5_32 
REMARK   13  A    between atoms: C25_34  and  C26_35 
REMARK       I    between atoms: C26_35  and  N6_45 
REMARK   14  A    between atoms: N6_45  and  C35_46 
REMARK   15  A    between atoms: C35_46  and  C36_47 
REMARK   16  A    between atoms: C35_46  and  C37_48 
REMARK   17  A    between atoms: C35_46  and  C38_49 
ROOT
ATOM      1  C15 ROC d          15.801  23.814  16.830  0.00  0.00     0.078 C 
ATOM      2  H13 ROC d          14.833  23.332  17.027  0.00  0.00     0.088 H 
ENDROOT
BRANCH   1   3
ATOM      3  O4  ROC d          15.898  24.951  17.679  0.00  0.00    -0.392 OA
ATOM      4  H14 ROC d          15.617  25.724  17.205  0.00  0.00     0.210 HD
ENDBRANCH   1   3
BRANCH   1   5
ATOM      5  C16 ROC d          15.803  24.243  15.358  0.00  0.00     0.042 C 
ATOM      6  H15 ROC d          14.806  24.632  15.102  0.00  0.00     0.077 H 
BRANCH   5   7
ATOM      7  N4  ROC d          16.813  25.298  15.185  0.00  0.00    -0.352 N 
ATOM      8  C12 ROC d          18.117  25.033  15.210  0.00  0.00     0.241 C 
ATOM      9  O2  ROC d          18.661  23.921  15.394  0.00  0.00    -0.271 OA
ATOM     10  H16 ROC d          16.512  26.241  15.045  0.00  0.00     0.163 HD
BRANCH   8  11
ATOM     11  C11 ROC d          19.042  26.232  15.016  0.00  0.00     0.097 C 
ATOM     12  H8  ROC d          18.451  27.156  15.100  0.00  0.00     0.088 H 
BRANCH  11  13
ATOM     13  N2  ROC d          20.003  26.212  16.074  0.00  0.00    -0.342 N 
ATOM     14  C1  ROC d          20.703  27.293  16.471  0.00  0.00     0.271 C 
ATOM     15  O1  ROC d          20.679  28.387  15.874  0.00  0.00    -0.266 OA
ATOM     16  H7  ROC d          20.164  25.346  16.547  0.00  0.00     0.163 HD
BRANCH  14  17
ATOM     17  C2  ROC d          21.504  27.019  17.681  0.00  0.00     0.125 C 
ATOM     18  N1  ROC d          20.968  27.208  18.911  0.00  0.00    -0.243 NA
ATOM     19  C10 ROC d          21.679  26.979  20.045  0.00  0.00     0.068 A 
ATOM     20  C5  ROC d          22.996  26.523  19.950  0.00  0.00    -0.007 A 
ATOM     21  C9R ROC d          21.116  27.144  21.316  0.00  0.00    -0.054 A 
ATOM     22  C4  ROC d          23.556  26.355  18.692  0.00  0.00    -0.068 C 
ATOM     23  C6  ROC d          23.712  26.338  21.115  0.00  0.00    -0.071 A 
ATOM     24  C3  ROC d          22.812  26.515  17.516  0.00  0.00    -0.049 C 
ATOM     25  H2  ROC d          24.605  26.091  18.616  0.00  0.00     0.085 H 
ATOM     26  H1  ROC d          23.216  26.268  16.541  0.00  0.00     0.087 H 
ATOM     27  C7  ROC d          23.151  26.472  22.367  0.00  0.00    -0.082 A 
ATOM     28  H3  ROC d          24.762  26.075  21.042  0.00  0.00     0.084 H 
ATOM     29  C8  ROC d          21.863  26.940  22.425  0.00  0.00    -0.081 A 
ATOM     30  H4  ROC d          23.702  26.219  23.265  0.00  0.00     0.083 H 
ATOM     31  H5  ROC d          21.429  27.153  23.394  0.00  0.00     0.083 H 
ATOM     32  H6  ROC d          20.076  27.435  21.412  0.00  0.00     0.087 H 
ENDBRANCH  14  17
ENDBRANCH  11  13
BRANCH  11  33
ATOM     33  C13 ROC d          19.659  26.204  13.640  0.00  0.00     0.036 C 
ATOM     34  H9  ROC d          19.661  27.216  13.207  0.00  0.00     0.051 H 
ATOM     35  H10 ROC d          19.091  25.527  12.985  0.00  0.00     0.051 H 
BRANCH  33  36
ATOM     36  C14 ROC d          21.037  25.718  13.790  0.00  0.00     0.217 C 
ATOM     37  O3  ROC d          22.077  26.357  14.001  0.00  0.00    -0.274 OA
ATOM     38  N3  ROC d          21.206  24.462  13.657  0.00  0.00    -0.370 N 
ATOM     39  H11 ROC d          22.121  24.069  13.748  0.00  0.00     0.159 HD
ATOM     40  H12 ROC d          20.425  23.870  13.461  0.00  0.00     0.159 HD
ENDBRANCH  33  36
ENDBRANCH  11  33
ENDBRANCH   8  11
ENDBRANCH   5   7
BRANCH   5  41
ATOM     41  C17 ROC d          16.156  23.114  14.395  0.00  0.00    -0.020 C 
ATOM     42  H17 ROC d          16.904  22.470  14.880  0.00  0.00     0.043 H 
ATOM     43  H18 ROC d          16.589  23.559  13.487  0.00  0.00     0.043 H 
BRANCH  41  44
ATOM     44  C18 ROC d          14.988  22.255  13.987  0.00  0.00    -0.056 A 
ATOM     45  C19 ROC d          13.720  22.520  14.462  0.00  0.00    -0.077 A 
ATOM     46  C21 ROC d          12.670  21.718  14.129  0.00  0.00    -0.082 A 
ATOM     47  H19 ROC d          13.558  23.375  15.108  0.00  0.00     0.084 H 
ATOM     48  C23 ROC d          12.863  20.661  13.281  0.00  0.00    -0.083 A 
ATOM     49  H21 ROC d          11.684  21.917  14.533  0.00  0.00     0.083 H 
ATOM     50  C22 ROC d          14.099  20.420  12.765  0.00  0.00    -0.082 A 
ATOM     51  H23 ROC d          12.032  20.017  13.021  0.00  0.00     0.083 H 
ATOM     52  C20 ROC d          15.162  21.203  13.132  0.00  0.00    -0.077 A 
ATOM     53  H22 ROC d          14.242  19.607  12.064  0.00  0.00     0.083 H 
ATOM     54  H20 ROC d          16.149  20.987  12.741  0.00  0.00     0.084 H 
ENDBRANCH  41  44
ENDBRANCH   5  41
ENDBRANCH   1   5
BRANCH   1  55
ATOM     55  C24 ROC d          16.874  22.808  17.162  0.00  0.00     0.110 C 
ATOM     56  H25 ROC d          17.758  23.340  17.541  0.00  0.00     0.080 H 
ATOM     57  H26 ROC d          17.141  22.257  16.249  0.00  0.00     0.080 H 
BRANCH  55  58
ATOM     58  N5  ROC d          16.428  21.872  18.160  0.00  0.00    -0.055 N 
ATOM     59  C25 ROC d          16.145  22.508  19.492  0.00  0.00     0.180 C 
ATOM     60  C27 ROC d          15.695  21.468  20.460  0.00  0.00    -0.026 C 
ATOM     61  H27 ROC d          15.351  23.258  19.367  0.00  0.00     0.100 H 
ATOM     62  C28 ROC d          14.502  20.680  20.007  0.00  0.00    -0.047 C 
ATOM     63  H28 ROC d          15.439  21.967  21.407  0.00  0.00     0.037 H 
ATOM     64  H29 ROC d          16.528  20.769  20.627  0.00  0.00     0.037 H 
ATOM     65  C29 ROC d          14.089  19.575  20.972  0.00  0.00    -0.061 C 
ATOM     66  C33 ROC d          14.846  20.115  18.621  0.00  0.00    -0.027 C 
ATOM     67  H30 ROC d          13.649  21.367  19.910  0.00  0.00     0.040 H 
ATOM     68  C30 ROC d          15.019  18.383  20.979  0.00  0.00    -0.065 C 
ATOM     69  H31 ROC d          13.085  19.228  20.690  0.00  0.00     0.033 H 
ATOM     70  H32 ROC d          14.060  19.997  21.987  0.00  0.00     0.033 H 
ATOM     71  C31 ROC d          15.192  17.824  19.594  0.00  0.00    -0.065 C 
ATOM     72  H33 ROC d          14.598  17.603  21.631  0.00  0.00     0.033 H 
ATOM     73  H34 ROC d          16.000  18.694  21.367  0.00  0.00     0.033 H 
ATOM     74  C32 ROC d          15.756  18.943  18.730  0.00  0.00    -0.060 C 
ATOM     75  H35 ROC d          14.222  17.492  19.197  0.00  0.00     0.033 H 
ATOM     76  H36 ROC d          15.891  16.974  19.614  0.00  0.00     0.033 H 
ATOM     77  H37 ROC d          15.937  18.547  17.720  0.00  0.00     0.033 H 
ATOM     78  H38 ROC d          16.707  19.279  19.168  0.00  0.00     0.033 H 
ATOM     79  C34 ROC d          15.264  21.171  17.680  0.00  0.00     0.088 C 
ATOM     80  H39 ROC d          13.905  19.718  18.211  0.00  0.00     0.043 H 
ATOM     81  H40 ROC d          15.497  20.711  16.709  0.00  0.00     0.076 H 
ATOM     82  H41 ROC d          14.438  21.888  17.557  0.00  0.00     0.076 H 
ATOM     83  H24 ROC d          17.166  21.200  18.297  0.00  0.00     0.281 HD
BRANCH  59  84
ATOM     84  C26 ROC d          17.402  23.193  20.055  0.00  0.00     0.249 C 
ATOM     85  O5  ROC d          17.375  24.340  20.472  0.00  0.00    -0.271 OA
ATOM     86  N6  ROC d          18.509  22.410  20.087  0.00  0.00    -0.351 N 
ATOM     87  H42 ROC d          18.408  21.451  19.825  0.00  0.00     0.163 HD
BRANCH  86  88
ATOM     88  C35 ROC d          19.830  22.869  20.476  0.00  0.00     0.022 C 
BRANCH  88  89
ATOM     89  C36 ROC d          20.676  21.668  20.839  0.00  0.00    -0.054 C 
ATOM     90  H43 ROC d          20.664  20.947  20.010  0.00  0.00     0.030 H 
ATOM     91  H44 ROC d          20.269  21.193  21.745  0.00  0.00     0.030 H 
ATOM     92  H45 ROC d          21.710  21.992  21.028  0.00  0.00     0.030 H 
ENDBRANCH  88  89
BRANCH  88  93
ATOM     93  C37 ROC d          19.705  23.729  21.708  0.00  0.00    -0.054 C 
ATOM     94  H46 ROC d          18.979  24.534  21.520  0.00  0.00     0.030 H 
ATOM     95  H47 ROC d          20.684  24.167  21.950  0.00  0.00     0.030 H 
ATOM     96  H48 ROC d          19.359  23.113  22.551  0.00  0.00     0.030 H 
ENDBRANCH  88  93
BRANCH  88  97
ATOM     97  C38 ROC d          20.446  23.596  19.314  0.00  0.00    -0.054 C 
ATOM     98  H49 ROC d          19.934  24.560  19.172  0.00  0.00     0.030 H 
ATOM     99  H50 ROC d          20.341  22.987  18.404  0.00  0.00     0.030 H 
ATOM    100  H51 ROC d          21.512  23.773  19.517  0.00  0.00     0.030 H 
ENDBRANCH  88  97
ENDBRANCH  86  88
ENDBRANCH  59  84
ENDBRANCH  55  58
ENDBRANCH   1  55
TORSDOF 17
ENDMDL
MODEL 2
REMARK VINA RESULT:      -9.5      2.291      6.790
REMARK  17 active torsions:
REMARK  status: ('A' for Active; 'I' for Inactive)
REMARK    1  A    between atoms: C1_2  and  C2_4 
REMARK       I    between atoms: N2_13  and  C1_2 
REMARK    2  A    between atoms: C11_14  and  N2_13 
REMARK    3  A    between atoms: C12_15  and  C11_14 
REMARK    4  A    between atoms: C11_14  and  C13_17 
REMARK       I    between atoms: N4_24  and  C12_15 
REMARK    5  A    between atoms: C13_17  and  C14_18 
REMARK       I    between atoms: C14_18  and  N3_20 
REMARK    6  A    between atoms: C15_21  and  O4_22 
REMARK    7  A    between atoms: C16_23  and  C15_21 
REMARK    8  A    between atoms: C15_21  and  C24_33 
REMARK    9  A    between atoms: C16_23  and  N4_24 
REMARK   10  A    between atoms: C16_23  and  C17_25 
REMARK   11  A    between atoms: C17_25  and  C18_26 
REMARK   12  A    between atoms: C24_33  and  N5_32 
REMARK   13  A    between atoms: C25_34  and  C26_35 
REMARK       I    between atoms: C26_35  and  N6_45 
REMARK   14  A    between atoms: N6_45  and  C35_46 
REMARK   15  A    between atoms: C35_46  and  C36_47 
REMARK   16  A    between atoms: C35_46  and  C37_48 
REMARK   17  A    between atoms: C35_46  and  C38_49 
ROOT
ATOM      1  C15 ROC d          16.578  22.901  18.553  0.00  0.00     0.078 C 
ATOM      2  H13 ROC d          17.525  23.428  18.362  0.00  0.00     0.088 H 
ENDROOT
BRANCH   1   3
ATOM      3  O4  ROC d          15.705  23.807  19.214  0.00  0.00    -0.392 OA
ATOM      4  H14 ROC d          14.995  24.045  18.629  0.00  0.00     0.210 HD
ENDBRANCH   1   3
BRANCH   1   5
ATOM      5  C16 ROC d          16.900  21.708  19.461  0.00  0.00     0.042 C 
ATOM      6  H15 ROC d          17.106  20.829  18.831  0.00  0.00     0.077 H 
BRANCH   5   7
ATOM      7  N4  ROC d          18.089  22.043  20.260  0.00  0.00    -0.352 N 
ATOM      8  C12 ROC d          19.225  22.443  19.695  0.00  0.00     0.241 C 
ATOM      9  O2  ROC d          19.459  22.572  18.472  0.00  0.00    -0.271 OA
ATOM     10  H16 ROC d          18.042  21.968  21.256  0.00  0.00     0.163 HD
BRANCH   8  11
ATOM     11  C11 ROC d          20.369  22.755  20.655  0.00  0.00     0.097 C 
ATOM     12  H8  ROC d          20.860  21.814  20.944  0.00  0.00     0.088 H 
BRANCH  11  13
ATOM     13  N2  ROC d          21.318  23.560  19.950  0.00  0.00    -0.342 N 
ATOM     14  C1  ROC d          22.637  23.577  20.223  0.00  0.00     0.271 C 
ATOM     15  O1  ROC d          23.146  22.991  21.199  0.00  0.00    -0.266 OA
ATOM     16  H7  ROC d          20.982  24.144  19.211  0.00  0.00     0.163 HD
BRANCH  14  17
ATOM     17  C2  ROC d          23.395  24.377  19.239  0.00  0.00     0.125 C 
ATOM     18  N1  ROC d          22.835  25.474  18.677  0.00  0.00    -0.243 NA
ATOM     19  C10 ROC d          23.497  26.226  17.760  0.00  0.00     0.068 A 
ATOM     20  C5  ROC d          24.796  25.871  17.389  0.00  0.00    -0.007 A 
ATOM     21  C9R ROC d          22.931  27.379  17.202  0.00  0.00    -0.054 A 
ATOM     22  C4  ROC d          25.361  24.731  17.943  0.00  0.00    -0.068 C 
ATOM     23  C6  ROC d          25.433  26.624  16.424  0.00  0.00    -0.071 A 
ATOM     24  C3  ROC d          24.720  23.991  18.944  0.00  0.00    -0.049 C 
ATOM     25  H2  ROC d          26.331  24.402  17.588  0.00  0.00     0.085 H 
ATOM     26  H1  ROC d          25.211  23.173  19.459  0.00  0.00     0.087 H 
ATOM     27  C7  ROC d          24.888  27.775  15.895  0.00  0.00    -0.082 A 
ATOM     28  H3  ROC d          26.402  26.297  16.066  0.00  0.00     0.084 H 
ATOM     29  C8  ROC d          23.604  28.084  16.265  0.00  0.00    -0.081 A 
ATOM     30  H4  ROC d          25.450  28.408  15.217  0.00  0.00     0.083 H 
ATOM     31  H5  ROC d          23.112  28.924  15.789  0.00  0.00     0.083 H 
ATOM     32  H6  ROC d          21.949  27.707  17.523  0.00  0.00     0.087 H 
ENDBRANCH  14  17
ENDBRANCH  11  13
BRANCH  11  33
ATOM     33  C13 ROC d          19.843  23.404  21.911  0.00  0.00     0.036 C 
ATOM     34  H9  ROC d          20.629  23.428  22.681  0.00  0.00     0.051 H 
ATOM     35  H10 ROC d          18.975  22.844  22.289  0.00  0.00     0.051 H 
BRANCH  33  36
ATOM     36  C14 ROC d          19.443  24.773  21.559  0.00  0.00     0.217 C 
ATOM     37  O3  ROC d          20.149  25.747  21.263  0.00  0.00    -0.274 OA
ATOM     38  N3  ROC d          18.193  25.017  21.588  0.00  0.00    -0.370 N 
ATOM     39  H11 ROC d          17.855  25.930  21.359  0.00  0.00     0.159 HD
ATOM     40  H12 ROC d          17.548  24.295  21.840  0.00  0.00     0.159 HD
ENDBRANCH  33  36
ENDBRANCH  11  33
ENDBRANCH   8  11
ENDBRANCH   5   7
BRANCH   5  41
ATOM     41  C17 ROC d          15.779  21.365  20.438  0.00  0.00    -0.020 C 
ATOM     42  H17 ROC d          15.015  22.154  20.374  0.00  0.00     0.043 H 
ATOM     43  H18 ROC d          16.201  21.344  21.453  0.00  0.00     0.043 H 
BRANCH  41  44
ATOM     44  C18 ROC d          15.110  20.041  20.179  0.00  0.00    -0.056 A 
ATOM     45  C19 ROC d          15.011  19.095  21.178  0.00  0.00    -0.077 A 
ATOM     46  C21 ROC d          14.445  17.880  20.933  0.00  0.00    -0.082 A 
ATOM     47  H19 ROC d          15.389  19.321  22.169  0.00  0.00     0.084 H 
ATOM     48  C23 ROC d          13.931  17.606  19.695  0.00  0.00    -0.083 A 
ATOM     49  H21 ROC d          14.401  17.133  21.718  0.00  0.00     0.083 H 
ATOM     50  C22 ROC d          13.976  18.549  18.716  0.00  0.00    -0.082 A 
ATOM     51  H23 ROC d          13.487  16.638  19.495  0.00  0.00     0.083 H 
ATOM     52  C20 ROC d          14.581  19.756  18.951  0.00  0.00    -0.077 A 
ATOM     53  H22 ROC d          13.534  18.345  17.748  0.00  0.00     0.083 H 
ATOM     54  H20 ROC d          14.640  20.492  18.157  0.00  0.00     0.084 H 
ENDBRANCH  41  44
ENDBRANCH   5  41
ENDBRANCH   1   5
BRANCH   1  55
ATOM     55  C24 ROC d          16.016  22.499  17.213  0.00  0.00     0.110 C 
ATOM     56  H25 ROC d          14.937  22.709  17.201  0.00  0.00     0.080 H 
ATOM     57  H26 ROC d          16.182  21.423  17.064  0.00  0.00     0.080 H 
BRANCH  55  58
ATOM     58  N5  ROC d          16.645  23.222  16.139  0.00  0.00    -0.055 N 
ATOM     59  C25 ROC d          15.701  23.577  15.025  0.00  0.00     0.180 C 
ATOM     60  C27 ROC d          16.435  24.317  13.960  0.00  0.00    -0.026 C 
ATOM     61  H27 ROC d          14.900  24.215  15.427  0.00  0.00     0.100 H 
ATOM     62  C28 ROC d          17.142  25.549  14.442  0.00  0.00    -0.047 C 
ATOM     63  H28 ROC d          15.712  24.615  13.187  0.00  0.00     0.037 H 
ATOM     64  H29 ROC d          17.182  23.639  13.522  0.00  0.00     0.037 H 
ATOM     65  C29 ROC d          17.945  26.262  13.361  0.00  0.00    -0.061 C 
ATOM     66  C33 ROC d          18.037  25.116  15.612  0.00  0.00    -0.027 C 
ATOM     67  H30 ROC d          16.389  26.258  14.814  0.00  0.00     0.040 H 
ATOM     68  C30 ROC d          19.217  25.547  12.964  0.00  0.00    -0.065 C 
ATOM     69  H31 ROC d          18.212  27.262  13.733  0.00  0.00     0.033 H 
ATOM     70  H32 ROC d          17.311  26.361  12.468  0.00  0.00     0.033 H 
ATOM     71  C31 ROC d          20.084  25.280  14.162  0.00  0.00    -0.065 C 
ATOM     72  H33 ROC d          19.773  26.174  12.251  0.00  0.00     0.033 H 
ATOM     73  H34 ROC d          18.958  24.591  12.487  0.00  0.00     0.033 H 
ATOM     74  C32 ROC d          19.265  24.430  15.124  0.00  0.00    -0.060 C 
ATOM     75  H35 ROC d          20.366  26.228  14.643  0.00  0.00     0.033 H 
ATOM     76  H36 ROC d          20.991  24.738  13.859  0.00  0.00     0.033 H 
ATOM     77  H37 ROC d          19.893  24.180  15.991  0.00  0.00     0.033 H 
ATOM     78  H38 ROC d          18.967  23.506  14.608  0.00  0.00     0.033 H 
ATOM     79  C34 ROC d          17.278  24.408  16.660  0.00  0.00     0.088 C 
ATOM     80  H39 ROC d          18.389  26.043  16.087  0.00  0.00     0.043 H 
ATOM     81  H40 ROC d          17.965  24.122  17.468  0.00  0.00     0.076 H 
ATOM     82  H41 ROC d          16.504  25.082  17.058  0.00  0.00     0.076 H 
ATOM     83  H24 ROC d          17.360  22.628  15.751  0.00  0.00     0.281 HD
BRANCH  59  84
ATOM     84  C26 ROC d          15.077  22.315  14.407  0.00  0.00     0.249 C 
ATOM     85  O5  ROC d          15.749  21.501  13.794  0.00  0.00    -0.271 OA
ATOM     86  N6  ROC d          13.749  22.167  14.636  0.00  0.00    -0.351 N 
ATOM     87  H42 ROC d          13.305  22.828  15.240  0.00  0.00     0.163 HD
BRANCH  86  88
ATOM     88  C35 ROC d          12.927  21.114  14.067  0.00  0.00     0.022 C 
BRANCH  88  89
ATOM     89  C36 ROC d          13.052  19.877  14.928  0.00  0.00    -0.054 C 
ATOM     90  H43 ROC d          13.415  19.039  14.316  0.00  0.00     0.030 H 
ATOM     91  H44 ROC d          12.068  19.624  15.351  0.00  0.00     0.030 H 
ATOM     92  H45 ROC d          13.763  20.069  15.745  0.00  0.00     0.030 H 
ENDBRANCH  88  89
BRANCH  88  93
ATOM     93  C37 ROC d          13.454  20.772  12.696  0.00  0.00    -0.054 C 
ATOM     94  H46 ROC d          12.752  20.092  12.193  0.00  0.00     0.030 H 
ATOM     95  H47 ROC d          14.434  20.280  12.793  0.00  0.00     0.030 H 
ATOM     96  H48 ROC d          13.562  21.692  12.104  0.00  0.00     0.030 H 
ENDBRANCH  88  93
BRANCH  88  97
ATOM     97  C38 ROC d          11.499  21.581  14.045  0.00  0.00    -0.054 C 
ATOM     98  H49 ROC d          11.010  21.223  13.126  0.00  0.00     0.030 H 
ATOM     99  H50 ROC d          11.473  22.681  14.070  0.00  0.00     0.030 H 
ATOM    100  H51 ROC d          10.970  21.181  14.922  0.00  0.00     0.030 H 
ENDBRANCH  88  97
ENDBRANCH  86  88
ENDBRANCH  59  84
ENDBRANCH  55  58
ENDBRANCH   1  55
TORSDOF 17
ENDMDL
MODEL 3
REMARK VINA RESULT:      -9.4      2.308      5.819
REMARK  17 active torsions:
REMARK  status: ('A' for Active; 'I' for Inactive)
REMARK    1  A    between atoms: C1_2  and  C2_4 
REMARK       I    between atoms: N2_13  and  C1_2 
REMARK    2  A    between atoms: C11_14  and  N2_13 
REMARK    3  A    between atoms: C12_15  and  C11_14 
REMARK    4  A    between atoms: C11_14  and  C13_17 
REMARK       I    between atoms: N4_24  and  C12_15 
REMARK    5  A    between atoms: C13_17  and  C14_18 
REMARK       I    between atoms: C14_18  and  N3_20 
REMARK    6  A    between atoms: C15_21  and  O4_22 
REMARK    7  A    between atoms: C16_23  and  C15_21 
REMARK    8  A    between atoms: C15_21  and  C24_33 
REMARK    9  A    between atoms: C16_23  and  N4_24 
REMARK   10  A    between atoms: C16_23  and  C17_25 
REMARK   11  A    between atoms: C17_25  and  C18_26 
REMARK   12  A    between atoms: C24_33  and  N5_32 
REMARK   13  A    between atoms: C25_34  and  C26_35 
REMARK       I    between atoms: C26_35  and  N6_45 
REMARK   14  A    between atoms: N6_45  and  C35_46 
REMARK   15  A    between atoms: C35_46  and  C36_47 
REMARK   16  A    between atoms: C35_46  and  C37_48 
REMARK   17  A    between atoms: C35_46  and  C38_49 
ROOT
ATOM      1  C15 ROC d          15.038  22.972  16.327  0.00  0.00     0.078 C 
ATOM      2  H13 ROC d          14.497  23.123  15.381  0.00  0.00     0.088 H 
ENDROOT
BRANCH   1   3
ATOM      3  O4  ROC d          14.170  23.353  17.387  0.00  0.00    -0.392 OA
ATOM      4  H14 ROC d          14.407  24.220  17.694  0.00  0.00     0.210 HD
ENDBRANCH   1   3
BRANCH   1   5
ATOM      5  C16 ROC d          16.273  23.880  16.294  0.00  0.00     0.042 C 
ATOM      6  H15 ROC d          15.941  24.926  16.212  0.00  0.00     0.077 H 
BRANCH   5   7
ATOM      7  N4  ROC d          17.022  23.687  17.544  0.00  0.00    -0.352 N 
ATOM      8  C12 ROC d          17.955  22.746  17.667  0.00  0.00     0.241 C 
ATOM      9  O2  ROC d          18.310  21.912  16.802  0.00  0.00    -0.271 OA
ATOM     10  H16 ROC d          16.826  24.279  18.325  0.00  0.00     0.163 HD
BRANCH   8  11
ATOM     11  C11 ROC d          18.647  22.669  19.025  0.00  0.00     0.097 C 
ATOM     12  H8  ROC d          19.005  21.642  19.186  0.00  0.00     0.088 H 
BRANCH  11  13
ATOM     13  N2  ROC d          19.780  23.540  18.983  0.00  0.00    -0.342 N 
ATOM     14  C1  ROC d          20.531  23.846  20.059  0.00  0.00     0.271 C 
ATOM     15  O1  ROC d          20.239  23.505  21.222  0.00  0.00    -0.266 OA
ATOM     16  H7  ROC d          20.030  23.945  18.103  0.00  0.00     0.163 HD
BRANCH  14  17
ATOM     17  C2  ROC d          21.722  24.639  19.694  0.00  0.00     0.125 C 
ATOM     18  N1  ROC d          21.698  25.444  18.605  0.00  0.00    -0.243 NA
ATOM     19  C10 ROC d          22.779  26.176  18.232  0.00  0.00     0.068 A 
ATOM     20  C5  ROC d          23.948  26.114  18.994  0.00  0.00    -0.007 A 
ATOM     21  C9R ROC d          22.745  27.033  17.125  0.00  0.00    -0.054 A 
ATOM     22  C4  ROC d          23.984  25.269  20.094  0.00  0.00    -0.068 C 
ATOM     23  C6  ROC d          25.047  26.834  18.572  0.00  0.00    -0.071 A 
ATOM     24  C3  ROC d          22.855  24.566  20.533  0.00  0.00    -0.049 C 
ATOM     25  H2  ROC d          24.918  25.149  20.632  0.00  0.00     0.085 H 
ATOM     26  H1  ROC d          22.851  24.002  21.459  0.00  0.00     0.087 H 
ATOM     27  C7  ROC d          25.006  27.699  17.499  0.00  0.00    -0.082 A 
ATOM     28  H3  ROC d          25.982  26.714  19.107  0.00  0.00     0.084 H 
ATOM     29  C8  ROC d          23.851  27.722  16.761  0.00  0.00    -0.081 A 
ATOM     30  H4  ROC d          25.849  28.333  17.250  0.00  0.00     0.083 H 
ATOM     31  H5  ROC d          23.822  28.313  15.854  0.00  0.00     0.083 H 
ATOM     32  H6  ROC d          21.828  27.144  16.557  0.00  0.00     0.087 H 
ENDBRANCH  14  17
ENDBRANCH  11  13
BRANCH  11  33
ATOM     33  C13 ROC d          17.675  22.996  20.131  0.00  0.00     0.036 C 
ATOM     34  H9  ROC d          17.232  23.989  19.963  0.00  0.00     0.051 H 
ATOM     35  H10 ROC d          18.192  22.985  21.102  0.00  0.00     0.051 H 
BRANCH  33  36
ATOM     36  C14 ROC d          16.627  21.968  20.108  0.00  0.00     0.217 C 
ATOM     37  O3  ROC d          16.730  20.742  19.957  0.00  0.00    -0.274 OA
ATOM     38  N3  ROC d          15.429  22.385  20.228  0.00  0.00    -0.370 N 
ATOM     39  H11 ROC d          14.669  21.735  20.220  0.00  0.00     0.159 HD
ATOM     40  H12 ROC d          15.248  23.364  20.330  0.00  0.00     0.159 HD
ENDBRANCH  33  36
ENDBRANCH  11  33
ENDBRANCH   8  11
ENDBRANCH   5   7
BRANCH   5  41
ATOM     41  C17 ROC d          17.225  23.571  15.142  0.00  0.00    -0.020 C 
ATOM     42  H17 ROC d          16.625  23.252  14.277  0.00  0.00     0.043 H 
ATOM     43  H18 ROC d          17.887  22.750  15.453  0.00  0.00     0.043 H 
BRANCH  41  44
ATOM     44  C18 ROC d          18.083  24.733  14.716  0.00  0.00    -0.056 A 
ATOM     45  C19 ROC d          19.443  24.725  14.948  0.00  0.00    -0.077 A 
ATOM     46  C21 ROC d          20.215  25.793  14.601  0.00  0.00    -0.082 A 
ATOM     47  H19 ROC d          19.903  23.859  15.411  0.00  0.00     0.084 H 
ATOM     48  C23 ROC d          19.646  26.871  13.980  0.00  0.00    -0.083 A 
ATOM     49  H21 ROC d          21.278  25.788  14.817  0.00  0.00     0.083 H 
ATOM     50  C22 ROC d          18.315  26.870  13.700  0.00  0.00    -0.082 A 
ATOM     51  H23 ROC d          20.255  27.726  13.712  0.00  0.00     0.083 H 
ATOM     52  C20 ROC d          17.532  25.812  14.084  0.00  0.00    -0.077 A 
ATOM     53  H22 ROC d          17.872  27.707  13.173  0.00  0.00     0.083 H 
ATOM     54  H20 ROC d          16.467  25.831  13.884  0.00  0.00     0.084 H 
ENDBRANCH  41  44
ENDBRANCH   5  41
ENDBRANCH   1   5
BRANCH   1  55
ATOM     55  C24 ROC d          15.374  21.505  16.416  0.00  0.00     0.110 C 
ATOM     56  H25 ROC d          15.457  21.221  17.474  0.00  0.00     0.080 H 
ATOM     57  H26 ROC d          16.336  21.328  15.912  0.00  0.00     0.080 H 
BRANCH  55  58
ATOM     58  N5  ROC d          14.364  20.693  15.791  0.00  0.00    -0.055 N 
ATOM     59  C25 ROC d          13.049  20.711  16.519  0.00  0.00     0.180 C 
ATOM     60  C27 ROC d          12.068  19.844  15.807  0.00  0.00    -0.026 C 
ATOM     61  H27 ROC d          12.672  21.743  16.547  0.00  0.00     0.100 H 
ATOM     62  C28 ROC d          11.858  20.206  14.367  0.00  0.00    -0.047 C 
ATOM     63  H28 ROC d          11.101  19.921  16.326  0.00  0.00     0.037 H 
ATOM     64  H29 ROC d          12.428  18.806  15.854  0.00  0.00     0.037 H 
ATOM     65  C29 ROC d          10.905  19.274  13.629  0.00  0.00    -0.061 C 
ATOM     66  C33 ROC d          13.246  20.225  13.709  0.00  0.00    -0.027 C 
ATOM     67  H30 ROC d          11.430  21.217  14.322  0.00  0.00     0.040 H 
ATOM     68  C30 ROC d          11.486  17.913  13.322  0.00  0.00    -0.065 C 
ATOM     69  H31 ROC d          10.623  19.751  12.679  0.00  0.00     0.033 H 
ATOM     70  H32 ROC d          10.008  19.135  14.250  0.00  0.00     0.033 H 
ATOM     71  C31 ROC d          12.780  18.035  12.567  0.00  0.00    -0.065 C 
ATOM     72  H33 ROC d          10.768  17.344  12.713  0.00  0.00     0.033 H 
ATOM     73  H34 ROC d          11.670  17.379  14.266  0.00  0.00     0.033 H 
ATOM     74  C32 ROC d          13.731  18.844  13.439  0.00  0.00    -0.060 C 
ATOM     75  H35 ROC d          12.612  18.553  11.611  0.00  0.00     0.033 H 
ATOM     76  H36 ROC d          13.201  17.037  12.375  0.00  0.00     0.033 H 
ATOM     77  H37 ROC d          14.703  18.908  12.929  0.00  0.00     0.033 H 
ATOM     78  H38 ROC d          13.854  18.322  14.399  0.00  0.00     0.033 H 
ATOM     79  C34 ROC d          14.186  21.109  14.422  0.00  0.00     0.088 C 
ATOM     80  H39 ROC d          13.109  20.686  12.720  0.00  0.00     0.043 H 
ATOM     81  H40 ROC d          15.159  21.083  13.911  0.00  0.00     0.076 H 
ATOM     82  H41 ROC d          13.792  22.136  14.408  0.00  0.00     0.076 H 
ATOM     83  H24 ROC d          14.695  19.742  15.791  0.00  0.00     0.281 HD
BRANCH  59  84
ATOM     84  C26 ROC d          13.208  20.194  17.959  0.00  0.00     0.249 C 
ATOM     85  O5  ROC d          13.202  20.950  18.917  0.00  0.00    -0.271 OA
ATOM     86  N6  ROC d          13.309  18.846  18.070  0.00  0.00    -0.351 N 
ATOM     87  H42 ROC d          13.195  18.301  17.240  0.00  0.00     0.163 HD
BRANCH  86  88
ATOM     88  C35 ROC d          13.570  18.140  19.311  0.00  0.00     0.022 C 
BRANCH  88  89
ATOM     89  C36 ROC d          12.596  16.988  19.432  0.00  0.00    -0.054 C 
ATOM     90  H43 ROC d          12.884  16.189  18.733  0.00  0.00     0.030 H 
ATOM     91  H44 ROC d          11.582  17.340  19.190  0.00  0.00     0.030 H 
ATOM     92  H45 ROC d          12.614  16.599  20.460  0.00  0.00     0.030 H 
ENDBRANCH  88  89
BRANCH  88  93
ATOM     93  C37 ROC d          13.318  19.075  20.467  0.00  0.00    -0.054 C 
ATOM     94  H46 ROC d          12.278  18.963  20.808  0.00  0.00     0.030 H 
ATOM     95  H47 ROC d          13.488  20.112  20.143  0.00  0.00     0.030 H 
ATOM     96  H48 ROC d          14.003  18.831  21.292  0.00  0.00     0.030 H 
ENDBRANCH  88  93
BRANCH  88  97
ATOM     97  C38 ROC d          14.978  17.617  19.277  0.00  0.00    -0.054 C 
ATOM     98  H49 ROC d          15.632  18.287  19.856  0.00  0.00     0.030 H 
ATOM     99  H50 ROC d          15.328  17.574  18.235  0.00  0.00     0.030 H 
ATOM    100  H51 ROC d          15.006  16.609  19.716  0.00  0.00     0.030 H 
ENDBRANCH  88  97
ENDBRANCH  86  88
ENDBRANCH  59  84
ENDBRANCH  55  58
ENDBRANCH   1  55
TORSDOF 17
ENDMDL
MODEL 4
REMARK VINA RESULT:      -9.3      2.571      5.839
REMARK  17 active torsions:
REMARK  status: ('A' for Active; 'I' for Inactive)
REMARK    1  A    between atoms: C1_2  and  C2_4 
REMARK       I    between atoms: N2_13  and  C1_2 
REMARK    2  A    between atoms: C11_14  and  N2_13 
REMARK    3  A    between atoms: C12_15  and  C11_14 
REMARK    4  A    between atoms: C11_14  and  C13_17 
REMARK       I    between atoms: N4_24  and  C12_15 
REMARK    5  A    between atoms: C13_17  and  C14_18 
REMARK       I    between atoms: C14_18  and  N3_20 
REMARK    6  A    between atoms: C15_21  and  O4_22 
REMARK    7  A    between atoms: C16_23  and  C15_21 
REMARK    8  A    between atoms: C15_21  and  C24_33 
REMARK    9  A    between atoms: C16_23  and  N4_24 
REMARK   10  A    between atoms: C16_23  and  C17_25 
REMARK   11  A    between atoms: C17_25  and  C18_26 
REMARK   12  A    between atoms: C24_33  and  N5_32 
REMARK   13  A    between atoms: C25_34  and  C26_35 
REMARK       I    between atoms: C26_35  and  N6_45 
REMARK   14  A    between atoms: N6_45  and  C35_46 
REMARK   15  A    between atoms: C35_46  and  C36_47 
REMARK   16  A    between atoms: C35_46  and  C37_48 
REMARK   17  A    between atoms: C35_46  and  C38_49 
ROOT
ATOM      1  C15 ROC d          14.741  22.252  16.572  0.00  0.00     0.078 C 
ATOM      2  H13 ROC d          14.255  22.423  15.600  0.00  0.00     0.088 H 
ENDROOT
BRANCH   1   3
ATOM      3  O4  ROC d          13.807  22.597  17.588  0.00  0.00    -0.392 OA
ATOM      4  H14 ROC d          13.459  23.464  17.416  0.00  0.00     0.210 HD
ENDBRANCH   1   3
BRANCH   1   5
ATOM      5  C16 ROC d          15.965  23.173  16.634  0.00  0.00     0.042 C 
ATOM      6  H15 ROC d          15.628  24.216  16.541  0.00  0.00     0.077 H 
BRANCH   5   7
ATOM      7  N4  ROC d          16.627  22.974  17.933  0.00  0.00    -0.352 N 
ATOM      8  C12 ROC d          17.722  22.228  18.056  0.00  0.00     0.241 C 
ATOM      9  O2  ROC d          18.317  21.599  17.151  0.00  0.00    -0.271 OA
ATOM     10  H16 ROC d          16.244  23.412  18.746  0.00  0.00     0.163 HD
BRANCH   8  11
ATOM     11  C11 ROC d          18.294  22.117  19.466  0.00  0.00     0.097 C 
ATOM     12  H8  ROC d          18.521  21.062  19.678  0.00  0.00     0.088 H 
BRANCH  11  13
ATOM     13  N2  ROC d          19.519  22.855  19.495  0.00  0.00    -0.342 N 
ATOM     14  C1  ROC d          20.581  22.516  20.253  0.00  0.00     0.271 C 
ATOM     15  O1  ROC d          20.559  21.602  21.100  0.00  0.00    -0.266 OA
ATOM     16  H7  ROC d          19.591  23.669  18.920  0.00  0.00     0.163 HD
BRANCH  14  17
ATOM     17  C2  ROC d          21.756  23.363  19.967  0.00  0.00     0.125 C 
ATOM     18  N1  ROC d          21.627  24.473  19.201  0.00  0.00    -0.243 NA
ATOM     19  C10 ROC d          22.688  25.267  18.907  0.00  0.00     0.068 A 
ATOM     20  C5  ROC d          23.949  24.946  19.413  0.00  0.00    -0.007 A 
ATOM     21  C9R ROC d          22.549  26.432  18.142  0.00  0.00    -0.054 A 
ATOM     22  C4  ROC d          24.090  23.794  20.174  0.00  0.00    -0.068 C 
ATOM     23  C6  ROC d          25.020  25.743  19.065  0.00  0.00    -0.071 A 
ATOM     24  C3  ROC d          22.992  23.007  20.548  0.00  0.00    -0.049 C 
ATOM     25  H2  ROC d          25.082  23.492  20.489  0.00  0.00     0.085 H 
ATOM     26  H1  ROC d          23.087  22.178  21.239  0.00  0.00     0.087 H 
ATOM     27  C7  ROC d          24.881  26.905  18.337  0.00  0.00    -0.082 A 
ATOM     28  H3  ROC d          26.014  25.443  19.378  0.00  0.00     0.084 H 
ATOM     29  C8  ROC d          23.634  27.182  17.839  0.00  0.00    -0.081 A 
ATOM     30  H4  ROC d          25.719  27.570  18.166  0.00  0.00     0.083 H 
ATOM     31  H5  ROC d          23.512  28.032  17.178  0.00  0.00     0.083 H 
ATOM     32  H6  ROC d          21.569  26.735  17.793  0.00  0.00     0.087 H 
ENDBRANCH  14  17
ENDBRANCH  11  13
BRANCH  11  33
ATOM     33  C13 ROC d          17.284  22.584  20.484  0.00  0.00     0.036 C 
ATOM     34  H9  ROC d          17.377  21.992  21.407  0.00  0.00     0.051 H 
ATOM     35  H10 ROC d          16.266  22.478  20.081  0.00  0.00     0.051 H 
BRANCH  33  36
ATOM     36  C14 ROC d          17.568  23.998  20.763  0.00  0.00     0.217 C 
ATOM     37  O3  ROC d          18.428  24.496  21.503  0.00  0.00    -0.274 OA
ATOM     38  N3  ROC d          16.808  24.846  20.191  0.00  0.00    -0.370 N 
ATOM     39  H11 ROC d          16.950  25.825  20.339  0.00  0.00     0.159 HD
ATOM     40  H12 ROC d          16.070  24.533  19.594  0.00  0.00     0.159 HD
ENDBRANCH  33  36
ENDBRANCH  11  33
ENDBRANCH   8  11
ENDBRANCH   5   7
BRANCH   5  41
ATOM     41  C17 ROC d          16.998  22.887  15.549  0.00  0.00    -0.020 C 
ATOM     42  H17 ROC d          16.510  22.303  14.755  0.00  0.00     0.043 H 
ATOM     43  H18 ROC d          17.810  22.294  15.995  0.00  0.00     0.043 H 
BRANCH  41  44
ATOM     44  C18 ROC d          17.602  24.117  14.924  0.00  0.00    -0.056 A 
ATOM     45  C19 ROC d          18.781  24.646  15.409  0.00  0.00    -0.077 A 
ATOM     46  C21 ROC d          19.306  25.783  14.873  0.00  0.00    -0.082 A 
ATOM     47  H19 ROC d          19.294  24.151  16.226  0.00  0.00     0.084 H 
ATOM     48  C23 ROC d          18.683  26.388  13.816  0.00  0.00    -0.083 A 
ATOM     49  H21 ROC d          20.216  26.207  15.283  0.00  0.00     0.083 H 
ATOM     50  C22 ROC d          17.548  25.848  13.296  0.00  0.00    -0.082 A 
ATOM     51  H23 ROC d          19.093  27.297  13.393  0.00  0.00     0.083 H 
ATOM     52  C20 ROC d          16.998  24.726  13.860  0.00  0.00    -0.077 A 
ATOM     53  H22 ROC d          17.077  26.305  12.434  0.00  0.00     0.083 H 
ATOM     54  H20 ROC d          16.078  24.318  13.460  0.00  0.00     0.084 H 
ENDBRANCH  41  44
ENDBRANCH   5  41
ENDBRANCH   1   5
BRANCH   1  55
ATOM     55  C24 ROC d          15.088  20.787  16.643  0.00  0.00     0.110 C 
ATOM     56  H25 ROC d          16.182  20.680  16.655  0.00  0.00     0.080 H 
ATOM     57  H26 ROC d          14.679  20.279  15.758  0.00  0.00     0.080 H 
BRANCH  55  58
ATOM     58  N5  ROC d          14.546  20.173  17.827  0.00  0.00    -0.055 N 
ATOM     59  C25 ROC d          13.553  19.084  17.533  0.00  0.00     0.180 C 
ATOM     60  C27 ROC d          13.044  18.509  18.810  0.00  0.00    -0.026 C 
ATOM     61  H27 ROC d          14.052  18.295  16.951  0.00  0.00     0.100 H 
ATOM     62  C28 ROC d          14.116  17.991  19.723  0.00  0.00    -0.047 C 
ATOM     63  H28 ROC d          12.366  17.678  18.568  0.00  0.00     0.037 H 
ATOM     64  H29 ROC d          12.487  19.294  19.343  0.00  0.00     0.037 H 
ATOM     65  C29 ROC d          13.593  17.466  21.054  0.00  0.00    -0.061 C 
ATOM     66  C33 ROC d          15.117  19.137  19.925  0.00  0.00    -0.027 C 
ATOM     67  H30 ROC d          14.626  17.157  19.219  0.00  0.00     0.040 H 
ATOM     68  C30 ROC d          13.143  18.548  22.010  0.00  0.00    -0.065 C 
ATOM     69  H31 ROC d          14.395  16.891  21.538  0.00  0.00     0.033 H 
ATOM     70  H32 ROC d          12.737  16.805  20.853  0.00  0.00     0.033 H 
ATOM     71  C31 ROC d          14.236  19.554  22.241  0.00  0.00    -0.065 C 
ATOM     72  H33 ROC d          12.869  18.088  22.970  0.00  0.00     0.033 H 
ATOM     73  H34 ROC d          12.267  19.060  21.586  0.00  0.00     0.033 H 
ATOM     74  C32 ROC d          14.592  20.146  20.885  0.00  0.00    -0.060 C 
ATOM     75  H35 ROC d          15.115  19.061  22.681  0.00  0.00     0.033 H 
ATOM     76  H36 ROC d          13.883  20.346  22.918  0.00  0.00     0.033 H 
ATOM     77  H37 ROC d          15.359  20.920  21.032  0.00  0.00     0.033 H 
ATOM     78  H38 ROC d          13.689  20.601  20.453  0.00  0.00     0.033 H 
ATOM     79  C34 ROC d          15.621  19.667  18.644  0.00  0.00     0.088 C 
ATOM     80  H39 ROC d          15.994  18.693  20.418  0.00  0.00     0.043 H 
ATOM     81  H40 ROC d          16.330  20.482  18.849  0.00  0.00     0.076 H 
ATOM     82  H41 ROC d          16.136  18.861  18.101  0.00  0.00     0.076 H 
ATOM     83  H24 ROC d          14.065  20.888  18.347  0.00  0.00     0.281 HD
BRANCH  59  84
ATOM     84  C26 ROC d          12.361  19.627  16.728  0.00  0.00     0.249 C 
ATOM     85  O5  ROC d          11.483  20.294  17.251  0.00  0.00    -0.271 OA
ATOM     86  N6  ROC d          12.393  19.342  15.403  0.00  0.00    -0.351 N 
ATOM     87  H42 ROC d          13.207  18.882  15.046  0.00  0.00     0.163 HD
BRANCH  86  88
ATOM     88  C35 ROC d          11.330  19.657  14.466  0.00  0.00     0.022 C 
BRANCH  88  89
ATOM     89  C36 ROC d          11.695  19.099  13.108  0.00  0.00    -0.054 C 
ATOM     90  H43 ROC d          10.813  19.125  12.451  0.00  0.00     0.030 H 
ATOM     91  H44 ROC d          12.039  18.059  13.219  0.00  0.00     0.030 H 
ATOM     92  H45 ROC d          12.498  19.706  12.666  0.00  0.00     0.030 H 
ENDBRANCH  88  89
BRANCH  88  93
ATOM     93  C37 ROC d          11.227  21.155  14.332  0.00  0.00    -0.054 C 
ATOM     94  H46 ROC d          10.531  21.543  15.090  0.00  0.00     0.030 H 
ATOM     95  H47 ROC d          10.854  21.408  13.328  0.00  0.00     0.030 H 
ATOM     96  H48 ROC d          12.219  21.606  14.479  0.00  0.00     0.030 H 
ENDBRANCH  88  93
BRANCH  88  97
ATOM     97  C38 ROC d          10.059  19.023  14.955  0.00  0.00    -0.054 C 
ATOM     98  H49 ROC d           9.290  19.091  14.170  0.00  0.00     0.030 H 
ATOM     99  H50 ROC d           9.710  19.549  15.856  0.00  0.00     0.030 H 
ATOM    100  H51 ROC d          10.245  17.966  15.195  0.00  0.00     0.030 H 
ENDBRANCH  88  97
ENDBRANCH  86  88
ENDBRANCH  59  84
ENDBRANCH  55  58
ENDBRANCH   1  55
TORSDOF 17
ENDMDL
MODEL 5
REMARK VINA RESULT:      -9.2      2.211      8.097
REMARK  17 active torsions:
REMARK  status: ('A' for Active; 'I' for Inactive)
REMARK    1  A    between atoms: C1_2  and  C2_4 
REMARK       I    between atoms: N2_13  and  C1_2 
REMARK    2  A    between atoms: C11_14  and  N2_13 
REMARK    3  A    between atoms: C12_15  and  C11_14 
REMARK    4  A    between atoms: C11_14  and  C13_17 
REMARK       I    between atoms: N4_24  and  C12_15 
REMARK    5  A    between atoms: C13_17  and  C14_18 
REMARK       I    between atoms: C14_18  and  N3_20 
REMARK    6  A    between atoms: C15_21  and  O4_22 
REMARK    7  A    between atoms: C16_23  and  C15_21 
REMARK    8  A    between atoms: C15_21  and  C24_33 
REMARK    9  A    between atoms: C16_23  and  N4_24 
REMARK   10  A    between atoms: C16_23  and  C17_25 
REMARK   11  A    between atoms: C17_25  and  C18_26 
REMARK   12  A    between atoms: C24_33  and  N5_32 
REMARK   13  A    between atoms: C25_34  and  C26_35 
REMARK       I    between atoms: C26_35  and  N6_45 
REMARK   14  A    between atoms: N6_45  and  C35_46 
REMARK   15  A    between atoms: C35_46  and  C36_47 
REMARK   16  A    between atoms: C35_46  and  C37_48 
REMARK   17  A    between atoms: C35_46  and  C38_49 
ROOT
ATOM      1  C15 ROC d          17.554  24.704  16.707  0.00  0.00     0.078 C 
ATOM      2  H13 ROC d          17.409  23.828  17.355  0.00  0.00     0.088 H 
ENDROOT
BRANCH   1   3
ATOM      3  O4  ROC d          16.401  25.527  16.827  0.00  0.00    -0.392 OA
ATOM      4  H14 ROC d          16.431  25.995  17.654  0.00  0.00     0.210 HD
ENDBRANCH   1   3
BRANCH   1   5
ATOM      5  C16 ROC d          17.696  24.186  15.271  0.00  0.00     0.042 C 
ATOM      6  H15 ROC d          18.592  23.551  15.211  0.00  0.00     0.077 H 
BRANCH   5   7
ATOM      7  N4  ROC d          16.498  23.398  14.944  0.00  0.00    -0.352 N 
ATOM      8  C12 ROC d          16.352  22.140  15.353  0.00  0.00     0.241 C 
ATOM      9  O2  ROC d          17.165  21.460  16.019  0.00  0.00    -0.271 OA
ATOM     10  H16 ROC d          15.772  23.819  14.400  0.00  0.00     0.163 HD
BRANCH   8  11
ATOM     11  C11 ROC d          15.054  21.453  14.936  0.00  0.00     0.097 C 
ATOM     12  H8  ROC d          15.274  20.728  14.139  0.00  0.00     0.088 H 
BRANCH  11  13
ATOM     13  N2  ROC d          14.560  20.739  16.072  0.00  0.00    -0.342 N 
ATOM     14  C1  ROC d          13.962  21.327  17.127  0.00  0.00     0.271 C 
ATOM     15  O1  ROC d          13.895  22.563  17.279  0.00  0.00    -0.266 OA
ATOM     16  H7  ROC d          14.663  19.744  16.083  0.00  0.00     0.163 HD
BRANCH  14  17
ATOM     17  C2  ROC d          13.415  20.337  18.076  0.00  0.00     0.125 C 
ATOM     18  N1  ROC d          14.046  20.097  19.250  0.00  0.00    -0.243 NA
ATOM     19  C10 ROC d          13.579  19.184  20.140  0.00  0.00     0.068 A 
ATOM     20  C5  ROC d          12.409  18.478  19.851  0.00  0.00    -0.007 A 
ATOM     21  C9R ROC d          14.213  18.958  21.368  0.00  0.00    -0.054 A 
ATOM     22  C4  ROC d          11.777  18.702  18.636  0.00  0.00    -0.068 C 
ATOM     23  C6  ROC d          11.977  17.525  20.751  0.00  0.00    -0.071 A 
ATOM     24  C3  ROC d          12.204  19.693  17.743  0.00  0.00    -0.049 C 
ATOM     25  H2  ROC d          10.923  18.089  18.370  0.00  0.00     0.085 H 
ATOM     26  H1  ROC d          11.641  19.947  16.853  0.00  0.00     0.087 H 
ATOM     27  C7  ROC d          12.584  17.322  21.972  0.00  0.00    -0.082 A 
ATOM     28  H3  ROC d          11.125  16.910  20.486  0.00  0.00     0.084 H 
ATOM     29  C8  ROC d          13.740  18.017  22.216  0.00  0.00    -0.081 A 
ATOM     30  H4  ROC d          12.165  16.643  22.706  0.00  0.00     0.083 H 
ATOM     31  H5  ROC d          14.296  17.804  23.122  0.00  0.00     0.083 H 
ATOM     32  H6  ROC d          15.086  19.541  21.640  0.00  0.00     0.087 H 
ENDBRANCH  14  17
ENDBRANCH  11  13
BRANCH  11  33
ATOM     33  C13 ROC d          14.077  22.461  14.385  0.00  0.00     0.036 C 
ATOM     34  H9  ROC d          14.564  23.075  13.612  0.00  0.00     0.051 H 
ATOM     35  H10 ROC d          13.710  23.111  15.193  0.00  0.00     0.051 H 
BRANCH  33  36
ATOM     36  C14 ROC d          12.960  21.709  13.799  0.00  0.00     0.217 C 
ATOM     37  O3  ROC d          12.977  20.655  13.147  0.00  0.00    -0.274 OA
ATOM     38  N3  ROC d          11.801  22.218  13.948  0.00  0.00    -0.370 N 
ATOM     39  H11 ROC d          10.999  21.754  13.572  0.00  0.00     0.159 HD
ATOM     40  H12 ROC d          11.694  23.081  14.441  0.00  0.00     0.159 HD
ENDBRANCH  33  36
ENDBRANCH  11  33
ENDBRANCH   8  11
ENDBRANCH   5   7
BRANCH   5  41
ATOM     41  C17 ROC d          17.805  25.297  14.230  0.00  0.00    -0.020 C 
ATOM     42  H17 ROC d          17.066  26.072  14.476  0.00  0.00     0.043 H 
ATOM     43  H18 ROC d          17.574  24.868  13.244  0.00  0.00     0.043 H 
BRANCH  41  44
ATOM     44  C18 ROC d          19.161  25.947  14.154  0.00  0.00    -0.056 A 
ATOM     45  C19 ROC d          20.299  25.185  13.980  0.00  0.00    -0.077 A 
ATOM     46  C21 ROC d          21.530  25.768  13.954  0.00  0.00    -0.082 A 
ATOM     47  H19 ROC d          20.211  24.111  13.863  0.00  0.00     0.084 H 
ATOM     48  C23 ROC d          21.642  27.127  14.061  0.00  0.00    -0.083 A 
ATOM     49  H21 ROC d          22.419  25.155  13.848  0.00  0.00     0.083 H 
ATOM     50  C22 ROC d          20.525  27.894  14.182  0.00  0.00    -0.082 A 
ATOM     51  H23 ROC d          22.621  27.593  14.049  0.00  0.00     0.083 H 
ATOM     52  C20 ROC d          19.289  27.305  14.247  0.00  0.00    -0.077 A 
ATOM     53  H22 ROC d          20.613  28.973  14.227  0.00  0.00     0.083 H 
ATOM     54  H20 ROC d          18.406  27.920  14.374  0.00  0.00     0.084 H 
ENDBRANCH  41  44
ENDBRANCH   5  41
ENDBRANCH   1   5
BRANCH   1  55
ATOM     55  C24 ROC d          18.779  25.427  17.207  0.00  0.00     0.110 C 
ATOM     56  H25 ROC d          18.501  26.455  17.481  0.00  0.00     0.080 H 
ATOM     57  H26 ROC d          19.532  25.452  16.405  0.00  0.00     0.080 H 
BRANCH  55  58
ATOM     58  N5  ROC d          19.345  24.773  18.357  0.00  0.00    -0.055 N 
ATOM     59  C25 ROC d          20.102  25.705  19.261  0.00  0.00     0.180 C 
ATOM     60  C27 ROC d          20.654  24.945  20.419  0.00  0.00    -0.026 C 
ATOM     61  H27 ROC d          19.416  26.481  19.628  0.00  0.00     0.100 H 
ATOM     62  C28 ROC d          19.624  24.192  21.208  0.00  0.00    -0.047 C 
ATOM     63  H28 ROC d          21.152  25.657  21.093  0.00  0.00     0.037 H 
ATOM     64  H29 ROC d          21.391  24.224  20.038  0.00  0.00     0.037 H 
ATOM     65  C29 ROC d          20.203  23.365  22.349  0.00  0.00    -0.061 C 
ATOM     66  C33 ROC d          18.857  23.313  20.210  0.00  0.00    -0.027 C 
ATOM     67  H30 ROC d          18.927  24.919  21.650  0.00  0.00     0.040 H 
ATOM     68  C30 ROC d          20.935  22.121  21.899  0.00  0.00    -0.065 C 
ATOM     69  H31 ROC d          19.378  23.061  23.009  0.00  0.00     0.033 H 
ATOM     70  H32 ROC d          20.908  23.997  22.910  0.00  0.00     0.033 H 
ATOM     71  C31 ROC d          20.059  21.263  21.029  0.00  0.00    -0.065 C 
ATOM     72  H33 ROC d          21.238  21.543  22.785  0.00  0.00     0.033 H 
ATOM     73  H34 ROC d          21.829  22.415  21.330  0.00  0.00     0.033 H 
ATOM     74  C32 ROC d          19.651  22.112  19.833  0.00  0.00    -0.060 C 
ATOM     75  H35 ROC d          19.166  20.946  21.589  0.00  0.00     0.033 H 
ATOM     76  H36 ROC d          20.614  20.376  20.691  0.00  0.00     0.033 H 
ATOM     77  H37 ROC d          19.046  21.492  19.155  0.00  0.00     0.033 H 
ATOM     78  H38 ROC d          20.561  22.444  19.313  0.00  0.00     0.033 H 
ATOM     79  C34 ROC d          18.304  24.097  19.090  0.00  0.00     0.088 C 
ATOM     80  H39 ROC d          17.982  22.927  20.753  0.00  0.00     0.043 H 
ATOM     81  H40 ROC d          17.769  23.419  18.409  0.00  0.00     0.076 H 
ATOM     82  H41 ROC d          17.602  24.845  19.489  0.00  0.00     0.076 H 
ATOM     83  H24 ROC d          19.996  24.080  18.024  0.00  0.00     0.281 HD
BRANCH  59  84
ATOM     84  C26 ROC d          21.267  26.374  18.513  0.00  0.00     0.249 C 
ATOM     85  O5  ROC d          21.081  27.271  17.706  0.00  0.00    -0.271 OA
ATOM     86  N6  ROC d          22.498  25.920  18.855  0.00  0.00    -0.351 N 
ATOM     87  H42 ROC d          22.558  25.261  19.604  0.00  0.00     0.163 HD
BRANCH  86  88
ATOM     88  C35 ROC d          23.734  26.326  18.211  0.00  0.00     0.022 C 
BRANCH  88  89
ATOM     89  C36 ROC d          24.468  27.285  19.122  0.00  0.00    -0.054 C 
ATOM     90  H43 ROC d          24.442  26.904  20.154  0.00  0.00     0.030 H 
ATOM     91  H44 ROC d          23.982  28.272  19.083  0.00  0.00     0.030 H 
ATOM     92  H45 ROC d          25.513  27.378  18.793  0.00  0.00     0.030 H 
ENDBRANCH  88  89
BRANCH  88  93
ATOM     93  C37 ROC d          23.402  27.066  16.941  0.00  0.00    -0.054 C 
ATOM     94  H46 ROC d          24.186  27.808  16.733  0.00  0.00     0.030 H 
ATOM     95  H47 ROC d          22.435  27.577  17.057  0.00  0.00     0.030 H 
ATOM     96  H48 ROC d          23.342  26.353  16.106  0.00  0.00     0.030 H 
ENDBRANCH  88  93
BRANCH  88  97
ATOM     97  C38 ROC d          24.574  25.103  17.974  0.00  0.00    -0.054 C 
ATOM     98  H49 ROC d          24.563  24.852  16.902  0.00  0.00     0.030 H 
ATOM     99  H50 ROC d          24.165  24.260  18.551  0.00  0.00     0.030 H 
ATOM    100  H51 ROC d          25.607  25.300  18.294  0.00  0.00     0.030 H 
ENDBRANCH  88  97
ENDBRANCH  86  88
ENDBRANCH  59  84
ENDBRANCH  55  58
ENDBRANCH   1  55
TORSDOF 17
ENDMDL
MODEL 6
REMARK VINA RESULT:      -8.3      2.512      8.791
REMARK  17 active torsions:
REMARK  status: ('A' for Active; 'I' for Inactive)
REMARK    1  A    between atoms: C1_2  and  C2_4 
REMARK       I    between atoms: N2_13  and  C1_2 
REMARK    2  A    between atoms: C11_14  and  N2_13 
REMARK    3  A    between atoms: C12_15  and  C11_14 
REMARK    4  A    between atoms: C11_14  and  C13_17 
REMARK       I    between atoms: N4_24  and  C12_15 
REMARK    5  A    between atoms: C13_17  and  C14_18 
REMARK       I    between atoms: C14_18  and  N3_20 
REMARK    6  A    between atoms: C15_21  and  O4_22 
REMARK    7  A    between atoms: C16_23  and  C15_21 
REMARK    8  A    between atoms: C15_21  and  C24_33 
REMARK    9  A    between atoms: C16_23  and  N4_24 
REMARK   10  A    between atoms: C16_23  and  C17_25 
REMARK   11  A    between atoms: C17_25  and  C18_26 
REMARK   12  A    between atoms: C24_33  and  N5_32 
REMARK   13  A    between atoms: C25_34  and  C26_35 
REMARK       I    between atoms: C26_35  and  N6_45 
REMARK   14  A    between atoms: N6_45  and  C35_46 
REMARK   15  A    between atoms: C35_46  and  C36_47 
REMARK   16  A    between atoms: C35_46  and  C37_48 
REMARK   17  A    between atoms: C35_46  and  C38_49 
ROOT
ATOM      1  C15 ROC d          18.408  22.983  19.194  0.00  0.00     0.078 C 
ATOM      2  H13 ROC d          18.757  23.060  18.154  0.00  0.00     0.088 H 
ENDROOT
BRANCH   1   3
ATOM      3  O4  ROC d          18.802  21.710  19.689  0.00  0.00    -0.392 OA
ATOM      4  H14 ROC d          18.978  21.128  18.959  0.00  0.00     0.210 HD
ENDBRANCH   1   3
BRANCH   1   5
ATOM      5  C16 ROC d          16.880  23.100  19.170  0.00  0.00     0.042 C 
ATOM      6  H15 ROC d          16.605  24.163  19.243  0.00  0.00     0.077 H 
BRANCH   5   7
ATOM      7  N4  ROC d          16.394  22.542  17.898  0.00  0.00    -0.352 N 
ATOM      8  C12 ROC d          16.083  23.318  16.864  0.00  0.00     0.241 C 
ATOM      9  O2  ROC d          16.129  24.568  16.813  0.00  0.00    -0.271 OA
ATOM     10  H16 ROC d          16.296  21.551  17.809  0.00  0.00     0.163 HD
BRANCH   8  11
ATOM     11  C11 ROC d          15.595  22.592  15.613  0.00  0.00     0.097 C 
ATOM     12  H8  ROC d          16.434  22.033  15.174  0.00  0.00     0.088 H 
BRANCH  11  13
ATOM     13  N2  ROC d          14.594  21.657  16.019  0.00  0.00    -0.342 N 
ATOM     14  C1  ROC d          13.371  21.575  15.457  0.00  0.00     0.271 C 
ATOM     15  O1  ROC d          12.945  22.389  14.614  0.00  0.00    -0.266 OA
ATOM     16  H7  ROC d          14.813  21.026  16.763  0.00  0.00     0.163 HD
BRANCH  14  17
ATOM     17  C2  ROC d          12.604  20.421  15.967  0.00  0.00     0.125 C 
ATOM     18  N1  ROC d          12.594  20.141  17.292  0.00  0.00    -0.243 NA
ATOM     19  C10 ROC d          11.910  19.081  17.795  0.00  0.00     0.068 A 
ATOM     20  C5  ROC d          11.186  18.257  16.931  0.00  0.00    -0.007 A 
ATOM     21  C9R ROC d          11.873  18.811  19.169  0.00  0.00    -0.054 A 
ATOM     22  C4  ROC d          11.219  18.525  15.569  0.00  0.00    -0.068 C 
ATOM     23  C6  ROC d          10.535  17.161  17.459  0.00  0.00    -0.071 A 
ATOM     24  C3  ROC d          11.856  19.657  15.046  0.00  0.00    -0.049 C 
ATOM     25  H2  ROC d          10.735  17.834  14.888  0.00  0.00     0.085 H 
ATOM     26  H1  ROC d          11.780  19.928  13.999  0.00  0.00     0.087 H 
ATOM     27  C7  ROC d          10.473  16.910  18.813  0.00  0.00    -0.082 A 
ATOM     28  H3  ROC d          10.051  16.468  16.780  0.00  0.00     0.084 H 
ATOM     29  C8  ROC d          11.211  17.726  19.632  0.00  0.00    -0.081 A 
ATOM     30  H4  ROC d           9.869  16.104  19.212  0.00  0.00     0.083 H 
ATOM     31  H5  ROC d          11.265  17.493  20.689  0.00  0.00     0.083 H 
ATOM     32  H6  ROC d          12.375  19.473  19.863  0.00  0.00     0.087 H 
ENDBRANCH  14  17
ENDBRANCH  11  13
BRANCH  11  33
ATOM     33  C13 ROC d          15.113  23.583  14.582  0.00  0.00     0.036 C 
ATOM     34  H9  ROC d          15.306  24.610  14.928  0.00  0.00     0.051 H 
ATOM     35  H10 ROC d          14.035  23.451  14.408  0.00  0.00     0.051 H 
BRANCH  33  36
ATOM     36  C14 ROC d          15.859  23.321  13.344  0.00  0.00     0.217 C 
ATOM     37  O3  ROC d          15.779  22.359  12.567  0.00  0.00    -0.274 OA
ATOM     38  N3  ROC d          16.742  24.183  13.028  0.00  0.00    -0.370 N 
ATOM     39  H11 ROC d          17.284  24.063  12.196  0.00  0.00     0.159 HD
ATOM     40  H12 ROC d          16.892  24.981  13.611  0.00  0.00     0.159 HD
ENDBRANCH  33  36
ENDBRANCH  11  33
ENDBRANCH   8  11
ENDBRANCH   5   7
BRANCH   5  41
ATOM     41  C17 ROC d          16.192  22.332  20.294  0.00  0.00    -0.020 C 
ATOM     42  H17 ROC d          15.248  22.845  20.534  0.00  0.00     0.043 H 
ATOM     43  H18 ROC d          16.851  22.347  21.175  0.00  0.00     0.043 H 
BRANCH  41  44
ATOM     44  C18 ROC d          15.877  20.896  19.967  0.00  0.00    -0.056 A 
ATOM     45  C19 ROC d          15.461  20.024  20.951  0.00  0.00    -0.077 A 
ATOM     46  C21 ROC d          15.217  18.715  20.665  0.00  0.00    -0.082 A 
ATOM     47  H19 ROC d          15.327  20.385  21.965  0.00  0.00     0.084 H 
ATOM     48  C23 ROC d          15.347  18.264  19.379  0.00  0.00    -0.083 A 
ATOM     49  H21 ROC d          14.921  18.032  21.453  0.00  0.00     0.083 H 
ATOM     50  C22 ROC d          15.707  19.125  18.390  0.00  0.00    -0.082 A 
ATOM     51  H23 ROC d          15.162  17.221  19.149  0.00  0.00     0.083 H 
ATOM     52  C20 ROC d          15.990  20.433  18.685  0.00  0.00    -0.077 A 
ATOM     53  H22 ROC d          15.771  18.776  17.366  0.00  0.00     0.083 H 
ATOM     54  H20 ROC d          16.306  21.107  17.897  0.00  0.00     0.084 H 
ENDBRANCH  41  44
ENDBRANCH   5  41
ENDBRANCH   1   5
BRANCH   1  55
ATOM     55  C24 ROC d          19.081  24.087  19.970  0.00  0.00     0.110 C 
ATOM     56  H25 ROC d          18.969  23.888  21.046  0.00  0.00     0.080 H 
ATOM     57  H26 ROC d          18.598  25.044  19.722  0.00  0.00     0.080 H 
BRANCH  55  58
ATOM     58  N5  ROC d          20.482  24.176  19.655  0.00  0.00    -0.055 N 
ATOM     59  C25 ROC d          20.875  25.491  19.043  0.00  0.00     0.180 C 
ATOM     60  C27 ROC d          22.336  25.492  18.747  0.00  0.00    -0.026 C 
ATOM     61  H27 ROC d          20.646  26.297  19.755  0.00  0.00     0.100 H 
ATOM     62  C28 ROC d          23.205  25.201  19.935  0.00  0.00    -0.047 C 
ATOM     63  H28 ROC d          22.607  26.483  18.356  0.00  0.00     0.037 H 
ATOM     64  H29 ROC d          22.533  24.728  17.981  0.00  0.00     0.037 H 
ATOM     65  C29 ROC d          24.692  25.138  19.612  0.00  0.00    -0.061 C 
ATOM     66  C33 ROC d          22.704  23.880  20.537  0.00  0.00    -0.027 C 
ATOM     67  H30 ROC d          23.063  26.004  20.673  0.00  0.00     0.040 H 
ATOM     68  C30 ROC d          25.108  23.894  18.859  0.00  0.00    -0.065 C 
ATOM     69  H31 ROC d          25.253  25.173  20.557  0.00  0.00     0.033 H 
ATOM     70  H32 ROC d          24.950  26.015  19.000  0.00  0.00     0.033 H 
ATOM     71  C31 ROC d          24.683  22.652  19.591  0.00  0.00    -0.065 C 
ATOM     72  H33 ROC d          26.202  23.890  18.749  0.00  0.00     0.033 H 
ATOM     73  H34 ROC d          24.640  23.904  17.864  0.00  0.00     0.033 H 
ATOM     74  C32 ROC d          23.169  22.716  19.735  0.00  0.00    -0.060 C 
ATOM     75  H35 ROC d          25.155  22.619  20.583  0.00  0.00     0.033 H 
ATOM     76  H36 ROC d          24.970  21.759  19.017  0.00  0.00     0.033 H 
ATOM     77  H37 ROC d          22.826  21.794  20.227  0.00  0.00     0.033 H 
ATOM     78  H38 ROC d          22.724  22.783  18.731  0.00  0.00     0.033 H 
ATOM     79  C34 ROC d          21.262  23.919  20.840  0.00  0.00     0.088 C 
ATOM     80  H39 ROC d          23.203  23.781  21.512  0.00  0.00     0.043 H 
ATOM     81  H40 ROC d          20.960  22.951  21.265  0.00  0.00     0.076 H 
ATOM     82  H41 ROC d          21.072  24.717  21.574  0.00  0.00     0.076 H 
ATOM     83  H24 ROC d          20.688  23.456  18.981  0.00  0.00     0.281 HD
BRANCH  59  84
ATOM     84  C26 ROC d          20.108  25.741  17.734  0.00  0.00     0.249 C 
ATOM     85  O5  ROC d          18.891  25.669  17.679  0.00  0.00    -0.271 OA
ATOM     86  N6  ROC d          20.886  26.088  16.678  0.00  0.00    -0.351 N 
ATOM     87  H42 ROC d          21.861  26.228  16.845  0.00  0.00     0.163 HD
BRANCH  86  88
ATOM     88  C35 ROC d          20.400  26.270  15.322  0.00  0.00     0.022 C 
BRANCH  88  89
ATOM     89  C36 ROC d          19.082  25.540  15.174  0.00  0.00    -0.054 C 
ATOM     90  H43 ROC d          18.311  26.243  14.825  0.00  0.00     0.030 H 
ATOM     91  H44 ROC d          18.783  25.122  16.147  0.00  0.00     0.030 H 
ATOM     92  H45 ROC d          19.194  24.726  14.444  0.00  0.00     0.030 H 
ENDBRANCH  88  89
BRANCH  88  93
ATOM     93  C37 ROC d          21.380  25.641  14.365  0.00  0.00    -0.054 C 
ATOM     94  H46 ROC d          21.295  26.127  13.382  0.00  0.00     0.030 H 
ATOM     95  H47 ROC d          21.156  24.569  14.263  0.00  0.00     0.030 H 
ATOM     96  H48 ROC d          22.402  25.768  14.750  0.00  0.00     0.030 H 
ENDBRANCH  88  93
BRANCH  88  97
ATOM     97  C38 ROC d          20.202  27.739  15.078  0.00  0.00    -0.054 C 
ATOM     98  H49 ROC d          20.415  28.297  16.002  0.00  0.00     0.030 H 
ATOM     99  H50 ROC d          19.161  27.922  14.770  0.00  0.00     0.030 H 
ATOM    100  H51 ROC d          20.884  28.073  14.282  0.00  0.00     0.030 H 
ENDBRANCH  88  97
ENDBRANCH  86  88
ENDBRANCH  59  84
ENDBRANCH  55  58
ENDBRANCH   1  55
TORSDOF 17
ENDMDL
MODEL 7
REMARK VINA RESULT:      -8.0      2.398      8.564
REMARK  17 active torsions:
REMARK  status: ('A' for Active; 'I' for Inactive)
REMARK    1  A    between atoms: C1_2  and  C2_4 
REMARK       I    between atoms: N2_13  and  C1_2 
REMARK    2  A    between atoms: C11_14  and  N2_13 
REMARK    3  A    between atoms: C12_15  and  C11_14 
REMARK    4  A    between atoms: C11_14  and  C13_17 
REMARK       I    between atoms: N4_24  and  C12_15 
REMARK    5  A    between atoms: C13_17  and  C14_18 
REMARK       I    between atoms: C14_18  and  N3_20 
REMARK    6  A    between atoms: C15_21  and  O4_22 
REMARK    7  A    between atoms: C16_23  and  C15_21 
REMARK    8  A    between atoms: C15_21  and  C24_33 
REMARK    9  A    between atoms: C16_23  and  N4_24 
REMARK   10  A    between atoms: C16_23  and  C17_25 
REMARK   11  A    between atoms: C17_25  and  C18_26 
REMARK   12  A    between atoms: C24_33  and  N5_32 
REMARK   13  A    between atoms: C25_34  and  C26_35 
REMARK       I    between atoms: C26_35  and  N6_45 
REMARK   14  A    between atoms: N6_45  and  C35_46 
REMARK   15  A    between atoms: C35_46  and  C36_47 
REMARK   16  A    between atoms: C35_46  and  C37_48 
REMARK   17  A    between atoms: C35_46  and  C38_49 
ROOT
ATOM      1  C15 ROC d          17.928  23.836  16.522  0.00  0.00     0.078 C 
ATOM      2  H13 ROC d          17.215  23.081  16.885  0.00  0.00     0.088 H 
ENDROOT
BRANCH   1   3
ATOM      3  O4  ROC d          17.596  25.075  17.136  0.00  0.00    -0.392 OA
ATOM      4  H14 ROC d          18.119  25.769  16.752  0.00  0.00     0.210 HD
ENDBRANCH   1   3
BRANCH   1   5
ATOM      5  C16 ROC d          17.753  23.928  15.001  0.00  0.00     0.042 C 
ATOM      6  H15 ROC d          18.540  23.331  14.518  0.00  0.00     0.077 H 
BRANCH   5   7
ATOM      7  N4  ROC d          16.429  23.389  14.655  0.00  0.00    -0.352 N 
ATOM      8  C12 ROC d          16.019  22.201  15.091  0.00  0.00     0.241 C 
ATOM      9  O2  ROC d          16.657  21.392  15.802  0.00  0.00    -0.271 OA
ATOM     10  H16 ROC d          15.820  23.930  14.076  0.00  0.00     0.163 HD
BRANCH   8  11
ATOM     11  C11 ROC d          14.620  21.778  14.648  0.00  0.00     0.097 C 
ATOM     12  H8  ROC d          14.709  21.085  13.799  0.00  0.00     0.088 H 
BRANCH  11  13
ATOM     13  N2  ROC d          14.016  21.078  15.739  0.00  0.00    -0.342 N 
ATOM     14  C1  ROC d          13.117  20.085  15.587  0.00  0.00     0.271 C 
ATOM     15  O1  ROC d          12.626  19.763  14.486  0.00  0.00    -0.266 OA
ATOM     16  H7  ROC d          14.275  21.341  16.668  0.00  0.00     0.163 HD
BRANCH  14  17
ATOM     17  C2  ROC d          12.780  19.443  16.873  0.00  0.00     0.125 C 
ATOM     18  N1  ROC d          13.624  19.544  17.927  0.00  0.00    -0.243 NA
ATOM     19  C10 ROC d          13.353  18.955  19.121  0.00  0.00     0.068 A 
ATOM     20  C5  ROC d          12.168  18.234  19.278  0.00  0.00    -0.007 A 
ATOM     21  C9R ROC d          14.210  19.086  20.220  0.00  0.00    -0.054 A 
ATOM     22  C4  ROC d          11.315  18.105  18.191  0.00  0.00    -0.068 C 
ATOM     23  C6  ROC d          11.934  17.609  20.486  0.00  0.00    -0.071 A 
ATOM     24  C3  ROC d          11.545  18.769  16.979  0.00  0.00    -0.049 C 
ATOM     25  H2  ROC d          10.442  17.469  18.283  0.00  0.00     0.085 H 
ATOM     26  H1  ROC d          10.819  18.764  16.173  0.00  0.00     0.087 H 
ATOM     27  C7  ROC d          12.762  17.760  21.577  0.00  0.00    -0.082 A 
ATOM     28  H3  ROC d          11.063  16.971  20.580  0.00  0.00     0.084 H 
ATOM     29  C8  ROC d          13.927  18.458  21.384  0.00  0.00    -0.081 A 
ATOM     30  H4  ROC d          12.505  17.347  22.545  0.00  0.00     0.083 H 
ATOM     31  H5  ROC d          14.646  18.507  22.193  0.00  0.00     0.083 H 
ATOM     32  H6  ROC d          15.104  19.694  20.139  0.00  0.00     0.087 H 
ENDBRANCH  14  17
ENDBRANCH  11  13
BRANCH  11  33
ATOM     33  C13 ROC d          13.828  22.975  14.186  0.00  0.00     0.036 C 
ATOM     34  H9  ROC d          13.373  22.770  13.206  0.00  0.00     0.051 H 
ATOM     35  H10 ROC d          14.485  23.854  14.108  0.00  0.00     0.051 H 
BRANCH  33  36
ATOM     36  C14 ROC d          12.781  23.217  15.187  0.00  0.00     0.217 C 
ATOM     37  O3  ROC d          11.629  22.766  15.244  0.00  0.00    -0.274 OA
ATOM     38  N3  ROC d          13.076  24.033  16.121  0.00  0.00    -0.370 N 
ATOM     39  H11 ROC d          12.406  24.240  16.834  0.00  0.00     0.159 HD
ATOM     40  H12 ROC d          13.977  24.465  16.141  0.00  0.00     0.159 HD
ENDBRANCH  33  36
ENDBRANCH  11  33
ENDBRANCH   8  11
ENDBRANCH   5   7
BRANCH   5  41
ATOM     41  C17 ROC d          17.815  25.356  14.466  0.00  0.00    -0.020 C 
ATOM     42  H17 ROC d          17.143  25.980  15.072  0.00  0.00     0.043 H 
ATOM     43  H18 ROC d          17.467  25.347  13.422  0.00  0.00     0.043 H 
BRANCH  41  44
ATOM     44  C18 ROC d          19.188  25.973  14.498  0.00  0.00    -0.056 A 
ATOM     45  C19 ROC d          20.279  25.292  13.998  0.00  0.00    -0.077 A 
ATOM     46  C21 ROC d          21.528  25.831  14.065  0.00  0.00    -0.082 A 
ATOM     47  H19 ROC d          20.140  24.316  13.547  0.00  0.00     0.084 H 
ATOM     48  C23 ROC d          21.702  27.080  14.598  0.00  0.00    -0.083 A 
ATOM     49  H21 ROC d          22.382  25.273  13.697  0.00  0.00     0.083 H 
ATOM     50  C22 ROC d          20.629  27.783  15.048  0.00  0.00    -0.082 A 
ATOM     51  H23 ROC d          22.696  27.508  14.661  0.00  0.00     0.083 H 
ATOM     52  C20 ROC d          19.378  27.224  15.016  0.00  0.00    -0.077 A 
ATOM     53  H22 ROC d          20.763  28.787  15.433  0.00  0.00     0.083 H 
ATOM     54  H20 ROC d          18.531  27.778  15.403  0.00  0.00     0.084 H 
ENDBRANCH  41  44
ENDBRANCH   5  41
ENDBRANCH   1   5
BRANCH   1  55
ATOM     55  C24 ROC d          19.304  23.386  16.940  0.00  0.00     0.110 C 
ATOM     56  H25 ROC d          20.006  23.564  16.113  0.00  0.00     0.080 H 
ATOM     57  H26 ROC d          19.273  22.311  17.171  0.00  0.00     0.080 H 
BRANCH  55  58
ATOM     58  N5  ROC d          19.762  24.099  18.103  0.00  0.00    -0.055 N 
ATOM     59  C25 ROC d          20.126  23.201  19.251  0.00  0.00     0.180 C 
ATOM     60  C27 ROC d          20.584  24.022  20.407  0.00  0.00    -0.026 C 
ATOM     61  H27 ROC d          20.938  22.531  18.935  0.00  0.00     0.100 H 
ATOM     62  C28 ROC d          21.728  24.940  20.096  0.00  0.00    -0.047 C 
ATOM     63  H28 ROC d          20.899  23.340  21.211  0.00  0.00     0.037 H 
ATOM     64  H29 ROC d          19.737  24.631  20.754  0.00  0.00     0.037 H 
ATOM     65  C29 ROC d          22.146  25.824  21.264  0.00  0.00    -0.061 C 
ATOM     66  C33 ROC d          21.304  25.779  18.881  0.00  0.00    -0.027 C 
ATOM     67  H30 ROC d          22.598  24.328  19.818  0.00  0.00     0.040 H 
ATOM     68  C30 ROC d          21.178  26.945  21.567  0.00  0.00    -0.065 C 
ATOM     69  H31 ROC d          23.125  26.267  21.029  0.00  0.00     0.033 H 
ATOM     70  H32 ROC d          22.236  25.192  22.160  0.00  0.00     0.033 H 
ATOM     71  C31 ROC d          20.924  27.785  20.347  0.00  0.00    -0.065 C 
ATOM     72  H33 ROC d          21.602  27.581  22.359  0.00  0.00     0.033 H 
ATOM     73  H34 ROC d          20.227  26.515  21.913  0.00  0.00     0.033 H 
ATOM     74  C32 ROC d          20.360  26.859  19.278  0.00  0.00    -0.060 C 
ATOM     75  H35 ROC d          21.864  28.237  19.997  0.00  0.00     0.033 H 
ATOM     76  H36 ROC d          20.199  28.579  20.579  0.00  0.00     0.033 H 
ATOM     77  H37 ROC d          20.121  27.458  18.388  0.00  0.00     0.033 H 
ATOM     78  H38 ROC d          19.442  26.395  19.666  0.00  0.00     0.033 H 
ATOM     79  C34 ROC d          20.879  24.938  17.747  0.00  0.00     0.088 C 
ATOM     80  H39 ROC d          22.211  26.296  18.535  0.00  0.00     0.043 H 
ATOM     81  H40 ROC d          20.587  25.588  16.910  0.00  0.00     0.076 H 
ATOM     82  H41 ROC d          21.722  24.301  17.439  0.00  0.00     0.076 H 
ATOM     83  H24 ROC d          19.009  24.693  18.412  0.00  0.00     0.281 HD
BRANCH  59  84
ATOM     84  C26 ROC d          18.920  22.356  19.694  0.00  0.00     0.249 C 
ATOM     85  O5  ROC d          19.051  21.373  20.406  0.00  0.00    -0.271 OA
ATOM     86  N6  ROC d          17.717  22.816  19.270  0.00  0.00    -0.351 N 
ATOM     87  H42 ROC d          17.699  23.689  18.782  0.00  0.00     0.163 HD
BRANCH  86  88
ATOM     88  C35 ROC d          16.454  22.131  19.474  0.00  0.00     0.022 C 
BRANCH  88  89
ATOM     89  C36 ROC d          16.089  22.208  20.940  0.00  0.00    -0.054 C 
ATOM     90  H43 ROC d          16.960  21.929  21.551  0.00  0.00     0.030 H 
ATOM     91  H44 ROC d          15.258  21.516  21.148  0.00  0.00     0.030 H 
ATOM     92  H45 ROC d          15.782  23.234  21.189  0.00  0.00     0.030 H 
ENDBRANCH  88  89
BRANCH  88  93
ATOM     93  C37 ROC d          16.627  20.675  19.122  0.00  0.00    -0.054 C 
ATOM     94  H46 ROC d          17.672  20.490  18.832  0.00  0.00     0.030 H 
ATOM     95  H47 ROC d          15.963  20.419  18.284  0.00  0.00     0.030 H 
ATOM     96  H48 ROC d          16.374  20.054  19.994  0.00  0.00     0.030 H 
ENDBRANCH  88  93
BRANCH  88  97
ATOM     97  C38 ROC d          15.400  22.812  18.648  0.00  0.00    -0.054 C 
ATOM     98  H49 ROC d          14.538  22.139  18.526  0.00  0.00     0.030 H 
ATOM     99  H50 ROC d          15.814  23.061  17.659  0.00  0.00     0.030 H 
ATOM    100  H51 ROC d          15.078  23.734  19.154  0.00  0.00     0.030 H 
ENDBRANCH  88  97
ENDBRANCH  86  88
ENDBRANCH  59  84
ENDBRANCH  55  58
ENDBRANCH   1  55
TORSDOF 17
ENDMDL
MODEL 8
REMARK VINA RESULT:      -7.8      1.952      8.590
REMARK  17 active torsions:
REMARK  status: ('A' for Active; 'I' for Inactive)
REMARK    1  A    between atoms: C1_2  and  C2_4 
REMARK       I    between atoms: N2_13  and  C1_2 
REMARK    2  A    between atoms: C11_14  and  N2_13 
REMARK    3  A    between atoms: C12_15  and  C11_14 
REMARK    4  A    between atoms: C11_14  and  C13_17 
REMARK       I    between atoms: N4_24  and  C12_15 
REMARK    5  A    between atoms: C13_17  and  C14_18 
REMARK       I    between atoms: C14_18  and  N3_20 
REMARK    6  A    between atoms: C15_21  and  O4_22 
REMARK    7  A    between atoms: C16_23  and  C15_21 
REMARK    8  A    between atoms: C15_21  and  C24_33 
REMARK    9  A    between atoms: C16_23  and  N4_24 
REMARK   10  A    between atoms: C16_23  and  C17_25 
REMARK   11  A    between atoms: C17_25  and  C18_26 
REMARK   12  A    between atoms: C24_33  and  N5_32 
REMARK   13  A    between atoms: C25_34  and  C26_35 
REMARK       I    between atoms: C26_35  and  N6_45 
REMARK   14  A    between atoms: N6_45  and  C35_46 
REMARK   15  A    between atoms: C35_46  and  C36_47 
REMARK   16  A    between atoms: C35_46  and  C37_48 
REMARK   17  A    between atoms: C35_46  and  C38_49 
ROOT
ATOM      1  C15 ROC d          19.042  24.411  16.321  0.00  0.00     0.078 C 
ATOM      2  H13 ROC d          18.999  25.085  15.453  0.00  0.00     0.088 H 
ENDROOT
BRANCH   1   3
ATOM      3  O4  ROC d          20.182  23.576  16.165  0.00  0.00    -0.392 OA
ATOM      4  H14 ROC d          20.904  23.929  16.672  0.00  0.00     0.210 HD
ENDBRANCH   1   3
BRANCH   1   5
ATOM      5  C16 ROC d          17.758  23.572  16.307  0.00  0.00     0.042 C 
ATOM      6  H15 ROC d          17.920  22.688  15.673  0.00  0.00     0.077 H 
BRANCH   5   7
ATOM      7  N4  ROC d          17.464  23.155  17.687  0.00  0.00    -0.352 N 
ATOM      8  C12 ROC d          16.651  23.853  18.474  0.00  0.00     0.241 C 
ATOM      9  O2  ROC d          16.059  24.921  18.197  0.00  0.00    -0.271 OA
ATOM     10  H16 ROC d          17.888  22.321  18.043  0.00  0.00     0.163 HD
BRANCH   8  11
ATOM     11  C11 ROC d          16.444  23.293  19.879  0.00  0.00     0.097 C 
ATOM     12  H8  ROC d          15.935  24.050  20.494  0.00  0.00     0.088 H 
BRANCH  11  13
ATOM     13  N2  ROC d          15.587  22.154  19.767  0.00  0.00    -0.342 N 
ATOM     14  C1  ROC d          16.029  20.906  19.513  0.00  0.00     0.271 C 
ATOM     15  O1  ROC d          17.212  20.639  19.222  0.00  0.00    -0.266 OA
ATOM     16  H7  ROC d          14.604  22.291  19.885  0.00  0.00     0.163 HD
BRANCH  14  17
ATOM     17  C2  ROC d          14.945  19.907  19.607  0.00  0.00     0.125 C 
ATOM     18  N1  ROC d          13.906  19.944  18.739  0.00  0.00    -0.243 NA
ATOM     19  C10 ROC d          12.886  19.049  18.805  0.00  0.00     0.068 A 
ATOM     20  C5  ROC d          12.908  18.052  19.783  0.00  0.00    -0.007 A 
ATOM     21  C9R ROC d          11.827  19.068  17.888  0.00  0.00    -0.054 A 
ATOM     22  C4  ROC d          13.957  18.030  20.690  0.00  0.00    -0.068 C 
ATOM     23  C6  ROC d          11.840  17.182  19.857  0.00  0.00    -0.071 A 
ATOM     24  C3  ROC d          15.052  18.898  20.588  0.00  0.00    -0.049 C 
ATOM     25  H2  ROC d          13.928  17.316  21.506  0.00  0.00     0.085 H 
ATOM     26  H1  ROC d          15.925  18.800  21.223  0.00  0.00     0.087 H 
ATOM     27  C7  ROC d          10.812  17.181  18.938  0.00  0.00    -0.082 A 
ATOM     28  H3  ROC d          11.808  16.468  20.672  0.00  0.00     0.084 H 
ATOM     29  C8  ROC d          10.810  18.184  18.004  0.00  0.00    -0.081 A 
ATOM     30  H4  ROC d          10.039  16.421  18.954  0.00  0.00     0.083 H 
ATOM     31  H5  ROC d           9.963  18.271  17.333  0.00  0.00     0.083 H 
ATOM     32  H6  ROC d          11.823  19.793  17.083  0.00  0.00     0.087 H 
ENDBRANCH  14  17
ENDBRANCH  11  13
BRANCH  11  33
ATOM     33  C13 ROC d          17.771  22.989  20.527  0.00  0.00     0.036 C 
ATOM     34  H9  ROC d          18.542  22.842  19.756  0.00  0.00     0.051 H 
ATOM     35  H10 ROC d          17.691  22.081  21.143  0.00  0.00     0.051 H 
BRANCH  33  36
ATOM     36  C14 ROC d          18.117  24.140  21.371  0.00  0.00     0.217 C 
ATOM     37  O3  ROC d          19.185  24.406  21.940  0.00  0.00    -0.274 OA
ATOM     38  N3  ROC d          17.182  24.981  21.584  0.00  0.00    -0.370 N 
ATOM     39  H11 ROC d          17.353  25.786  22.150  0.00  0.00     0.159 HD
ATOM     40  H12 ROC d          16.278  24.834  21.183  0.00  0.00     0.159 HD
ENDBRANCH  33  36
ENDBRANCH  11  33
ENDBRANCH   8  11
ENDBRANCH   5   7
BRANCH   5  41
ATOM     41  C17 ROC d          16.539  24.333  15.794  0.00  0.00    -0.020 C 
ATOM     42  H17 ROC d          16.892  25.223  15.254  0.00  0.00     0.043 H 
ATOM     43  H18 ROC d          15.937  24.643  16.660  0.00  0.00     0.043 H 
BRANCH  41  44
ATOM     44  C18 ROC d          15.656  23.540  14.867  0.00  0.00    -0.056 A 
ATOM     45  C19 ROC d          14.417  23.097  15.283  0.00  0.00    -0.077 A 
ATOM     46  C21 ROC d          13.634  22.344  14.461  0.00  0.00    -0.082 A 
ATOM     47  H19 ROC d          14.063  23.352  16.275  0.00  0.00     0.084 H 
ATOM     48  C23 ROC d          14.061  22.054  13.194  0.00  0.00    -0.083 A 
ATOM     49  H21 ROC d          12.676  21.975  14.810  0.00  0.00     0.083 H 
ATOM     50  C22 ROC d          15.258  22.527  12.754  0.00  0.00    -0.082 A 
ATOM     51  H23 ROC d          13.444  21.447  12.540  0.00  0.00     0.083 H 
ATOM     52  C20 ROC d          16.062  23.252  13.594  0.00  0.00    -0.077 A 
ATOM     53  H22 ROC d          15.577  22.329  11.737  0.00  0.00     0.083 H 
ATOM     54  H20 ROC d          17.027  23.600  13.247  0.00  0.00     0.084 H 
ENDBRANCH  41  44
ENDBRANCH   5  41
ENDBRANCH   1   5
BRANCH   1  55
ATOM     55  C24 ROC d          19.179  25.276  17.548  0.00  0.00     0.110 C 
ATOM     56  H25 ROC d          18.673  24.784  18.391  0.00  0.00     0.080 H 
ATOM     57  H26 ROC d          18.706  26.249  17.353  0.00  0.00     0.080 H 
BRANCH  55  58
ATOM     58  N5  ROC d          20.560  25.489  17.892  0.00  0.00    -0.055 N 
ATOM     59  C25 ROC d          21.013  26.908  17.696  0.00  0.00     0.180 C 
ATOM     60  C27 ROC d          22.449  27.034  18.072  0.00  0.00    -0.026 C 
ATOM     61  H27 ROC d          20.409  27.566  18.337  0.00  0.00     0.100 H 
ATOM     62  C28 ROC d          22.762  26.587  19.470  0.00  0.00    -0.047 C 
ATOM     63  H28 ROC d          22.739  28.091  17.976  0.00  0.00     0.037 H 
ATOM     64  H29 ROC d          23.043  26.426  17.375  0.00  0.00     0.037 H 
ATOM     65  C29 ROC d          24.242  26.657  19.824  0.00  0.00    -0.061 C 
ATOM     66  C33 ROC d          22.217  25.158  19.609  0.00  0.00    -0.027 C 
ATOM     67  H30 ROC d          22.225  27.242  20.171  0.00  0.00     0.040 H 
ATOM     68  C30 ROC d          25.084  25.585  19.170  0.00  0.00    -0.065 C 
ATOM     69  H31 ROC d          24.341  26.556  20.914  0.00  0.00     0.033 H 
ATOM     70  H32 ROC d          24.626  27.638  19.510  0.00  0.00     0.033 H 
ATOM     71  C31 ROC d          24.543  24.215  19.468  0.00  0.00    -0.065 C 
ATOM     72  H33 ROC d          26.114  25.655  19.550  0.00  0.00     0.033 H 
ATOM     73  H34 ROC d          25.084  25.742  18.081  0.00  0.00     0.033 H 
ATOM     74  C32 ROC d          23.115  24.175  18.943  0.00  0.00    -0.060 C 
ATOM     75  H35 ROC d          24.551  24.034  20.554  0.00  0.00     0.033 H 
ATOM     76  H36 ROC d          25.152  23.450  18.965  0.00  0.00     0.033 H 
ATOM     77  H37 ROC d          22.710  23.166  19.107  0.00  0.00     0.033 H 
ATOM     78  H38 ROC d          23.132  24.392  17.865  0.00  0.00     0.033 H 
ATOM     79  C34 ROC d          20.789  25.071  19.253  0.00  0.00     0.088 C 
ATOM     80  H39 ROC d          22.263  24.917  20.681  0.00  0.00     0.043 H 
ATOM     81  H40 ROC d          20.455  24.030  19.369  0.00  0.00     0.076 H 
ATOM     82  H41 ROC d          20.211  25.719  19.929  0.00  0.00     0.076 H 
ATOM     83  H24 ROC d          21.117  24.907  17.287  0.00  0.00     0.281 HD
BRANCH  59  84
ATOM     84  C26 ROC d          20.848  27.342  16.230  0.00  0.00     0.249 C 
ATOM     85  O5  ROC d          20.933  28.512  15.894  0.00  0.00    -0.271 OA
ATOM     86  N6  ROC d          20.650  26.325  15.355  0.00  0.00    -0.351 N 
ATOM     87  H42 ROC d          20.704  25.391  15.708  0.00  0.00     0.163 HD
BRANCH  86  88
ATOM     88  C35 ROC d          20.365  26.498  13.943  0.00  0.00     0.022 C 
BRANCH  88  89
ATOM     89  C36 ROC d          20.475  25.155  13.255  0.00  0.00    -0.054 C 
ATOM     90  H43 ROC d          19.766  24.450  13.711  0.00  0.00     0.030 H 
ATOM     91  H44 ROC d          21.500  24.769  13.367  0.00  0.00     0.030 H 
ATOM     92  H45 ROC d          20.242  25.270  12.186  0.00  0.00     0.030 H 
ENDBRANCH  88  89
BRANCH  88  93
ATOM     93  C37 ROC d          21.408  27.406  13.342  0.00  0.00    -0.054 C 
ATOM     94  H46 ROC d          21.447  28.346  13.912  0.00  0.00     0.030 H 
ATOM     95  H47 ROC d          21.146  27.623  12.296  0.00  0.00     0.030 H 
ATOM     96  H48 ROC d          22.390  26.913  13.381  0.00  0.00     0.030 H 
ENDBRANCH  88  93
BRANCH  88  97
ATOM     97  C38 ROC d          18.969  27.034  13.798  0.00  0.00    -0.054 C 
ATOM     98  H49 ROC d          18.973  27.885  13.101  0.00  0.00     0.030 H 
ATOM     99  H50 ROC d          18.600  27.365  14.781  0.00  0.00     0.030 H 
ATOM    100  H51 ROC d          18.312  26.243  13.407  0.00  0.00     0.030 H 
ENDBRANCH  88  97
ENDBRANCH  86  88
ENDBRANCH  59  84
ENDBRANCH  55  58
ENDBRANCH   1  55
TORSDOF 17
ENDMDL
MODEL 9
REMARK VINA RESULT:      -7.6      2.162      5.713
REMARK  17 active torsions:
REMARK  status: ('A' for Active; 'I' for Inactive)
REMARK    1  A    between atoms: C1_2  and  C2_4 
REMARK       I    between atoms: N2_13  and  C1_2 
REMARK    2  A    between atoms: C11_14  and  N2_13 
REMARK    3  A    between atoms: C12_15  and  C11_14 
REMARK    4  A    between atoms: C11_14  and  C13_17 
REMARK       I    between atoms: N4_24  and  C12_15 
REMARK    5  A    between atoms: C13_17  and  C14_18 
REMARK       I    between atoms: C14_18  and  N3_20 
REMARK    6  A    between atoms: C15_21  and  O4_22 
REMARK    7  A    between atoms: C16_23  and  C15_21 
REMARK    8  A    between atoms: C15_21  and  C24_33 
REMARK    9  A    between atoms: C16_23  and  N4_24 
REMARK   10  A    between atoms: C16_23  and  C17_25 
REMARK   11  A    between atoms: C17_25  and  C18_26 
REMARK   12  A    between atoms: C24_33  and  N5_32 
REMARK   13  A    between atoms: C25_34  and  C26_35 
REMARK       I    between atoms: C26_35  and  N6_45 
REMARK   14  A    between atoms: N6_45  and  C35_46 
REMARK   15  A    between atoms: C35_46  and  C36_47 
REMARK   16  A    between atoms: C35_46  and  C37_48 
REMARK   17  A    between atoms: C35_46  and  C38_49 
ROOT
ATOM      1  C15 ROC d          17.586  22.226  19.584  0.00  0.00     0.078 C 
ATOM      2  H13 ROC d          17.314  21.682  20.501  0.00  0.00     0.088 H 
ENDROOT
BRANCH   1   3
ATOM      3  O4  ROC d          18.887  21.801  19.199  0.00  0.00    -0.392 OA
ATOM      4  H14 ROC d          19.056  22.072  18.305  0.00  0.00     0.210 HD
ENDBRANCH   1   3
BRANCH   1   5
ATOM      5  C16 ROC d          17.589  23.720  19.928  0.00  0.00     0.042 C 
ATOM      6  H15 ROC d          17.115  23.858  20.911  0.00  0.00     0.077 H 
BRANCH   5   7
ATOM      7  N4  ROC d          18.986  24.180  19.976  0.00  0.00    -0.352 N 
ATOM      8  C12 ROC d          19.592  24.466  21.125  0.00  0.00     0.241 C 
ATOM      9  O2  ROC d          19.100  24.416  22.275  0.00  0.00    -0.271 OA
ATOM     10  H16 ROC d          19.494  24.279  19.121  0.00  0.00     0.163 HD
BRANCH   8  11
ATOM     11  C11 ROC d          21.042  24.930  21.013  0.00  0.00     0.097 C 
ATOM     12  H8  ROC d          21.704  24.055  21.095  0.00  0.00     0.088 H 
BRANCH  11  13
ATOM     13  N2  ROC d          21.213  25.503  19.714  0.00  0.00    -0.342 N 
ATOM     14  C1  ROC d          22.385  25.517  19.049  0.00  0.00     0.271 C 
ATOM     15  O1  ROC d          23.466  25.146  19.549  0.00  0.00    -0.266 OA
ATOM     16  H7  ROC d          20.417  25.918  19.274  0.00  0.00     0.163 HD
BRANCH  14  17
ATOM     17  C2  ROC d          22.234  26.032  17.673  0.00  0.00     0.125 C 
ATOM     18  N1  ROC d          21.002  26.295  17.176  0.00  0.00    -0.243 NA
ATOM     19  C10 ROC d          20.825  26.757  15.911  0.00  0.00     0.068 A 
ATOM     20  C5  ROC d          21.938  26.981  15.098  0.00  0.00    -0.007 A 
ATOM     21  C9R ROC d          19.553  27.060  15.407  0.00  0.00    -0.054 A 
ATOM     22  C4  ROC d          23.199  26.685  15.596  0.00  0.00    -0.068 C 
ATOM     23  C6  ROC d          21.730  27.409  13.803  0.00  0.00    -0.071 A 
ATOM     24  C3  ROC d          23.402  26.281  16.922  0.00  0.00    -0.049 C 
ATOM     25  H2  ROC d          24.055  26.770  14.937  0.00  0.00     0.085 H 
ATOM     26  H1  ROC d          24.394  26.166  17.343  0.00  0.00     0.087 H 
ATOM     27  C7  ROC d          20.483  27.735  13.315  0.00  0.00    -0.082 A 
ATOM     28  H3  ROC d          22.585  27.493  13.141  0.00  0.00     0.084 H 
ATOM     29  C8  ROC d          19.410  27.485  14.131  0.00  0.00    -0.081 A 
ATOM     30  H4  ROC d          20.356  28.169  12.330  0.00  0.00     0.083 H 
ATOM     31  H5  ROC d          18.410  27.634  13.739  0.00  0.00     0.083 H 
ATOM     32  H6  ROC d          18.682  26.953  16.042  0.00  0.00     0.087 H 
ENDBRANCH  14  17
ENDBRANCH  11  13
BRANCH  11  33
ATOM     33  C13 ROC d          21.383  25.873  22.139  0.00  0.00     0.036 C 
ATOM     34  H9  ROC d          22.338  25.579  22.600  0.00  0.00     0.051 H 
ATOM     35  H10 ROC d          20.589  25.855  22.899  0.00  0.00     0.051 H 
BRANCH  33  36
ATOM     36  C14 ROC d          21.496  27.218  21.561  0.00  0.00     0.217 C 
ATOM     37  O3  ROC d          22.486  27.787  21.080  0.00  0.00    -0.274 OA
ATOM     38  N3  ROC d          20.437  27.927  21.578  0.00  0.00    -0.370 N 
ATOM     39  H11 ROC d          20.448  28.852  21.200  0.00  0.00     0.159 HD
ATOM     40  H12 ROC d          19.595  27.557  21.970  0.00  0.00     0.159 HD
ENDBRANCH  33  36
ENDBRANCH  11  33
ENDBRANCH   8  11
ENDBRANCH   5   7
BRANCH   5  41
ATOM     41  C17 ROC d          16.862  24.583  18.901  0.00  0.00    -0.020 C 
ATOM     42  H17 ROC d          17.026  25.639  19.163  0.00  0.00     0.043 H 
ATOM     43  H18 ROC d          15.788  24.353  18.957  0.00  0.00     0.043 H 
BRANCH  41  44
ATOM     44  C18 ROC d          17.315  24.375  17.480  0.00  0.00    -0.056 A 
ATOM     45  C19 ROC d          18.609  23.984  17.204  0.00  0.00    -0.077 A 
ATOM     46  C21 ROC d          19.032  23.836  15.917  0.00  0.00    -0.082 A 
ATOM     47  H19 ROC d          19.296  23.793  18.020  0.00  0.00     0.084 H 
ATOM     48  C23 ROC d          18.156  24.038  14.886  0.00  0.00    -0.083 A 
ATOM     49  H21 ROC d          20.060  23.560  15.711  0.00  0.00     0.083 H 
ATOM     50  C22 ROC d          16.864  24.374  15.146  0.00  0.00    -0.082 A 
ATOM     51  H23 ROC d          18.492  23.930  13.861  0.00  0.00     0.083 H 
ATOM     52  C20 ROC d          16.449  24.561  16.439  0.00  0.00    -0.077 A 
ATOM     53  H22 ROC d          16.161  24.495  14.330  0.00  0.00     0.083 H 
ATOM     54  H20 ROC d          15.426  24.857  16.638  0.00  0.00     0.084 H 
ENDBRANCH  41  44
ENDBRANCH   5  41
ENDBRANCH   1   5
BRANCH   1  55
ATOM     55  C24 ROC d          16.572  21.855  18.532  0.00  0.00     0.110 C 
ATOM     56  H25 ROC d          17.095  21.424  17.667  0.00  0.00     0.080 H 
ATOM     57  H26 ROC d          16.032  22.761  18.221  0.00  0.00     0.080 H 
BRANCH  55  58
ATOM     58  N5  ROC d          15.622  20.895  19.030  0.00  0.00    -0.055 N 
ATOM     59  C25 ROC d          14.979  20.075  17.947  0.00  0.00     0.180 C 
ATOM     60  C27 ROC d          14.013  19.114  18.550  0.00  0.00    -0.026 C 
ATOM     61  H27 ROC d          15.760  19.518  17.410  0.00  0.00     0.100 H 
ATOM     62  C28 ROC d          14.610  18.210  19.588  0.00  0.00    -0.047 C 
ATOM     63  H28 ROC d          13.601  18.489  17.745  0.00  0.00     0.037 H 
ATOM     64  H29 ROC d          13.202  19.690  19.020  0.00  0.00     0.037 H 
ATOM     65  C29 ROC d          13.602  17.277  20.247  0.00  0.00    -0.061 C 
ATOM     66  C33 ROC d          15.296  19.116  20.621  0.00  0.00    -0.027 C 
ATOM     67  H30 ROC d          15.372  17.582  19.104  0.00  0.00     0.040 H 
ATOM     68  C30 ROC d          12.668  17.964  21.218  0.00  0.00    -0.065 C 
ATOM     69  H31 ROC d          14.157  16.500  20.793  0.00  0.00     0.033 H 
ATOM     70  H32 ROC d          12.997  16.808  19.457  0.00  0.00     0.033 H 
ATOM     71  C31 ROC d          13.436  18.721  22.264  0.00  0.00    -0.065 C 
ATOM     72  H33 ROC d          12.041  17.205  21.710  0.00  0.00     0.033 H 
ATOM     73  H34 ROC d          12.027  18.665  20.664  0.00  0.00     0.033 H 
ATOM     74  C32 ROC d          14.300  19.739  21.534  0.00  0.00    -0.060 C 
ATOM     75  H35 ROC d          14.071  18.031  22.839  0.00  0.00     0.033 H 
ATOM     76  H36 ROC d          12.741  19.234  22.945  0.00  0.00     0.033 H 
ATOM     77  H37 ROC d          14.839  20.340  22.281  0.00  0.00     0.033 H 
ATOM     78  H38 ROC d          13.644  20.393  20.941  0.00  0.00     0.033 H 
ATOM     79  C34 ROC d          16.263  20.037  19.996  0.00  0.00     0.088 C 
ATOM     80  H39 ROC d          15.900  18.451  21.256  0.00  0.00     0.043 H 
ATOM     81  H40 ROC d          16.721  20.659  20.779  0.00  0.00     0.076 H 
ATOM     82  H41 ROC d          17.044  19.449  19.492  0.00  0.00     0.076 H 
ATOM     83  H24 ROC d          14.890  21.405  19.498  0.00  0.00     0.281 HD
BRANCH  59  84
ATOM     84  C26 ROC d          14.224  20.971  16.951  0.00  0.00     0.249 C 
ATOM     85  O5  ROC d          13.360  21.752  17.317  0.00  0.00    -0.271 OA
ATOM     86  N6  ROC d          14.627  20.852  15.662  0.00  0.00    -0.351 N 
ATOM     87  H42 ROC d          15.415  20.266  15.473  0.00  0.00     0.163 HD
BRANCH  86  88
ATOM     88  C35 ROC d          13.993  21.515  14.536  0.00  0.00     0.022 C 
BRANCH  88  89
ATOM     89  C36 ROC d          12.752  20.741  14.150  0.00  0.00    -0.054 C 
ATOM     90  H43 ROC d          12.905  19.672  14.359  0.00  0.00     0.030 H 
ATOM     91  H44 ROC d          12.552  20.880  13.077  0.00  0.00     0.030 H 
ATOM     92  H45 ROC d          11.894  21.108  14.733  0.00  0.00     0.030 H 
ENDBRANCH  88  89
BRANCH  88  93
ATOM     93  C37 ROC d          14.935  21.485  13.360  0.00  0.00    -0.054 C 
ATOM     94  H46 ROC d          14.412  21.847  12.463  0.00  0.00     0.030 H 
ATOM     95  H47 ROC d          15.279  20.454  13.192  0.00  0.00     0.030 H 
ATOM     96  H48 ROC d          15.800  22.132  13.566  0.00  0.00     0.030 H 
ENDBRANCH  88  93
BRANCH  88  97
ATOM     97  C38 ROC d          13.618  22.909  14.952  0.00  0.00    -0.054 C 
ATOM     98  H49 ROC d          13.302  22.906  16.006  0.00  0.00     0.030 H 
ATOM     99  H50 ROC d          12.791  23.269  14.322  0.00  0.00     0.030 H 
ATOM    100  H51 ROC d          14.487  23.573  14.832  0.00  0.00     0.030 H 
ENDBRANCH  88  97
ENDBRANCH  86  88
ENDBRANCH  59  84
ENDBRANCH  55  58
ENDBRANCH   1  55
TORSDOF 17
ENDMDL
MODEL 10
REMARK VINA RESULT:      -7.3      2.600      8.778
REMARK  17 active torsions:
REMARK  status: ('A' for Active; 'I' for Inactive)
REMARK    1  A    between atoms: C1_2  and  C2_4 
REMARK       I    between atoms: N2_13  and  C1_2 
REMARK    2  A    between atoms: C11_14  and  N2_13 
REMARK    3  A    between atoms: C12_15  and  C11_14 
REMARK    4  A    between atoms: C11_14  and  C13_17 
REMARK       I    between atoms: N4_24  and  C12_15 
REMARK    5  A    between atoms: C13_17  and  C14_18 
REMARK       I    between atoms: C14_18  and  N3_20 
REMARK    6  A    between atoms: C15_21  and  O4_22 
REMARK    7  A    between atoms: C16_23  and  C15_21 
REMARK    8  A    between atoms: C15_21  and  C24_33 
REMARK    9  A    between atoms: C16_23  and  N4_24 
REMARK   10  A    between atoms: C16_23  and  C17_25 
REMARK   11  A    between atoms: C17_25  and  C18_26 
REMARK   12  A    between atoms: C24_33  and  N5_32 
REMARK   13  A    between atoms: C25_34  and  C26_35 
REMARK       I    between atoms: C26_35  and  N6_45 
REMARK   14  A    between atoms: N6_45  and  C35_46 
REMARK   15  A    between atoms: C35_46  and  C36_47 
REMARK   16  A    between atoms: C35_46  and  C37_48 
REMARK   17  A    between atoms: C35_46  and  C38_49 
ROOT
ATOM      1  C15 ROC d          18.492  22.496  18.688  0.00  0.00     0.078 C 
ATOM      2  H13 ROC d          18.778  22.016  17.741  0.00  0.00     0.088 H 
ENDROOT
BRANCH   1   3
ATOM      3  O4  ROC d          18.654  21.536  19.725  0.00  0.00    -0.392 OA
ATOM      4  H14 ROC d          18.486  21.946  20.565  0.00  0.00     0.210 HD
ENDBRANCH   1   3
BRANCH   1   5
ATOM      5  C16 ROC d          17.020  22.906  18.562  0.00  0.00     0.042 C 
ATOM      6  H15 ROC d          16.963  24.003  18.497  0.00  0.00     0.077 H 
BRANCH   5   7
ATOM      7  N4  ROC d          16.475  22.301  17.337  0.00  0.00    -0.352 N 
ATOM      8  C12 ROC d          15.574  22.926  16.585  0.00  0.00     0.241 C 
ATOM      9  O2  ROC d          15.059  24.049  16.794  0.00  0.00    -0.271 OA
ATOM     10  H16 ROC d          16.792  21.393  17.061  0.00  0.00     0.163 HD
BRANCH   8  11
ATOM     11  C11 ROC d          15.105  22.171  15.345  0.00  0.00     0.097 C 
ATOM     12  H8  ROC d          15.943  21.579  14.949  0.00  0.00     0.088 H 
BRANCH  11  13
ATOM     13  N2  ROC d          14.070  21.272  15.752  0.00  0.00    -0.342 N 
ATOM     14  C1  ROC d          13.594  20.277  14.977  0.00  0.00     0.271 C 
ATOM     15  O1  ROC d          13.916  20.119  13.783  0.00  0.00    -0.266 OA
ATOM     16  H7  ROC d          13.677  21.389  16.664  0.00  0.00     0.163 HD
BRANCH  14  17
ATOM     17  C2  ROC d          12.644  19.414  15.708  0.00  0.00     0.125 C 
ATOM     18  N1  ROC d          12.709  19.320  17.058  0.00  0.00    -0.243 NA
ATOM     19  C10 ROC d          11.860  18.526  17.762  0.00  0.00     0.068 A 
ATOM     20  C5  ROC d          10.882  17.794  17.084  0.00  0.00    -0.007 A 
ATOM     21  C9R ROC d          11.906  18.453  19.159  0.00  0.00    -0.054 A 
ATOM     22  C4  ROC d          10.832  17.868  15.700  0.00  0.00    -0.068 C 
ATOM     23  C6  ROC d          10.060  16.962  17.816  0.00  0.00    -0.071 A 
ATOM     24  C3  ROC d          11.651  18.738  14.968  0.00  0.00    -0.049 C 
ATOM     25  H2  ROC d          10.137  17.230  15.166  0.00  0.00     0.085 H 
ATOM     26  H1  ROC d          11.528  18.883  13.901  0.00  0.00     0.087 H 
ATOM     27  C7  ROC d          10.085  16.910  19.193  0.00  0.00    -0.082 A 
ATOM     28  H3  ROC d           9.364  16.322  17.285  0.00  0.00     0.084 H 
ATOM     29  C8  ROC d          11.069  17.625  19.826  0.00  0.00    -0.081 A 
ATOM     30  H4  ROC d           9.359  16.330  19.751  0.00  0.00     0.083 H 
ATOM     31  H5  ROC d          11.179  17.525  20.899  0.00  0.00     0.083 H 
ATOM     32  H6  ROC d          12.615  19.061  19.709  0.00  0.00     0.087 H 
ENDBRANCH  14  17
ENDBRANCH  11  13
BRANCH  11  33
ATOM     33  C13 ROC d          14.676  23.138  14.269  0.00  0.00     0.036 C 
ATOM     34  H9  ROC d          14.670  24.164  14.666  0.00  0.00     0.051 H 
ATOM     35  H10 ROC d          13.670  22.878  13.909  0.00  0.00     0.051 H 
BRANCH  33  36
ATOM     36  C14 ROC d          15.647  23.027  13.173  0.00  0.00     0.217 C 
ATOM     37  O3  ROC d          16.424  23.880  12.722  0.00  0.00    -0.274 OA
ATOM     38  N3  ROC d          15.684  21.907  12.567  0.00  0.00    -0.370 N 
ATOM     39  H11 ROC d          16.323  21.767  11.812  0.00  0.00     0.159 HD
ATOM     40  H12 ROC d          15.073  21.166  12.849  0.00  0.00     0.159 HD
ENDBRANCH  33  36
ENDBRANCH  11  33
ENDBRANCH   8  11
ENDBRANCH   5   7
BRANCH   5  41
ATOM     41  C17 ROC d          16.154  22.434  19.726  0.00  0.00    -0.020 C 
ATOM     42  H17 ROC d          15.194  22.968  19.678  0.00  0.00     0.043 H 
ATOM     43  H18 ROC d          16.669  22.688  20.664  0.00  0.00     0.043 H 
BRANCH  41  44
ATOM     44  C18 ROC d          15.870  20.955  19.731  0.00  0.00    -0.056 A 
ATOM     45  C19 ROC d          15.959  20.217  18.568  0.00  0.00    -0.077 A 
ATOM     46  C21 ROC d          15.662  18.888  18.562  0.00  0.00    -0.082 A 
ATOM     47  H19 ROC d          16.270  20.701  17.649  0.00  0.00     0.084 H 
ATOM     48  C23 ROC d          15.308  18.265  19.728  0.00  0.00    -0.083 A 
ATOM     49  H21 ROC d          15.705  18.325  17.637  0.00  0.00     0.083 H 
ATOM     50  C22 ROC d          15.266  18.970  20.891  0.00  0.00    -0.082 A 
ATOM     51  H23 ROC d          15.062  17.209  19.725  0.00  0.00     0.083 H 
ATOM     52  C20 ROC d          15.528  20.315  20.889  0.00  0.00    -0.077 A 
ATOM     53  H22 ROC d          15.025  18.467  21.820  0.00  0.00     0.083 H 
ATOM     54  H20 ROC d          15.463  20.877  21.814  0.00  0.00     0.084 H 
ENDBRANCH  41  44
ENDBRANCH   5  41
ENDBRANCH   1   5
BRANCH   1  55
ATOM     55  C24 ROC d          19.424  23.663  18.893  0.00  0.00     0.110 C 
ATOM     56  H25 ROC d          20.446  23.283  19.038  0.00  0.00     0.080 H 
ATOM     57  H26 ROC d          19.109  24.219  19.788  0.00  0.00     0.080 H 
BRANCH  55  58
ATOM     58  N5  ROC d          19.413  24.552  17.762  0.00  0.00    -0.055 N 
ATOM     59  C25 ROC d          20.668  25.368  17.631  0.00  0.00     0.180 C 
ATOM     60  C27 ROC d          20.567  26.258  16.440  0.00  0.00    -0.026 C 
ATOM     61  H27 ROC d          21.523  24.688  17.506  0.00  0.00     0.100 H 
ATOM     62  C28 ROC d          20.290  25.538  15.154  0.00  0.00    -0.047 C 
ATOM     63  H28 ROC d          21.519  26.800  16.333  0.00  0.00     0.037 H 
ATOM     64  H29 ROC d          19.754  26.977  16.615  0.00  0.00     0.037 H 
ATOM     65  C29 ROC d          20.122  26.461  13.953  0.00  0.00    -0.061 C 
ATOM     66  C33 ROC d          19.035  24.685  15.387  0.00  0.00    -0.027 C 
ATOM     67  H30 ROC d          21.138  24.871  14.940  0.00  0.00     0.040 H 
ATOM     68  C30 ROC d          18.818  27.225  13.940  0.00  0.00    -0.065 C 
ATOM     69  H31 ROC d          20.175  25.851  13.039  0.00  0.00     0.033 H 
ATOM     70  H32 ROC d          20.948  27.186  13.957  0.00  0.00     0.033 H 
ATOM     71  C31 ROC d          17.644  26.293  14.046  0.00  0.00    -0.065 C 
ATOM     72  H33 ROC d          18.743  27.792  13.000  0.00  0.00     0.033 H 
ATOM     73  H34 ROC d          18.801  27.923  14.790  0.00  0.00     0.033 H 
ATOM     74  C32 ROC d          17.804  25.521  15.348  0.00  0.00    -0.060 C 
ATOM     75  H35 ROC d          17.635  25.598  13.193  0.00  0.00     0.033 H 
ATOM     76  H36 ROC d          16.705  26.867  14.061  0.00  0.00     0.033 H 
ATOM     77  H37 ROC d          16.931  24.863  15.473  0.00  0.00     0.033 H 
ATOM     78  H38 ROC d          17.843  26.240  16.179  0.00  0.00     0.033 H 
ATOM     79  C34 ROC d          19.175  23.798  16.556  0.00  0.00     0.088 C 
ATOM     80  H39 ROC d          18.958  24.011  14.520  0.00  0.00     0.043 H 
ATOM     81  H40 ROC d          18.250  23.215  16.675  0.00  0.00     0.076 H 
ATOM     82  H41 ROC d          20.020  23.114  16.388  0.00  0.00     0.076 H 
ATOM     83  H24 ROC d          18.647  25.194  17.888  0.00  0.00     0.281 HD
BRANCH  59  84
ATOM     84  C26 ROC d          20.894  26.238  18.878  0.00  0.00     0.249 C 
ATOM     85  O5  ROC d          20.558  27.411  18.912  0.00  0.00    -0.271 OA
ATOM     86  N6  ROC d          21.447  25.588  19.932  0.00  0.00    -0.351 N 
ATOM     87  H42 ROC d          21.588  24.602  19.847  0.00  0.00     0.163 HD
BRANCH  86  88
ATOM     88  C35 ROC d          21.848  26.224  21.173  0.00  0.00     0.022 C 
BRANCH  88  89
ATOM     89  C36 ROC d          21.350  27.652  21.173  0.00  0.00    -0.054 C 
ATOM     90  H43 ROC d          20.504  27.746  21.870  0.00  0.00     0.030 H 
ATOM     91  H44 ROC d          21.022  27.927  20.159  0.00  0.00     0.030 H 
ATOM     92  H45 ROC d          22.161  28.324  21.491  0.00  0.00     0.030 H 
ENDBRANCH  88  89
BRANCH  88  93
ATOM     93  C37 ROC d          23.354  26.265  21.236  0.00  0.00    -0.054 C 
ATOM     94  H46 ROC d          23.688  25.945  22.233  0.00  0.00     0.030 H 
ATOM     95  H47 ROC d          23.700  27.292  21.045  0.00  0.00     0.030 H 
ATOM     96  H48 ROC d          23.771  25.590  20.475  0.00  0.00     0.030 H 
ENDBRANCH  88  93
BRANCH  88  97
ATOM     97  C38 ROC d          21.235  25.468  22.318  0.00  0.00    -0.054 C 
ATOM     98  H49 ROC d          20.171  25.735  22.406  0.00  0.00     0.030 H 
ATOM     99  H50 ROC d          21.757  25.729  23.251  0.00  0.00     0.030 H 
ATOM    100  H51 ROC d          21.328  24.388  22.135  0.00  0.00     0.030 H 
ENDBRANCH  88  97
ENDBRANCH  86  88
ENDBRANCH  59  84
ENDBRANCH  55  58
ENDBRANCH   1  55
TORSDOF 17
ENDMDL
