MODEL 1
REMARK VINA RESULT:      -4.2      0.000      0.000
REMARK  13 active torsions:
REMARK  status: ('A' for Active; 'I' for Inactive)
REMARK    1  A    between atoms: N1_1  and  C2_2 
REMARK    2  A    between atoms: C2_2  and  C3_3 
REMARK    3  A    between atoms: C3_3  and  C4_4 
REMARK    4  A    between atoms: C4_4  and  N5_5 
REMARK    5  A    between atoms: N5_5  and  C6_6 
REMARK    6  A    between atoms: C6_6  and  C7_7 
REMARK    7  A    between atoms: C7_7  and  C8_8 
REMARK    8  A    between atoms: C8_8  and  C9_9 
REMARK    9  A    between atoms: C9_9  and  N10_10 
REMARK   10  A    between atoms: N10_10  and  C11_11 
REMARK   11  A    between atoms: C11_11  and  C12_12 
REMARK   12  A    between atoms: C12_12  and  C13_13 
REMARK   13  A    between atoms: C13_13  and  N14_14 
ROOT
ATOM      1  C7  SPM d          -6.084   3.993  14.833  0.00  0.00    -0.041 C 
ATOM      2  H14 SPM d          -6.111   3.575  15.849  0.00  0.00     0.035 H 
ATOM      3  H15 SPM d          -7.080   3.909  14.375  0.00  0.00     0.035 H 
ENDROOT
BRANCH   1   4
ATOM      4  C6  SPM d          -5.041   3.291  13.989  0.00  0.00     0.082 C 
ATOM      5  H12 SPM d          -5.548   2.847  13.119  0.00  0.00     0.075 H 
ATOM      6  H13 SPM d          -4.317   4.044  13.645  0.00  0.00     0.075 H 
BRANCH   4   7
ATOM      7  N5  SPM d          -4.309   2.239  14.672  0.00  0.00    -0.075 N 
ATOM      8  H10 SPM d          -4.591   1.362  14.261  0.00  0.00     0.277 HD
ATOM      9  H11 SPM d          -3.329   2.392  14.497  0.00  0.00     0.277 HD
BRANCH   7  10
ATOM     10  C4  SPM d          -4.477   2.118  16.101  0.00  0.00     0.083 C 
ATOM     11  H8  SPM d          -3.482   2.000  16.554  0.00  0.00     0.075 H 
ATOM     12  H9  SPM d          -4.941   3.045  16.470  0.00  0.00     0.075 H 
BRANCH  10  13
ATOM     13  C3  SPM d          -5.348   0.939  16.548  0.00  0.00    -0.020 C 
ATOM     14  H6  SPM d          -5.947   0.594  15.692  0.00  0.00     0.037 H 
ATOM     15  H7  SPM d          -4.694   0.123  16.890  0.00  0.00     0.037 H 
BRANCH  13  16
ATOM     16  C2  SPM d          -6.280   1.326  17.675  0.00  0.00     0.081 C 
ATOM     17  H4  SPM d          -6.134   0.649  18.530  0.00  0.00     0.075 H 
ATOM     18  H5  SPM d          -6.078   2.360  17.989  0.00  0.00     0.075 H 
BRANCH  16  19
ATOM     19  N1  SPM d          -7.633   1.216  17.188  0.00  0.00    -0.079 N 
ATOM     20  H1  SPM d          -8.102   0.462  17.664  0.00  0.00     0.274 HD
ATOM     21  H2  SPM d          -7.619   1.031  16.197  0.00  0.00     0.274 HD
ATOM     22  H3  SPM d          -8.123   2.080  17.361  0.00  0.00     0.274 HD
ENDBRANCH  16  19
ENDBRANCH  13  16
ENDBRANCH  10  13
ENDBRANCH   7  10
ENDBRANCH   4   7
ENDBRANCH   1   4
BRANCH   1  23
ATOM     23  C8  SPM d          -5.620   5.439  14.857  0.00  0.00    -0.041 C 
ATOM     24  H16 SPM d          -4.734   5.541  15.499  0.00  0.00     0.035 H 
ATOM     25  H17 SPM d          -6.424   6.089  15.235  0.00  0.00     0.035 H 
BRANCH  23  26
ATOM     26  C9  SPM d          -5.278   5.811  13.440  0.00  0.00     0.082 C 
ATOM     27  H18 SPM d          -6.128   6.345  12.990  0.00  0.00     0.075 H 
ATOM     28  H19 SPM d          -5.073   4.896  12.864  0.00  0.00     0.075 H 
BRANCH  26  29
ATOM     29  N10 SPM d          -4.113   6.662  13.415  0.00  0.00    -0.075 N 
ATOM     30  H20 SPM d          -4.451   7.583  13.183  0.00  0.00     0.277 HD
ATOM     31  H21 SPM d          -3.537   6.315  12.664  0.00  0.00     0.277 HD
BRANCH  29  32
ATOM     32  C11 SPM d          -3.233   6.840  14.531  0.00  0.00     0.083 C 
ATOM     33  H22 SPM d          -3.576   6.217  15.369  0.00  0.00     0.075 H 
ATOM     34  H23 SPM d          -3.237   7.898  14.833  0.00  0.00     0.075 H 
BRANCH  32  35
ATOM     35  C12 SPM d          -1.825   6.433  14.147  0.00  0.00    -0.020 C 
ATOM     36  H24 SPM d          -1.141   6.716  14.960  0.00  0.00     0.037 H 
ATOM     37  H25 SPM d          -1.542   6.966  13.226  0.00  0.00     0.037 H 
BRANCH  35  38
ATOM     38  C13 SPM d          -1.698   4.931  13.902  0.00  0.00     0.081 C 
ATOM     39  H26 SPM d          -0.845   4.747  13.233  0.00  0.00     0.075 H 
ATOM     40  H27 SPM d          -2.621   4.566  13.426  0.00  0.00     0.075 H 
BRANCH  38  41
ATOM     41  N14 SPM d          -1.490   4.214  15.142  0.00  0.00    -0.079 N 
ATOM     42  H28 SPM d          -0.733   4.640  15.653  0.00  0.00     0.274 HD
ATOM     43  H29 SPM d          -1.259   3.253  14.941  0.00  0.00     0.274 HD
ATOM     44  H30 SPM d          -2.331   4.247  15.696  0.00  0.00     0.274 HD
ENDBRANCH  38  41
ENDBRANCH  35  38
ENDBRANCH  32  35
ENDBRANCH  29  32
ENDBRANCH  26  29
ENDBRANCH  23  26
ENDBRANCH   1  23
TORSDOF 13
ENDMDL
MODEL 2
REMARK VINA RESULT:      -4.0      1.603      2.891
REMARK  13 active torsions:
REMARK  status: ('A' for Active; 'I' for Inactive)
REMARK    1  A    between atoms: N1_1  and  C2_2 
REMARK    2  A    between atoms: C2_2  and  C3_3 
REMARK    3  A    between atoms: C3_3  and  C4_4 
REMARK    4  A    between atoms: C4_4  and  N5_5 
REMARK    5  A    between atoms: N5_5  and  C6_6 
REMARK    6  A    between atoms: C6_6  and  C7_7 
REMARK    7  A    between atoms: C7_7  and  C8_8 
REMARK    8  A    between atoms: C8_8  and  C9_9 
REMARK    9  A    between atoms: C9_9  and  N10_10 
REMARK   10  A    between atoms: N10_10  and  C11_11 
REMARK   11  A    between atoms: C11_11  and  C12_12 
REMARK   12  A    between atoms: C12_12  and  C13_13 
REMARK   13  A    between atoms: C13_13  and  N14_14 
ROOT
ATOM      1  C7  SPM d          -3.952   3.197  11.917  0.00  0.00    -0.041 C 
ATOM      2  H14 SPM d          -4.311   3.945  12.639  0.00  0.00     0.035 H 
ATOM      3  H15 SPM d          -4.327   3.446  10.914  0.00  0.00     0.035 H 
ENDROOT
BRANCH   1   4
ATOM      4  C6  SPM d          -4.386   1.804  12.324  0.00  0.00     0.082 C 
ATOM      5  H12 SPM d          -5.457   1.699  12.095  0.00  0.00     0.075 H 
ATOM      6  H13 SPM d          -3.811   1.080  11.728  0.00  0.00     0.075 H 
BRANCH   4   7
ATOM      7  N5  SPM d          -4.190   1.489  13.728  0.00  0.00    -0.075 N 
ATOM      8  H10 SPM d          -4.445   0.522  13.858  0.00  0.00     0.277 HD
ATOM      9  H11 SPM d          -3.210   1.608  13.929  0.00  0.00     0.277 HD
BRANCH   7  10
ATOM     10  C4  SPM d          -4.926   2.262  14.702  0.00  0.00     0.083 C 
ATOM     11  H8  SPM d          -4.862   3.322  14.416  0.00  0.00     0.075 H 
ATOM     12  H9  SPM d          -5.976   1.937  14.674  0.00  0.00     0.075 H 
BRANCH  10  13
ATOM     13  C3  SPM d          -4.422   2.125  16.143  0.00  0.00    -0.020 C 
ATOM     14  H6  SPM d          -3.750   1.257  16.204  0.00  0.00     0.037 H 
ATOM     15  H7  SPM d          -3.870   3.037  16.415  0.00  0.00     0.037 H 
BRANCH  13  16
ATOM     16  C2  SPM d          -5.562   1.932  17.118  0.00  0.00     0.081 C 
ATOM     17  H4  SPM d          -5.276   2.315  18.109  0.00  0.00     0.075 H 
ATOM     18  H5  SPM d          -6.454   2.469  16.762  0.00  0.00     0.075 H 
BRANCH  16  19
ATOM     19  N1  SPM d          -5.841   0.520  17.200  0.00  0.00    -0.079 N 
ATOM     20  H1  SPM d          -5.451   0.053  16.396  0.00  0.00     0.274 HD
ATOM     21  H2  SPM d          -6.838   0.374  17.223  0.00  0.00     0.274 HD
ATOM     22  H3  SPM d          -5.428   0.144  18.039  0.00  0.00     0.274 HD
ENDBRANCH  16  19
ENDBRANCH  13  16
ENDBRANCH  10  13
ENDBRANCH   7  10
ENDBRANCH   4   7
ENDBRANCH   1   4
BRANCH   1  23
ATOM     23  C8  SPM d          -2.436   3.124  11.924  0.00  0.00    -0.041 C 
ATOM     24  H16 SPM d          -2.065   2.861  10.923  0.00  0.00     0.035 H 
ATOM     25  H17 SPM d          -2.096   2.370  12.650  0.00  0.00     0.035 H 
BRANCH  23  26
ATOM     26  C9  SPM d          -1.935   4.485  12.321  0.00  0.00     0.082 C 
ATOM     27  H18 SPM d          -2.760   5.210  12.248  0.00  0.00     0.075 H 
ATOM     28  H19 SPM d          -1.122   4.785  11.643  0.00  0.00     0.075 H 
BRANCH  26  29
ATOM     29  N10 SPM d          -1.441   4.460  13.677  0.00  0.00    -0.075 N 
ATOM     30  H20 SPM d          -0.631   5.061  13.684  0.00  0.00     0.277 HD
ATOM     31  H21 SPM d          -1.155   3.508  13.846  0.00  0.00     0.277 HD
BRANCH  29  32
ATOM     32  C11 SPM d          -2.220   4.842  14.816  0.00  0.00     0.083 C 
ATOM     33  H22 SPM d          -1.552   5.012  15.674  0.00  0.00     0.075 H 
ATOM     34  H23 SPM d          -2.931   4.037  15.058  0.00  0.00     0.075 H 
BRANCH  32  35
ATOM     35  C12 SPM d          -2.984   6.114  14.514  0.00  0.00    -0.020 C 
ATOM     36  H24 SPM d          -2.699   6.469  13.513  0.00  0.00     0.037 H 
ATOM     37  H25 SPM d          -2.714   6.874  15.263  0.00  0.00     0.037 H 
BRANCH  35  38
ATOM     38  C13 SPM d          -4.497   5.908  14.549  0.00  0.00     0.081 C 
ATOM     39  H26 SPM d          -4.926   6.534  15.345  0.00  0.00     0.075 H 
ATOM     40  H27 SPM d          -4.710   4.850  14.760  0.00  0.00     0.075 H 
BRANCH  38  41
ATOM     41  N14 SPM d          -5.104   6.270  13.285  0.00  0.00    -0.079 N 
ATOM     42  H28 SPM d          -6.003   6.694  13.453  0.00  0.00     0.274 HD
ATOM     43  H29 SPM d          -5.222   5.444  12.720  0.00  0.00     0.274 HD
ATOM     44  H30 SPM d          -4.508   6.924  12.801  0.00  0.00     0.274 HD
ENDBRANCH  38  41
ENDBRANCH  35  38
ENDBRANCH  32  35
ENDBRANCH  29  32
ENDBRANCH  26  29
ENDBRANCH  23  26
ENDBRANCH   1  23
TORSDOF 13
ENDMDL
MODEL 3
REMARK VINA RESULT:      -3.9      1.366      1.546
REMARK  13 active torsions:
REMARK  status: ('A' for Active; 'I' for Inactive)
REMARK    1  A    between atoms: N1_1  and  C2_2 
REMARK    2  A    between atoms: C2_2  and  C3_3 
REMARK    3  A    between atoms: C3_3  and  C4_4 
REMARK    4  A    between atoms: C4_4  and  N5_5 
REMARK    5  A    between atoms: N5_5  and  C6_6 
REMARK    6  A    between atoms: C6_6  and  C7_7 
REMARK    7  A    between atoms: C7_7  and  C8_8 
REMARK    8  A    between atoms: C8_8  and  C9_9 
REMARK    9  A    between atoms: C9_9  and  N10_10 
REMARK   10  A    between atoms: N10_10  and  C11_11 
REMARK   11  A    between atoms: C11_11  and  C12_12 
REMARK   12  A    between atoms: C12_12  and  C13_13 
REMARK   13  A    between atoms: C13_13  and  N14_14 
ROOT
ATOM      1  C7  SPM d          -5.641   5.446  14.875  0.00  0.00    -0.041 C 
ATOM      2  H14 SPM d          -4.773   5.931  15.345  0.00  0.00     0.035 H 
ATOM      3  H15 SPM d          -6.485   5.443  15.580  0.00  0.00     0.035 H 
ENDROOT
BRANCH   1   4
ATOM      4  C6  SPM d          -5.299   4.037  14.437  0.00  0.00     0.082 C 
ATOM      5  H12 SPM d          -5.750   3.867  13.448  0.00  0.00     0.075 H 
ATOM      6  H13 SPM d          -4.205   3.960  14.359  0.00  0.00     0.075 H 
BRANCH   4   7
ATOM      7  N5  SPM d          -5.763   2.990  15.331  0.00  0.00    -0.075 N 
ATOM      8  H10 SPM d          -6.280   2.327  14.774  0.00  0.00     0.277 HD
ATOM      9  H11 SPM d          -4.947   2.540  15.716  0.00  0.00     0.277 HD
BRANCH   7  10
ATOM     10  C4  SPM d          -6.608   3.373  16.438  0.00  0.00     0.083 C 
ATOM     11  H8  SPM d          -6.344   4.400  16.730  0.00  0.00     0.075 H 
ATOM     12  H9  SPM d          -7.653   3.345  16.096  0.00  0.00     0.075 H 
BRANCH  10  13
ATOM     13  C3  SPM d          -6.487   2.478  17.676  0.00  0.00    -0.020 C 
ATOM     14  H6  SPM d          -5.427   2.404  17.960  0.00  0.00     0.037 H 
ATOM     15  H7  SPM d          -7.057   2.933  18.501  0.00  0.00     0.037 H 
BRANCH  13  16
ATOM     16  C2  SPM d          -7.024   1.088  17.417  0.00  0.00     0.081 C 
ATOM     17  H4  SPM d          -7.832   0.860  18.128  0.00  0.00     0.075 H 
ATOM     18  H5  SPM d          -7.410   1.022  16.390  0.00  0.00     0.075 H 
BRANCH  16  19
ATOM     19  N1  SPM d          -5.938   0.155  17.594  0.00  0.00    -0.079 N 
ATOM     20  H1  SPM d          -6.286  -0.787  17.501  0.00  0.00     0.274 HD
ATOM     21  H2  SPM d          -5.537   0.276  18.510  0.00  0.00     0.274 HD
ATOM     22  H3  SPM d          -5.233   0.323  16.893  0.00  0.00     0.274 HD
ENDBRANCH  16  19
ENDBRANCH  13  16
ENDBRANCH  10  13
ENDBRANCH   7  10
ENDBRANCH   4   7
ENDBRANCH   1   4
BRANCH   1  23
ATOM     23  C8  SPM d          -6.018   6.148  13.583  0.00  0.00    -0.041 C 
ATOM     24  H16 SPM d          -6.161   7.223  13.765  0.00  0.00     0.035 H 
ATOM     25  H17 SPM d          -6.945   5.718  13.175  0.00  0.00     0.035 H 
BRANCH  23  26
ATOM     26  C9  SPM d          -4.882   5.932  12.622  0.00  0.00     0.082 C 
ATOM     27  H18 SPM d          -5.273   5.921  11.594  0.00  0.00     0.075 H 
ATOM     28  H19 SPM d          -4.399   4.968  12.841  0.00  0.00     0.075 H 
BRANCH  26  29
ATOM     29  N10 SPM d          -3.911   6.991  12.751  0.00  0.00    -0.075 N 
ATOM     30  H20 SPM d          -3.996   7.328  13.698  0.00  0.00     0.277 HD
ATOM     31  H21 SPM d          -4.204   7.712  12.110  0.00  0.00     0.277 HD
BRANCH  29  32
ATOM     32  C11 SPM d          -2.507   6.817  12.526  0.00  0.00     0.083 C 
ATOM     33  H22 SPM d          -1.954   7.627  13.024  0.00  0.00     0.075 H 
ATOM     34  H23 SPM d          -2.305   6.847  11.444  0.00  0.00     0.075 H 
BRANCH  32  35
ATOM     35  C12 SPM d          -2.057   5.483  13.085  0.00  0.00    -0.020 C 
ATOM     36  H24 SPM d          -1.098   5.211  12.620  0.00  0.00     0.037 H 
ATOM     37  H25 SPM d          -2.814   4.724  12.838  0.00  0.00     0.037 H 
BRANCH  35  38
ATOM     38  C13 SPM d          -1.874   5.518  14.601  0.00  0.00     0.081 C 
ATOM     39  H26 SPM d          -2.815   5.841  15.068  0.00  0.00     0.075 H 
ATOM     40  H27 SPM d          -1.077   6.234  14.849  0.00  0.00     0.075 H 
BRANCH  38  41
ATOM     41  N14 SPM d          -1.515   4.213  15.115  0.00  0.00    -0.079 N 
ATOM     42  H28 SPM d          -1.358   4.275  16.109  0.00  0.00     0.274 HD
ATOM     43  H29 SPM d          -0.673   3.893  14.662  0.00  0.00     0.274 HD
ATOM     44  H30 SPM d          -2.262   3.562  14.932  0.00  0.00     0.274 HD
ENDBRANCH  38  41
ENDBRANCH  35  38
ENDBRANCH  32  35
ENDBRANCH  29  32
ENDBRANCH  26  29
ENDBRANCH  23  26
ENDBRANCH   1  23
TORSDOF 13
ENDMDL
MODEL 4
REMARK VINA RESULT:      -3.9      1.519      5.202
REMARK  13 active torsions:
REMARK  status: ('A' for Active; 'I' for Inactive)
REMARK    1  A    between atoms: N1_1  and  C2_2 
REMARK    2  A    between atoms: C2_2  and  C3_3 
REMARK    3  A    between atoms: C3_3  and  C4_4 
REMARK    4  A    between atoms: C4_4  and  N5_5 
REMARK    5  A    between atoms: N5_5  and  C6_6 
REMARK    6  A    between atoms: C6_6  and  C7_7 
REMARK    7  A    between atoms: C7_7  and  C8_8 
REMARK    8  A    between atoms: C8_8  and  C9_9 
REMARK    9  A    between atoms: C9_9  and  N10_10 
REMARK   10  A    between atoms: N10_10  and  C11_11 
REMARK   11  A    between atoms: C11_11  and  C12_12 
REMARK   12  A    between atoms: C12_12  and  C13_13 
REMARK   13  A    between atoms: C13_13  and  N14_14 
ROOT
ATOM      1  C7  SPM d          -2.596   2.968  11.943  0.00  0.00    -0.041 C 
ATOM      2  H14 SPM d          -2.144   2.154  12.529  0.00  0.00     0.035 H 
ATOM      3  H15 SPM d          -2.387   2.810  10.875  0.00  0.00     0.035 H 
ENDROOT
BRANCH   1   4
ATOM      4  C6  SPM d          -2.075   4.314  12.401  0.00  0.00     0.082 C 
ATOM      5  H12 SPM d          -1.291   4.635  11.698  0.00  0.00     0.075 H 
ATOM      6  H13 SPM d          -2.909   5.031  12.371  0.00  0.00     0.075 H 
BRANCH   4   7
ATOM      7  N5  SPM d          -1.515   4.330  13.741  0.00  0.00    -0.075 N 
ATOM      8  H10 SPM d          -1.549   3.385  14.092  0.00  0.00     0.277 HD
ATOM      9  H11 SPM d          -0.554   4.623  13.662  0.00  0.00     0.277 HD
BRANCH   7  10
ATOM     10  C4  SPM d          -2.144   5.178  14.726  0.00  0.00     0.083 C 
ATOM     11  H8  SPM d          -2.642   4.533  15.465  0.00  0.00     0.075 H 
ATOM     12  H9  SPM d          -1.358   5.766  15.222  0.00  0.00     0.075 H 
BRANCH  10  13
ATOM     13  C3  SPM d          -3.185   6.152  14.163  0.00  0.00    -0.020 C 
ATOM     14  H6  SPM d          -2.914   7.175  14.462  0.00  0.00     0.037 H 
ATOM     15  H7  SPM d          -3.185   6.078  13.066  0.00  0.00     0.037 H 
BRANCH  13  16
ATOM     16  C2  SPM d          -4.574   5.843  14.676  0.00  0.00     0.081 C 
ATOM     17  H4  SPM d          -4.612   4.813  15.060  0.00  0.00     0.075 H 
ATOM     18  H5  SPM d          -4.839   6.544  15.482  0.00  0.00     0.075 H 
BRANCH  16  19
ATOM     19  N1  SPM d          -5.495   5.991  13.576  0.00  0.00    -0.079 N 
ATOM     20  H1  SPM d          -5.061   5.661  12.728  0.00  0.00     0.274 HD
ATOM     21  H2  SPM d          -5.740   6.962  13.471  0.00  0.00     0.274 HD
ATOM     22  H3  SPM d          -6.327   5.452  13.760  0.00  0.00     0.274 HD
ENDBRANCH  16  19
ENDBRANCH  13  16
ENDBRANCH  10  13
ENDBRANCH   7  10
ENDBRANCH   4   7
ENDBRANCH   1   4
BRANCH   1  23
ATOM     23  C8  SPM d          -4.090   3.050  12.196  0.00  0.00    -0.041 C 
ATOM     24  H16 SPM d          -4.638   2.985  11.245  0.00  0.00     0.035 H 
ATOM     25  H17 SPM d          -4.339   3.997  12.698  0.00  0.00     0.035 H 
BRANCH  23  26
ATOM     26  C9  SPM d          -4.448   1.887  13.080  0.00  0.00     0.082 C 
ATOM     27  H18 SPM d          -3.835   1.017  12.801  0.00  0.00     0.075 H 
ATOM     28  H19 SPM d          -5.513   1.643  12.946  0.00  0.00     0.075 H 
BRANCH  26  29
ATOM     29  N10 SPM d          -4.204   2.218  14.463  0.00  0.00    -0.075 N 
ATOM     30  H20 SPM d          -4.484   3.181  14.568  0.00  0.00     0.277 HD
ATOM     31  H21 SPM d          -3.208   2.141  14.592  0.00  0.00     0.277 HD
BRANCH  29  32
ATOM     32  C11 SPM d          -4.795   1.519  15.565  0.00  0.00     0.083 C 
ATOM     33  H22 SPM d          -4.003   1.185  16.251  0.00  0.00     0.075 H 
ATOM     34  H23 SPM d          -5.348   0.645  15.189  0.00  0.00     0.075 H 
BRANCH  32  35
ATOM     35  C12 SPM d          -5.747   2.436  16.305  0.00  0.00    -0.020 C 
ATOM     36  H24 SPM d          -6.621   2.629  15.665  0.00  0.00     0.037 H 
ATOM     37  H25 SPM d          -5.231   3.384  16.517  0.00  0.00     0.037 H 
BRANCH  35  38
ATOM     38  C13 SPM d          -6.230   1.835  17.623  0.00  0.00     0.081 C 
ATOM     39  H26 SPM d          -7.314   1.995  17.716  0.00  0.00     0.075 H 
ATOM     40  H27 SPM d          -5.713   2.335  18.456  0.00  0.00     0.075 H 
BRANCH  38  41
ATOM     41  N14 SPM d          -5.956   0.414  17.682  0.00  0.00    -0.079 N 
ATOM     42  H28 SPM d          -6.743  -0.063  18.093  0.00  0.00     0.274 HD
ATOM     43  H29 SPM d          -5.135   0.252  18.244  0.00  0.00     0.274 HD
ATOM     44  H30 SPM d          -5.799   0.063  16.750  0.00  0.00     0.274 HD
ENDBRANCH  38  41
ENDBRANCH  35  38
ENDBRANCH  32  35
ENDBRANCH  29  32
ENDBRANCH  26  29
ENDBRANCH  23  26
ENDBRANCH   1  23
TORSDOF 13
ENDMDL
MODEL 5
REMARK VINA RESULT:      -3.8      1.775      3.176
REMARK  13 active torsions:
REMARK  status: ('A' for Active; 'I' for Inactive)
REMARK    1  A    between atoms: N1_1  and  C2_2 
REMARK    2  A    between atoms: C2_2  and  C3_3 
REMARK    3  A    between atoms: C3_3  and  C4_4 
REMARK    4  A    between atoms: C4_4  and  N5_5 
REMARK    5  A    between atoms: N5_5  and  C6_6 
REMARK    6  A    between atoms: C6_6  and  C7_7 
REMARK    7  A    between atoms: C7_7  and  C8_8 
REMARK    8  A    between atoms: C8_8  and  C9_9 
REMARK    9  A    between atoms: C9_9  and  N10_10 
REMARK   10  A    between atoms: N10_10  and  C11_11 
REMARK   11  A    between atoms: C11_11  and  C12_12 
REMARK   12  A    between atoms: C12_12  and  C13_13 
REMARK   13  A    between atoms: C13_13  and  N14_14 
ROOT
ATOM      1  C7  SPM d          -5.940   2.067  16.535  0.00  0.00    -0.041 C 
ATOM      2  H14 SPM d          -6.128   1.788  17.582  0.00  0.00     0.035 H 
ATOM      3  H15 SPM d          -6.445   1.352  15.869  0.00  0.00     0.035 H 
ENDROOT
BRANCH   1   4
ATOM      4  C6  SPM d          -4.454   2.113  16.249  0.00  0.00     0.082 C 
ATOM      5  H12 SPM d          -4.260   2.966  15.581  0.00  0.00     0.075 H 
ATOM      6  H13 SPM d          -3.927   2.267  17.202  0.00  0.00     0.075 H 
BRANCH   4   7
ATOM      7  N5  SPM d          -3.915   0.918  15.623  0.00  0.00    -0.075 N 
ATOM      8  H10 SPM d          -3.019   1.163  15.230  0.00  0.00     0.277 HD
ATOM      9  H11 SPM d          -3.786   0.231  16.349  0.00  0.00     0.277 HD
BRANCH   7  10
ATOM     10  C4  SPM d          -4.690   0.297  14.575  0.00  0.00     0.083 C 
ATOM     11  H8  SPM d          -4.835  -0.762  14.838  0.00  0.00     0.075 H 
ATOM     12  H9  SPM d          -5.666   0.800  14.527  0.00  0.00     0.075 H 
BRANCH  10  13
ATOM     13  C3  SPM d          -4.053   0.359  13.183  0.00  0.00    -0.020 C 
ATOM     14  H6  SPM d          -2.972   0.176  13.277  0.00  0.00     0.037 H 
ATOM     15  H7  SPM d          -4.502  -0.421  12.550  0.00  0.00     0.037 H 
BRANCH  13  16
ATOM     16  C2  SPM d          -4.267   1.706  12.529  0.00  0.00     0.081 C 
ATOM     17  H4  SPM d          -4.953   1.603  11.675  0.00  0.00     0.075 H 
ATOM     18  H5  SPM d          -4.691   2.412  13.257  0.00  0.00     0.075 H 
BRANCH  16  19
ATOM     19  N1  SPM d          -2.985   2.185  12.072  0.00  0.00    -0.079 N 
ATOM     20  H1  SPM d          -2.690   2.957  12.649  0.00  0.00     0.274 HD
ATOM     21  H2  SPM d          -3.062   2.490  11.115  0.00  0.00     0.274 HD
ATOM     22  H3  SPM d          -2.308   1.441  12.133  0.00  0.00     0.274 HD
ENDBRANCH  16  19
ENDBRANCH  13  16
ENDBRANCH  10  13
ENDBRANCH   7  10
ENDBRANCH   4   7
ENDBRANCH   1   4
BRANCH   1  23
ATOM     23  C8  SPM d          -6.408   3.485  16.260  0.00  0.00    -0.041 C 
ATOM     24  H16 SPM d          -5.917   4.185  16.950  0.00  0.00     0.035 H 
ATOM     25  H17 SPM d          -7.500   3.554  16.383  0.00  0.00     0.035 H 
BRANCH  23  26
ATOM     26  C9  SPM d          -6.027   3.803  14.841  0.00  0.00     0.082 C 
ATOM     27  H18 SPM d          -6.866   3.553  14.174  0.00  0.00     0.075 H 
ATOM     28  H19 SPM d          -5.145   3.207  14.559  0.00  0.00     0.075 H 
BRANCH  26  29
ATOM     29  N10 SPM d          -5.714   5.206  14.710  0.00  0.00    -0.075 N 
ATOM     30  H20 SPM d          -5.533   5.534  15.646  0.00  0.00     0.277 HD
ATOM     31  H21 SPM d          -6.552   5.641  14.357  0.00  0.00     0.277 HD
BRANCH  29  32
ATOM     32  C11 SPM d          -4.643   5.712  13.906  0.00  0.00     0.083 C 
ATOM     33  H22 SPM d          -4.907   6.713  13.534  0.00  0.00     0.075 H 
ATOM     34  H23 SPM d          -4.477   5.036  13.053  0.00  0.00     0.075 H 
BRANCH  32  35
ATOM     35  C12 SPM d          -3.376   5.801  14.732  0.00  0.00    -0.020 C 
ATOM     36  H24 SPM d          -3.591   5.441  15.748  0.00  0.00     0.037 H 
ATOM     37  H25 SPM d          -3.057   6.853  14.775  0.00  0.00     0.037 H 
BRANCH  35  38
ATOM     38  C13 SPM d          -2.239   4.967  14.147  0.00  0.00     0.081 C 
ATOM     39  H26 SPM d          -1.518   5.637  13.657  0.00  0.00     0.075 H 
ATOM     40  H27 SPM d          -2.652   4.267  13.405  0.00  0.00     0.075 H 
BRANCH  38  41
ATOM     41  N14 SPM d          -1.558   4.213  15.179  0.00  0.00    -0.079 N 
ATOM     42  H28 SPM d          -2.236   3.832  15.820  0.00  0.00     0.274 HD
ATOM     43  H29 SPM d          -0.928   4.821  15.679  0.00  0.00     0.274 HD
ATOM     44  H30 SPM d          -1.034   3.462  14.757  0.00  0.00     0.274 HD
ENDBRANCH  38  41
ENDBRANCH  35  38
ENDBRANCH  32  35
ENDBRANCH  29  32
ENDBRANCH  26  29
ENDBRANCH  23  26
ENDBRANCH   1  23
TORSDOF 13
ENDMDL
MODEL 6
REMARK VINA RESULT:      -3.7      1.506      5.584
REMARK  13 active torsions:
REMARK  status: ('A' for Active; 'I' for Inactive)
REMARK    1  A    between atoms: N1_1  and  C2_2 
REMARK    2  A    between atoms: C2_2  and  C3_3 
REMARK    3  A    between atoms: C3_3  and  C4_4 
REMARK    4  A    between atoms: C4_4  and  N5_5 
REMARK    5  A    between atoms: N5_5  and  C6_6 
REMARK    6  A    between atoms: C6_6  and  C7_7 
REMARK    7  A    between atoms: C7_7  and  C8_8 
REMARK    8  A    between atoms: C8_8  and  C9_9 
REMARK    9  A    between atoms: C9_9  and  N10_10 
REMARK   10  A    between atoms: N10_10  and  C11_11 
REMARK   11  A    between atoms: C11_11  and  C12_12 
REMARK   12  A    between atoms: C12_12  and  C13_13 
REMARK   13  A    between atoms: C13_13  and  N14_14 
ROOT
ATOM      1  C7  SPM d          -3.588   3.411  12.145  0.00  0.00    -0.041 C 
ATOM      2  H14 SPM d          -3.129   3.365  13.143  0.00  0.00     0.035 H 
ATOM      3  H15 SPM d          -2.799   3.443  11.379  0.00  0.00     0.035 H 
ENDROOT
BRANCH   1   4
ATOM      4  C6  SPM d          -4.503   4.612  12.027  0.00  0.00     0.082 C 
ATOM      5  H12 SPM d          -4.120   5.256  11.221  0.00  0.00     0.075 H 
ATOM      6  H13 SPM d          -5.507   4.252  11.762  0.00  0.00     0.075 H 
BRANCH   4   7
ATOM      7  N5  SPM d          -4.615   5.415  13.232  0.00  0.00    -0.075 N 
ATOM      8  H10 SPM d          -5.509   5.880  13.202  0.00  0.00     0.277 HD
ATOM      9  H11 SPM d          -4.591   4.784  14.017  0.00  0.00     0.277 HD
BRANCH   7  10
ATOM     10  C4  SPM d          -3.611   6.429  13.463  0.00  0.00     0.083 C 
ATOM     11  H8  SPM d          -2.965   6.478  12.575  0.00  0.00     0.075 H 
ATOM     12  H9  SPM d          -4.124   7.392  13.599  0.00  0.00     0.075 H 
BRANCH  10  13
ATOM     13  C3  SPM d          -2.723   6.184  14.687  0.00  0.00    -0.020 C 
ATOM     14  H6  SPM d          -2.325   7.148  15.037  0.00  0.00     0.037 H 
ATOM     15  H7  SPM d          -3.331   5.728  15.483  0.00  0.00     0.037 H 
BRANCH  13  16
ATOM     16  C2  SPM d          -1.566   5.265  14.365  0.00  0.00     0.081 C 
ATOM     17  H4  SPM d          -1.672   4.874  13.342  0.00  0.00     0.075 H 
ATOM     18  H5  SPM d          -0.617   5.814  14.450  0.00  0.00     0.075 H 
BRANCH  16  19
ATOM     19  N1  SPM d          -1.589   4.176  15.311  0.00  0.00    -0.079 N 
ATOM     20  H1  SPM d          -2.478   3.703  15.257  0.00  0.00     0.274 HD
ATOM     21  H2  SPM d          -1.456   4.538  16.242  0.00  0.00     0.274 HD
ATOM     22  H3  SPM d          -0.849   3.527  15.094  0.00  0.00     0.274 HD
ENDBRANCH  16  19
ENDBRANCH  13  16
ENDBRANCH  10  13
ENDBRANCH   7  10
ENDBRANCH   4   7
ENDBRANCH   1   4
BRANCH   1  23
ATOM     23  C8  SPM d          -4.511   2.227  11.919  0.00  0.00    -0.041 C 
ATOM     24  H16 SPM d          -4.349   1.807  10.916  0.00  0.00     0.035 H 
ATOM     25  H17 SPM d          -5.561   2.539  12.021  0.00  0.00     0.035 H 
BRANCH  23  26
ATOM     26  C9  SPM d          -4.172   1.204  12.969  0.00  0.00     0.082 C 
ATOM     27  H18 SPM d          -3.090   1.008  12.949  0.00  0.00     0.075 H 
ATOM     28  H19 SPM d          -4.718   0.272  12.759  0.00  0.00     0.075 H 
BRANCH  26  29
ATOM     29  N10 SPM d          -4.545   1.689  14.277  0.00  0.00    -0.075 N 
ATOM     30  H20 SPM d          -5.503   1.992  14.194  0.00  0.00     0.277 HD
ATOM     31  H21 SPM d          -3.954   2.487  14.451  0.00  0.00     0.277 HD
BRANCH  29  32
ATOM     32  C11 SPM d          -4.489   0.895  15.467  0.00  0.00     0.083 C 
ATOM     33  H22 SPM d          -3.439   0.673  15.708  0.00  0.00     0.075 H 
ATOM     34  H23 SPM d          -5.035  -0.047  15.303  0.00  0.00     0.075 H 
BRANCH  32  35
ATOM     35  C12 SPM d          -5.121   1.648  16.619  0.00  0.00    -0.020 C 
ATOM     36  H24 SPM d          -5.562   2.579  16.234  0.00  0.00     0.037 H 
ATOM     37  H25 SPM d          -4.338   1.889  17.354  0.00  0.00     0.037 H 
BRANCH  35  38
ATOM     38  C13 SPM d          -6.214   0.840  17.315  0.00  0.00     0.081 C 
ATOM     39  H26 SPM d          -6.051   0.878  18.402  0.00  0.00     0.075 H 
ATOM     40  H27 SPM d          -6.160  -0.205  16.973  0.00  0.00     0.075 H 
BRANCH  38  41
ATOM     41  N14 SPM d          -7.528   1.369  17.015  0.00  0.00    -0.079 N 
ATOM     42  H28 SPM d          -7.665   2.232  17.517  0.00  0.00     0.274 HD
ATOM     43  H29 SPM d          -8.231   0.702  17.294  0.00  0.00     0.274 HD
ATOM     44  H30 SPM d          -7.603   1.539  16.024  0.00  0.00     0.274 HD
ENDBRANCH  38  41
ENDBRANCH  35  38
ENDBRANCH  32  35
ENDBRANCH  29  32
ENDBRANCH  26  29
ENDBRANCH  23  26
ENDBRANCH   1  23
TORSDOF 13
ENDMDL
MODEL 7
REMARK VINA RESULT:      -3.6      1.435      5.477
REMARK  13 active torsions:
REMARK  status: ('A' for Active; 'I' for Inactive)
REMARK    1  A    between atoms: N1_1  and  C2_2 
REMARK    2  A    between atoms: C2_2  and  C3_3 
REMARK    3  A    between atoms: C3_3  and  C4_4 
REMARK    4  A    between atoms: C4_4  and  N5_5 
REMARK    5  A    between atoms: N5_5  and  C6_6 
REMARK    6  A    between atoms: C6_6  and  C7_7 
REMARK    7  A    between atoms: C7_7  and  C8_8 
REMARK    8  A    between atoms: C8_8  and  C9_9 
REMARK    9  A    between atoms: C9_9  and  N10_10 
REMARK   10  A    between atoms: N10_10  and  C11_11 
REMARK   11  A    between atoms: C11_11  and  C12_12 
REMARK   12  A    between atoms: C12_12  and  C13_13 
REMARK   13  A    between atoms: C13_13  and  N14_14 
ROOT
ATOM      1  C7  SPM d          -5.240   5.896  14.468  0.00  0.00    -0.041 C 
ATOM      2  H14 SPM d          -6.321   6.068  14.576  0.00  0.00     0.035 H 
ATOM      3  H15 SPM d          -4.700   6.457  15.244  0.00  0.00     0.035 H 
ENDROOT
BRANCH   1   4
ATOM      4  C6  SPM d          -4.767   6.295  13.086  0.00  0.00     0.082 C 
ATOM      5  H12 SPM d          -4.514   5.378  12.533  0.00  0.00     0.075 H 
ATOM      6  H13 SPM d          -5.594   6.813  12.578  0.00  0.00     0.075 H 
BRANCH   4   7
ATOM      7  N5  SPM d          -3.607   7.169  13.067  0.00  0.00    -0.075 N 
ATOM      8  H10 SPM d          -3.791   7.899  12.396  0.00  0.00     0.277 HD
ATOM      9  H11 SPM d          -3.519   7.573  13.986  0.00  0.00     0.277 HD
BRANCH   7  10
ATOM     10  C4  SPM d          -2.329   6.587  12.729  0.00  0.00     0.083 C 
ATOM     11  H8  SPM d          -1.762   7.324  12.142  0.00  0.00     0.075 H 
ATOM     12  H9  SPM d          -1.792   6.373  13.666  0.00  0.00     0.075 H 
BRANCH  10  13
ATOM     13  C3  SPM d          -2.409   5.289  11.919  0.00  0.00    -0.020 C 
ATOM     14  H6  SPM d          -3.432   4.891  11.983  0.00  0.00     0.037 H 
ATOM     15  H7  SPM d          -2.167   5.510  10.868  0.00  0.00     0.037 H 
BRANCH  13  16
ATOM     16  C2  SPM d          -1.443   4.245  12.436  0.00  0.00     0.081 C 
ATOM     17  H4  SPM d          -1.800   3.240  12.166  0.00  0.00     0.075 H 
ATOM     18  H5  SPM d          -0.447   4.410  12.000  0.00  0.00     0.075 H 
BRANCH  16  19
ATOM     19  N1  SPM d          -1.379   4.374  13.870  0.00  0.00    -0.079 N 
ATOM     20  H1  SPM d          -2.297   4.229  14.262  0.00  0.00     0.274 HD
ATOM     21  H2  SPM d          -1.053   5.296  14.111  0.00  0.00     0.274 HD
ATOM     22  H3  SPM d          -0.743   3.686  14.241  0.00  0.00     0.274 HD
ENDBRANCH  16  19
ENDBRANCH  13  16
ENDBRANCH  10  13
ENDBRANCH   7  10
ENDBRANCH   4   7
ENDBRANCH   1   4
BRANCH   1  23
ATOM     23  C8  SPM d          -4.919   4.414  14.549  0.00  0.00    -0.041 C 
ATOM     24  H16 SPM d          -4.220   4.224  15.376  0.00  0.00     0.035 H 
ATOM     25  H17 SPM d          -4.472   4.071  13.605  0.00  0.00     0.035 H 
BRANCH  23  26
ATOM     26  C9  SPM d          -6.219   3.699  14.796  0.00  0.00     0.082 C 
ATOM     27  H18 SPM d          -6.254   2.788  14.181  0.00  0.00     0.075 H 
ATOM     28  H19 SPM d          -7.055   4.360  14.522  0.00  0.00     0.075 H 
BRANCH  26  29
ATOM     29  N10 SPM d          -6.333   3.339  16.189  0.00  0.00    -0.075 N 
ATOM     30  H20 SPM d          -6.908   4.052  16.610  0.00  0.00     0.277 HD
ATOM     31  H21 SPM d          -5.400   3.394  16.564  0.00  0.00     0.277 HD
BRANCH  29  32
ATOM     32  C11 SPM d          -6.864   2.090  16.648  0.00  0.00     0.083 C 
ATOM     33  H22 SPM d          -7.301   1.545  15.798  0.00  0.00     0.075 H 
ATOM     34  H23 SPM d          -7.642   2.279  17.402  0.00  0.00     0.075 H 
BRANCH  32  35
ATOM     35  C12 SPM d          -5.759   1.256  17.263  0.00  0.00    -0.020 C 
ATOM     36  H24 SPM d          -6.058   0.198  17.237  0.00  0.00     0.037 H 
ATOM     37  H25 SPM d          -5.618   1.572  18.308  0.00  0.00     0.037 H 
BRANCH  35  38
ATOM     38  C13 SPM d          -4.432   1.407  16.523  0.00  0.00     0.081 C 
ATOM     39  H26 SPM d          -3.606   1.266  17.235  0.00  0.00     0.075 H 
ATOM     40  H27 SPM d          -4.375   2.418  16.092  0.00  0.00     0.075 H 
BRANCH  38  41
ATOM     41  N14 SPM d          -4.311   0.432  15.459  0.00  0.00    -0.079 N 
ATOM     42  H28 SPM d          -4.729   0.799  14.618  0.00  0.00     0.274 HD
ATOM     43  H29 SPM d          -4.784  -0.417  15.726  0.00  0.00     0.274 HD
ATOM     44  H30 SPM d          -3.337   0.235  15.293  0.00  0.00     0.274 HD
ENDBRANCH  38  41
ENDBRANCH  35  38
ENDBRANCH  32  35
ENDBRANCH  29  32
ENDBRANCH  26  29
ENDBRANCH  23  26
ENDBRANCH   1  23
TORSDOF 13
ENDMDL
MODEL 8
REMARK VINA RESULT:      -3.6      1.705      5.611
REMARK  13 active torsions:
REMARK  status: ('A' for Active; 'I' for Inactive)
REMARK    1  A    between atoms: N1_1  and  C2_2 
REMARK    2  A    between atoms: C2_2  and  C3_3 
REMARK    3  A    between atoms: C3_3  and  C4_4 
REMARK    4  A    between atoms: C4_4  and  N5_5 
REMARK    5  A    between atoms: N5_5  and  C6_6 
REMARK    6  A    between atoms: C6_6  and  C7_7 
REMARK    7  A    between atoms: C7_7  and  C8_8 
REMARK    8  A    between atoms: C8_8  and  C9_9 
REMARK    9  A    between atoms: C9_9  and  N10_10 
REMARK   10  A    between atoms: N10_10  and  C11_11 
REMARK   11  A    between atoms: C11_11  and  C12_12 
REMARK   12  A    between atoms: C12_12  and  C13_13 
REMARK   13  A    between atoms: C13_13  and  N14_14 
ROOT
ATOM      1  C7  SPM d          -4.448   2.103  13.275  0.00  0.00    -0.041 C 
ATOM      2  H14 SPM d          -3.704   1.333  13.527  0.00  0.00     0.035 H 
ATOM      3  H15 SPM d          -5.293   1.637  12.747  0.00  0.00     0.035 H 
ENDROOT
BRANCH   1   4
ATOM      4  C6  SPM d          -3.826   3.199  12.437  0.00  0.00     0.082 C 
ATOM      5  H12 SPM d          -4.071   3.004  11.382  0.00  0.00     0.075 H 
ATOM      6  H13 SPM d          -4.270   4.157  12.744  0.00  0.00     0.075 H 
BRANCH   4   7
ATOM      7  N5  SPM d          -2.382   3.312  12.552  0.00  0.00    -0.075 N 
ATOM      8  H10 SPM d          -2.089   2.686  13.286  0.00  0.00     0.277 HD
ATOM      9  H11 SPM d          -1.986   3.010  11.675  0.00  0.00     0.277 HD
BRANCH   7  10
ATOM     10  C4  SPM d          -1.829   4.613  12.849  0.00  0.00     0.083 C 
ATOM     11  H8  SPM d          -0.781   4.623  12.514  0.00  0.00     0.075 H 
ATOM     12  H9  SPM d          -2.401   5.365  12.287  0.00  0.00     0.075 H 
BRANCH  10  13
ATOM     13  C3  SPM d          -1.860   5.000  14.331  0.00  0.00    -0.020 C 
ATOM     14  H6  SPM d          -2.484   4.276  14.876  0.00  0.00     0.037 H 
ATOM     15  H7  SPM d          -0.835   4.971  14.729  0.00  0.00     0.037 H 
BRANCH  13  16
ATOM     16  C2  SPM d          -2.427   6.387  14.536  0.00  0.00     0.081 C 
ATOM     17  H4  SPM d          -2.127   6.773  15.521  0.00  0.00     0.075 H 
ATOM     18  H5  SPM d          -2.057   7.062  13.751  0.00  0.00     0.075 H 
BRANCH  16  19
ATOM     19  N1  SPM d          -3.864   6.293  14.464  0.00  0.00    -0.079 N 
ATOM     20  H1  SPM d          -4.228   7.084  13.955  0.00  0.00     0.274 HD
ATOM     21  H2  SPM d          -4.248   6.287  15.395  0.00  0.00     0.274 HD
ATOM     22  H3  SPM d          -4.122   5.441  13.989  0.00  0.00     0.274 HD
ENDBRANCH  16  19
ENDBRANCH  13  16
ENDBRANCH  10  13
ENDBRANCH   7  10
ENDBRANCH   4   7
ENDBRANCH   1   4
BRANCH   1  23
ATOM     23  C8  SPM d          -4.923   2.824  14.524  0.00  0.00    -0.041 C 
ATOM     24  H16 SPM d          -5.984   2.603  14.707  0.00  0.00     0.035 H 
ATOM     25  H17 SPM d          -4.788   3.909  14.409  0.00  0.00     0.035 H 
BRANCH  23  26
ATOM     26  C9  SPM d          -4.085   2.316  15.666  0.00  0.00     0.082 C 
ATOM     27  H18 SPM d          -4.093   3.057  16.479  0.00  0.00     0.075 H 
ATOM     28  H19 SPM d          -3.052   2.164  15.318  0.00  0.00     0.075 H 
BRANCH  26  29
ATOM     29  N10 SPM d          -4.613   1.065  16.155  0.00  0.00    -0.075 N 
ATOM     30  H20 SPM d          -4.044   0.820  16.950  0.00  0.00     0.277 HD
ATOM     31  H21 SPM d          -4.464   0.397  15.415  0.00  0.00     0.277 HD
BRANCH  29  32
ATOM     32  C11 SPM d          -5.970   0.884  16.576  0.00  0.00     0.083 C 
ATOM     33  H22 SPM d          -6.328  -0.099  16.238  0.00  0.00     0.075 H 
ATOM     34  H23 SPM d          -6.597   1.674  16.136  0.00  0.00     0.075 H 
BRANCH  32  35
ATOM     35  C12 SPM d          -6.055   0.958  18.086  0.00  0.00    -0.020 C 
ATOM     36  H24 SPM d          -5.080   0.674  18.510  0.00  0.00     0.037 H 
ATOM     37  H25 SPM d          -6.825   0.251  18.431  0.00  0.00     0.037 H 
BRANCH  35  38
ATOM     38  C13 SPM d          -6.416   2.356  18.583  0.00  0.00     0.081 C 
ATOM     39  H26 SPM d          -5.504   2.857  18.939  0.00  0.00     0.075 H 
ATOM     40  H27 SPM d          -7.134   2.268  19.412  0.00  0.00     0.075 H 
BRANCH  38  41
ATOM     41  N14 SPM d          -7.008   3.150  17.526  0.00  0.00    -0.079 N 
ATOM     42  H28 SPM d          -7.620   3.842  17.930  0.00  0.00     0.274 HD
ATOM     43  H29 SPM d          -7.537   2.552  16.911  0.00  0.00     0.274 HD
ATOM     44  H30 SPM d          -6.280   3.610  17.003  0.00  0.00     0.274 HD
ENDBRANCH  38  41
ENDBRANCH  35  38
ENDBRANCH  32  35
ENDBRANCH  29  32
ENDBRANCH  26  29
ENDBRANCH  23  26
ENDBRANCH   1  23
TORSDOF 13
ENDMDL
MODEL 9
REMARK VINA RESULT:      -3.4      1.596      2.044
REMARK  13 active torsions:
REMARK  status: ('A' for Active; 'I' for Inactive)
REMARK    1  A    between atoms: N1_1  and  C2_2 
REMARK    2  A    between atoms: C2_2  and  C3_3 
REMARK    3  A    between atoms: C3_3  and  C4_4 
REMARK    4  A    between atoms: C4_4  and  N5_5 
REMARK    5  A    between atoms: N5_5  and  C6_6 
REMARK    6  A    between atoms: C6_6  and  C7_7 
REMARK    7  A    between atoms: C7_7  and  C8_8 
REMARK    8  A    between atoms: C8_8  and  C9_9 
REMARK    9  A    between atoms: C9_9  and  N10_10 
REMARK   10  A    between atoms: N10_10  and  C11_11 
REMARK   11  A    between atoms: C11_11  and  C12_12 
REMARK   12  A    between atoms: C12_12  and  C13_13 
REMARK   13  A    between atoms: C13_13  and  N14_14 
ROOT
ATOM      1  C7  SPM d          -3.695   2.108  12.244  0.00  0.00    -0.041 C 
ATOM      2  H14 SPM d          -4.290   1.741  11.395  0.00  0.00     0.035 H 
ATOM      3  H15 SPM d          -2.929   1.363  12.503  0.00  0.00     0.035 H 
ENDROOT
BRANCH   1   4
ATOM      4  C6  SPM d          -4.581   2.407  13.434  0.00  0.00     0.082 C 
ATOM      5  H12 SPM d          -4.429   3.459  13.718  0.00  0.00     0.075 H 
ATOM      6  H13 SPM d          -5.627   2.258  13.127  0.00  0.00     0.075 H 
BRANCH   4   7
ATOM      7  N5  SPM d          -4.333   1.582  14.604  0.00  0.00    -0.075 N 
ATOM      8  H10 SPM d          -4.877   0.740  14.499  0.00  0.00     0.277 HD
ATOM      9  H11 SPM d          -3.352   1.350  14.605  0.00  0.00     0.277 HD
BRANCH   7  10
ATOM     10  C4  SPM d          -4.645   2.138  15.900  0.00  0.00     0.083 C 
ATOM     11  H8  SPM d          -4.544   1.338  16.648  0.00  0.00     0.075 H 
ATOM     12  H9  SPM d          -3.917   2.934  16.114  0.00  0.00     0.075 H 
BRANCH  10  13
ATOM     13  C3  SPM d          -6.052   2.731  16.022  0.00  0.00    -0.020 C 
ATOM     14  H6  SPM d          -5.971   3.770  16.375  0.00  0.00     0.037 H 
ATOM     15  H7  SPM d          -6.532   2.717  15.032  0.00  0.00     0.037 H 
BRANCH  13  16
ATOM     16  C2  SPM d          -6.908   1.949  16.993  0.00  0.00     0.081 C 
ATOM     17  H4  SPM d          -7.811   2.525  17.244  0.00  0.00     0.075 H 
ATOM     18  H5  SPM d          -7.199   0.988  16.544  0.00  0.00     0.075 H 
BRANCH  16  19
ATOM     19  N1  SPM d          -6.127   1.717  18.183  0.00  0.00    -0.079 N 
ATOM     20  H1  SPM d          -6.552   0.981  18.726  0.00  0.00     0.274 HD
ATOM     21  H2  SPM d          -6.093   2.562  18.732  0.00  0.00     0.274 HD
ATOM     22  H3  SPM d          -5.191   1.447  17.924  0.00  0.00     0.274 HD
ENDBRANCH  16  19
ENDBRANCH  13  16
ENDBRANCH  10  13
ENDBRANCH   7  10
ENDBRANCH   4   7
ENDBRANCH   1   4
BRANCH   1  23
ATOM     23  C8  SPM d          -3.057   3.447  11.918  0.00  0.00    -0.041 C 
ATOM     24  H16 SPM d          -2.578   3.407  10.929  0.00  0.00     0.035 H 
ATOM     25  H17 SPM d          -2.306   3.704  12.680  0.00  0.00     0.035 H 
BRANCH  23  26
ATOM     26  C9  SPM d          -4.163   4.467  11.918  0.00  0.00     0.082 C 
ATOM     27  H18 SPM d          -5.111   3.976  12.181  0.00  0.00     0.075 H 
ATOM     28  H19 SPM d          -4.246   4.911  10.914  0.00  0.00     0.075 H 
BRANCH  26  29
ATOM     29  N10 SPM d          -3.882   5.508  12.877  0.00  0.00    -0.075 N 
ATOM     30  H20 SPM d          -3.666   5.033  13.741  0.00  0.00     0.277 HD
ATOM     31  H21 SPM d          -4.741   6.022  12.983  0.00  0.00     0.277 HD
BRANCH  29  32
ATOM     32  C11 SPM d          -2.856   6.492  12.707  0.00  0.00     0.083 C 
ATOM     33  H22 SPM d          -3.231   7.471  13.040  0.00  0.00     0.075 H 
ATOM     34  H23 SPM d          -2.576   6.548  11.644  0.00  0.00     0.075 H 
BRANCH  32  35
ATOM     35  C12 SPM d          -1.639   6.116  13.528  0.00  0.00    -0.020 C 
ATOM     36  H24 SPM d          -0.989   6.998  13.620  0.00  0.00     0.037 H 
ATOM     37  H25 SPM d          -1.097   5.313  13.007  0.00  0.00     0.037 H 
BRANCH  35  38
ATOM     38  C13 SPM d          -2.007   5.630  14.928  0.00  0.00     0.081 C 
ATOM     39  H26 SPM d          -3.101   5.650  15.038  0.00  0.00     0.075 H 
ATOM     40  H27 SPM d          -1.551   6.301  15.672  0.00  0.00     0.075 H 
BRANCH  38  41
ATOM     41  N14 SPM d          -1.534   4.280  15.155  0.00  0.00    -0.079 N 
ATOM     42  H28 SPM d          -0.706   4.307  15.729  0.00  0.00     0.274 HD
ATOM     43  H29 SPM d          -1.316   3.847  14.271  0.00  0.00     0.274 HD
ATOM     44  H30 SPM d          -2.251   3.747  15.622  0.00  0.00     0.274 HD
ENDBRANCH  38  41
ENDBRANCH  35  38
ENDBRANCH  32  35
ENDBRANCH  29  32
ENDBRANCH  26  29
ENDBRANCH  23  26
ENDBRANCH   1  23
TORSDOF 13
ENDMDL
MODEL 10
REMARK VINA RESULT:      -3.1      1.614      3.015
REMARK  13 active torsions:
REMARK  status: ('A' for Active; 'I' for Inactive)
REMARK    1  A    between atoms: N1_1  and  C2_2 
REMARK    2  A    between atoms: C2_2  and  C3_3 
REMARK    3  A    between atoms: C3_3  and  C4_4 
REMARK    4  A    between atoms: C4_4  and  N5_5 
REMARK    5  A    between atoms: N5_5  and  C6_6 
REMARK    6  A    between atoms: C6_6  and  C7_7 
REMARK    7  A    between atoms: C7_7  and  C8_8 
REMARK    8  A    between atoms: C8_8  and  C9_9 
REMARK    9  A    between atoms: C9_9  and  N10_10 
REMARK   10  A    between atoms: N10_10  and  C11_11 
REMARK   11  A    between atoms: C11_11  and  C12_12 
REMARK   12  A    between atoms: C12_12  and  C13_13 
REMARK   13  A    between atoms: C13_13  and  N14_14 
ROOT
ATOM      1  C7  SPM d          -2.486   5.050  14.569  0.00  0.00    -0.041 C 
ATOM      2  H14 SPM d          -1.511   5.272  15.026  0.00  0.00     0.035 H 
ATOM      3  H15 SPM d          -3.112   5.954  14.584  0.00  0.00     0.035 H 
ENDROOT
BRANCH   1   4
ATOM      4  C6  SPM d          -3.172   3.908  15.289  0.00  0.00     0.082 C 
ATOM      5  H12 SPM d          -2.396   3.289  15.766  0.00  0.00     0.075 H 
ATOM      6  H13 SPM d          -3.825   4.336  16.064  0.00  0.00     0.075 H 
BRANCH   4   7
ATOM      7  N5  SPM d          -3.979   3.047  14.442  0.00  0.00    -0.075 N 
ATOM      8  H10 SPM d          -4.532   3.644  13.847  0.00  0.00     0.277 HD
ATOM      9  H11 SPM d          -3.346   2.503  13.877  0.00  0.00     0.277 HD
BRANCH   7  10
ATOM     10  C4  SPM d          -4.884   2.123  15.086  0.00  0.00     0.083 C 
ATOM     11  H8  SPM d          -5.446   1.594  14.302  0.00  0.00     0.075 H 
ATOM     12  H9  SPM d          -4.284   1.401  15.659  0.00  0.00     0.075 H 
BRANCH  10  13
ATOM     13  C3  SPM d          -5.891   2.772  16.041  0.00  0.00    -0.020 C 
ATOM     14  H6  SPM d          -5.497   3.746  16.366  0.00  0.00     0.037 H 
ATOM     15  H7  SPM d          -6.842   2.920  15.509  0.00  0.00     0.037 H 
BRANCH  13  16
ATOM     16  C2  SPM d          -6.140   1.912  17.260  0.00  0.00     0.081 C 
ATOM     17  H4  SPM d          -5.611   2.331  18.129  0.00  0.00     0.075 H 
ATOM     18  H5  SPM d          -7.218   1.870  17.474  0.00  0.00     0.075 H 
BRANCH  16  19
ATOM     19  N1  SPM d          -5.644   0.588  16.977  0.00  0.00    -0.079 N 
ATOM     20  H1  SPM d          -6.323   0.085  16.427  0.00  0.00     0.274 HD
ATOM     21  H2  SPM d          -5.482   0.097  17.842  0.00  0.00     0.274 HD
ATOM     22  H3  SPM d          -4.780   0.656  16.463  0.00  0.00     0.274 HD
ENDBRANCH  16  19
ENDBRANCH  13  16
ENDBRANCH  10  13
ENDBRANCH   7  10
ENDBRANCH   4   7
ENDBRANCH   1   4
BRANCH   1  23
ATOM     23  C8  SPM d          -2.314   4.536  13.151  0.00  0.00    -0.041 C 
ATOM     24  H16 SPM d          -3.083   3.783  12.926  0.00  0.00     0.035 H 
ATOM     25  H17 SPM d          -1.316   4.088  13.029  0.00  0.00     0.035 H 
BRANCH  23  26
ATOM     26  C9  SPM d          -2.465   5.720  12.236  0.00  0.00     0.082 C 
ATOM     27  H18 SPM d          -1.903   5.536  11.309  0.00  0.00     0.075 H 
ATOM     28  H19 SPM d          -2.067   6.617  12.735  0.00  0.00     0.075 H 
BRANCH  26  29
ATOM     29  N10 SPM d          -3.857   5.930  11.917  0.00  0.00    -0.075 N 
ATOM     30  H20 SPM d          -4.368   5.254  12.464  0.00  0.00     0.277 HD
ATOM     31  H21 SPM d          -3.949   5.709  10.938  0.00  0.00     0.277 HD
BRANCH  29  32
ATOM     32  C11 SPM d          -4.537   7.176  12.103  0.00  0.00     0.083 C 
ATOM     33  H22 SPM d          -4.596   7.706  11.141  0.00  0.00     0.075 H 
ATOM     34  H23 SPM d          -3.982   7.791  12.827  0.00  0.00     0.075 H 
BRANCH  32  35
ATOM     35  C12 SPM d          -5.938   6.926  12.625  0.00  0.00    -0.020 C 
ATOM     36  H24 SPM d          -6.603   6.732  11.771  0.00  0.00     0.037 H 
ATOM     37  H25 SPM d          -6.280   7.824  13.160  0.00  0.00     0.037 H 
BRANCH  35  38
ATOM     38  C13 SPM d          -6.001   5.733  13.576  0.00  0.00     0.081 C 
ATOM     39  H26 SPM d          -5.165   5.054  13.357  0.00  0.00     0.075 H 
ATOM     40  H27 SPM d          -6.953   5.203  13.424  0.00  0.00     0.075 H 
BRANCH  38  41
ATOM     41  N14 SPM d          -5.913   6.160  14.957  0.00  0.00    -0.079 N 
ATOM     42  H28 SPM d          -4.944   6.259  15.217  0.00  0.00     0.274 HD
ATOM     43  H29 SPM d          -6.352   5.473  15.550  0.00  0.00     0.274 HD
ATOM     44  H30 SPM d          -6.383   7.045  15.066  0.00  0.00     0.274 HD
ENDBRANCH  38  41
ENDBRANCH  35  38
ENDBRANCH  32  35
ENDBRANCH  29  32
ENDBRANCH  26  29
ENDBRANCH  23  26
ENDBRANCH   1  23
TORSDOF 13
ENDMDL
