REMARK  16 active torsions:
REMARK  status: ('A' for Active; 'I' for Inactive)
REMARK    1  A    between atoms: CA_4  and  C_1 
REMARK    2  A    between atoms: N_2  and  CA_4 
REMARK    3  A    between atoms: CBI_33  and  N_2 
REMARK    4  A    between atoms: CA_4  and  CB_5 
REMARK    5  A    between atoms: CB_5  and  CAT_23 
REMARK    6  A    between atoms: CAQ_20  and  NAA_6 
REMARK    7  A    between atoms: CAR_21  and  CAQ_20 
REMARK    8  A    between atoms: CAS_22  and  CAR_21 
REMARK    9  A    between atoms: CAU_24  and  CAS_22 
REMARK   10  A    between atoms: CAT_23  and  CBD_29 
REMARK   11  A    between atoms: CBI_33  and  CAU_24 
REMARK   12  A    between atoms: CBE_30  and  CAW_25 
REMARK   13  A    between atoms: CAW_25  and  CBJ_34 
REMARK       I    between atoms: NAX_26  and  CBC_28 
REMARK   14  A    between atoms: CBJ_34  and  NAX_26 
REMARK   15  A    between atoms: CBJ_34  and  CBB_27 
REMARK   16  A    between atoms: CBC_28  and  CBI_33 
ROOT
ATOM      1  CBI LSW d          42.270   8.369 112.718  0.00  0.00     0.179 C 
ATOM      2  H32 LSW d          41.645   7.464 112.697  0.00  0.00     0.099 H 
ENDROOT
BRANCH   1   3
ATOM      3  N   LSW d          42.887   8.475 114.039  0.00  0.00    -0.048 N 
ATOM      4  H1  LSW d          43.558   9.227 114.039  0.00  0.00     0.279 HD
ATOM      5  H2  LSW d          42.176   8.659 114.730  0.00  0.00     0.279 HD
BRANCH   3   6
ATOM      6  CA  LSW d          43.565   7.210 114.356  0.00  0.00     0.185 C 
ATOM      7  H3  LSW d          44.344   7.022 113.602  0.00  0.00     0.101 H 
BRANCH   6   8
ATOM      8  C   LSW d          42.554   6.059 114.334  0.00  0.00     0.204 C 
ATOM      9  O   LSW d          42.903   4.957 113.858  0.00  0.00    -0.646 OA
ATOM     10  OXT LSW d          41.409   6.246 114.800  0.00  0.00    -0.646 OA
ENDBRANCH   6   8
BRANCH   6  11
ATOM     11  CB  LSW d          44.216   7.289 115.740  0.00  0.00    -0.025 C 
ATOM     12  H4  LSW d          43.429   7.357 116.506  0.00  0.00     0.037 H 
ATOM     13  H5  LSW d          44.854   8.184 115.789  0.00  0.00     0.037 H 
BRANCH  11  14
ATOM     14  CAT LSW d          45.071   6.047 116.006  0.00  0.00    -0.039 C 
ATOM     15  H25 LSW d          45.884   6.014 115.265  0.00  0.00     0.040 H 
ATOM     16  H26 LSW d          44.438   5.154 115.897  0.00  0.00     0.040 H 
BRANCH  14  17
ATOM     17  CBD LSW d          45.686   6.043 117.409  0.00  0.00    -0.058 A 
ATOM     18  CAL LSW d          45.971   4.833 118.033  0.00  0.00    -0.077 A 
ATOM     19  CAH LSW d          46.583   4.815 119.281  0.00  0.00    -0.082 A 
ATOM     20  H14 LSW d          45.715   3.900 117.544  0.00  0.00     0.084 H 
ATOM     21  CAG LSW d          46.910   6.011 119.911  0.00  0.00    -0.083 A 
ATOM     22  H10 LSW d          46.805   3.870 119.763  0.00  0.00     0.083 H 
ATOM     23  CAI LSW d          46.623   7.222 119.290  0.00  0.00    -0.082 A 
ATOM     24  H9  LSW d          47.388   5.999 120.884  0.00  0.00     0.083 H 
ATOM     25  CAM LSW d          46.012   7.238 118.041  0.00  0.00    -0.077 A 
ATOM     26  H11 LSW d          46.876   8.155 119.781  0.00  0.00     0.083 H 
ATOM     27  H15 LSW d          45.789   8.183 117.559  0.00  0.00     0.084 H 
ENDBRANCH  14  17
ENDBRANCH  11  14
ENDBRANCH   6  11
ENDBRANCH   3   6
ENDBRANCH   1   3
BRANCH   1  28
ATOM     28  CAU LSW d          41.373   9.592 112.446  0.00  0.00    -0.030 C 
ATOM     29  H27 LSW d          40.800   9.390 111.529  0.00  0.00     0.036 H 
ATOM     30  H28 LSW d          40.682   9.696 113.295  0.00  0.00     0.036 H 
BRANCH  28  31
ATOM     31  CAS LSW d          42.097  10.944 112.260  0.00  0.00    -0.061 C 
ATOM     32  H23 LSW d          42.575  11.236 113.207  0.00  0.00     0.033 H 
ATOM     33  H24 LSW d          42.864  10.844 111.478  0.00  0.00     0.033 H 
BRANCH  31  34
ATOM     34  CAR LSW d          41.076  12.026 111.844  0.00  0.00    -0.043 C 
ATOM     35  H21 LSW d          40.502  11.653 110.983  0.00  0.00     0.035 H 
ATOM     36  H22 LSW d          40.394  12.206 112.688  0.00  0.00     0.035 H 
BRANCH  34  37
ATOM     37  CAQ LSW d          41.733  13.361 111.452  0.00  0.00     0.080 C 
ATOM     38  H19 LSW d          42.695  13.453 111.978  0.00  0.00     0.075 H 
ATOM     39  H20 LSW d          41.906  13.368 110.366  0.00  0.00     0.075 H 
BRANCH  37  40
ATOM     40  NAA LSW d          40.867  14.530 111.814  0.00  0.00    -0.079 N 
ATOM     41  H6  LSW d          41.327  15.385 111.544  0.00  0.00     0.274 HD
ATOM     42  H7  LSW d          40.707  14.534 112.809  0.00  0.00     0.274 HD
ATOM     43  H8  LSW d          39.985  14.456 111.332  0.00  0.00     0.274 HD
ENDBRANCH  37  40
ENDBRANCH  34  37
ENDBRANCH  31  34
ENDBRANCH  28  31
ENDBRANCH   1  28
BRANCH   1  44
ATOM     44  CBC LSW d          43.339   8.248 111.629  0.00  0.00     0.249 C 
ATOM     45  OAD LSW d          44.526   8.406 111.917  0.00  0.00    -0.271 OA
ATOM     46  NAX LSW d          42.939   7.953 110.388  0.00  0.00    -0.344 N 
ATOM     47  H31 LSW d          41.970   7.796 110.199  0.00  0.00     0.163 HD
BRANCH  46  48
ATOM     48  CBJ LSW d          43.924   7.859 109.302  0.00  0.00     0.100 C 
ATOM     49  H33 LSW d          44.640   7.063 109.554  0.00  0.00     0.090 H 
BRANCH  48  50
ATOM     50  CAW LSW d          43.274   7.526 107.950  0.00  0.00    -0.011 C 
ATOM     51  H29 LSW d          43.419   8.390 107.284  0.00  0.00     0.044 H 
ATOM     52  H30 LSW d          43.793   6.650 107.533  0.00  0.00     0.044 H 
BRANCH  50  53
ATOM     53  CBE LSW d          41.826   7.220 107.988  0.00  0.00    -0.028 A 
ATOM     54  CAP LSW d          41.241   5.980 107.921  0.00  0.00    -0.015 A 
ATOM     55  NXZ LSW d          39.852   6.116 107.951  0.00  0.00    -0.365 N 
ATOM     56  H18 LSW d          41.778   5.035 107.855  0.00  0.00     0.112 H 
ATOM     57  CBF LSW d          39.543   7.449 108.039  0.00  0.00     0.042 A 
ATOM     58  H34 LSW d          39.172   5.343 107.913  0.00  0.00     0.165 HD
ATOM     59  CAN LSW d          38.297   8.078 108.095  0.00  0.00    -0.056 A 
ATOM     60  CBG LSW d          40.760   8.173 108.069  0.00  0.00    -0.002 A 
ATOM     61  CAJ LSW d          38.280   9.449 108.181  0.00  0.00    -0.081 A 
ATOM     62  H16 LSW d          37.377   7.505 108.072  0.00  0.00     0.086 H 
ATOM     63  CAK LSW d          39.473  10.201 108.216  0.00  0.00    -0.082 A 
ATOM     64  H12 LSW d          37.328   9.965 108.223  0.00  0.00     0.083 H 
ATOM     65  CAO LSW d          40.716   9.572 108.162  0.00  0.00    -0.070 A 
ATOM     66  H13 LSW d          39.423  11.282 108.286  0.00  0.00     0.083 H 
ATOM     67  H17 LSW d          41.631  10.153 108.191  0.00  0.00     0.084 H 
ENDBRANCH  50  53
ENDBRANCH  48  50
BRANCH  48  68
ATOM     68  CBB LSW d          44.680   9.186 109.157  0.00  0.00     0.197 C 
ATOM     69  OAC LSW d          45.861   9.169 108.727  0.00  0.00    -0.646 OA
ATOM     70  OAF LSW d          44.072  10.238 109.453  0.00  0.00    -0.646 OA
ENDBRANCH  48  68
ENDBRANCH  46  48
ENDBRANCH   1  44
TORSDOF 16
