MODEL 1
REMARK VINA RESULT:      -9.8      0.000      0.000
REMARK  7 active torsions:
REMARK  status: ('A' for Active; 'I' for Inactive)
REMARK    1  A    between atoms: C8_9  and  C4_10 
REMARK    2  A    between atoms: C1_11  and  C7_12 
REMARK    3  A    between atoms: C2_16  and  C6_18 
REMARK    4  A    between atoms: C14_20  and  C26_21 
REMARK    5  A    between atoms: C26_21  and  C27_22 
REMARK    6  A    between atoms: C13_23  and  O25_24 
REMARK    7  A    between atoms: C9_26  and  O24_27 
ROOT
ATOM      1  C4  MOL d           0.151  34.341  -4.832  0.00  0.00     0.041 A 
ATOM      2  C1  MOL d           0.166  34.352  -6.221  0.00  0.00     0.140 A 
ATOM      3  N5  MOL d          -0.556  33.315  -6.644  0.00  0.00    -0.270 N 
ATOM      4  C2  MOL d          -0.611  33.222  -4.512  0.00  0.00     0.103 A 
ATOM      5  N3  MOL d          -0.995  32.684  -5.674  0.00  0.00    -0.173 NA
ATOM      6  H6  MOL d          -0.725  33.075  -7.631  0.00  0.00     0.189 HD
ENDROOT
BRANCH   4   7
ATOM      7  C6  MOL d          -0.773  32.718  -3.222  0.00  0.00     0.029 A 
ATOM      8  C10 MOL d           0.316  32.262  -2.479  0.00  0.00    -0.059 A 
ATOM      9  C14 MOL d           0.158  31.822  -1.166  0.00  0.00    -0.024 A 
ATOM     10  H7  MOL d           1.302  32.251  -2.929  0.00  0.00     0.086 H 
ATOM     11  C13 MOL d          -1.099  31.865  -0.573  0.00  0.00     0.074 A 
ATOM     12  C11 MOL d          -2.200  32.288  -1.315  0.00  0.00    -0.018 A 
ATOM     13  C9  MOL d          -2.035  32.703  -2.637  0.00  0.00     0.081 A 
ATOM     14  H14 MOL d          -3.186  32.294  -0.865  0.00  0.00     0.092 H 
BRANCH   9  15
ATOM     15  C26 MOL d           1.353  31.198  -0.440  0.00  0.00    -0.042 C 
ATOM     16  H8  MOL d           1.017  30.776   0.519  0.00  0.00     0.039 H 
ATOM     17  H9  MOL d           2.111  31.973  -0.254  0.00  0.00     0.039 H 
BRANCH  15  18
ATOM     18  C27 MOL d           1.966  30.085  -1.296  0.00  0.00    -0.073 C 
ATOM     19  H10 MOL d           2.527  29.393  -0.652  0.00  0.00     0.028 H 
ATOM     20  H11 MOL d           2.646  30.527  -2.040  0.00  0.00     0.028 H 
ATOM     21  H12 MOL d           1.165  29.537  -1.814  0.00  0.00     0.028 H 
ENDBRANCH  15  18
ENDBRANCH   9  15
BRANCH  11  22
ATOM     22  O25 MOL d          -1.203  31.651   0.769  0.00  0.00    -0.360 OA
ATOM     23  H13 MOL d          -0.363  31.818   1.182  0.00  0.00     0.217 HD
ENDBRANCH  11  22
BRANCH  13  24
ATOM     24  O24 MOL d          -3.113  33.087  -3.367  0.00  0.00    -0.360 OA
ATOM     25  H15 MOL d          -3.216  32.503  -4.109  0.00  0.00     0.217 HD
ENDBRANCH  13  24
ENDBRANCH   4   7
BRANCH   1  26
ATOM     26  C8  MOL d           0.726  35.254  -3.948  0.00  0.00    -0.018 A 
ATOM     27  C15 MOL d           2.027  35.030  -3.508  0.00  0.00    -0.037 A 
ATOM     28  C12 MOL d           2.580  35.904  -2.577  0.00  0.00     0.105 A 
ATOM     29  H1  MOL d           2.600  34.190  -3.884  0.00  0.00     0.089 H 
ATOM     30  O17 MOL d           3.804  35.918  -1.971  0.00  0.00    -0.323 OA
ATOM     31  C16 MOL d           1.848  36.991  -2.103  0.00  0.00     0.105 A 
ATOM     32  C19 MOL d           3.832  37.014  -1.144  0.00  0.00     0.115 A 
ATOM     33  O18 MOL d           2.634  37.678  -1.221  0.00  0.00    -0.323 OA
ATOM     34  H2  MOL d           4.644  37.687  -1.454  0.00  0.00     0.118 H 
ATOM     35  H3  MOL d           4.003  36.686  -0.107  0.00  0.00     0.118 H 
ATOM     36  C22 MOL d           0.548  37.224  -2.543  0.00  0.00    -0.047 A 
ATOM     37  C20 MOL d          -0.003  36.341  -3.468  0.00  0.00    -0.069 A 
ATOM     38  H4  MOL d          -0.021  38.070  -2.175  0.00  0.00     0.087 H 
ATOM     39  H5  MOL d          -1.015  36.502  -3.821  0.00  0.00     0.085 H 
ENDBRANCH   1  26
BRANCH   2  40
ATOM     40  C7  MOL d           0.817  35.373  -7.156  0.00  0.00     0.229 C 
ATOM     41  O21 MOL d           1.919  35.107  -7.634  0.00  0.00    -0.643 OA
ATOM     42  O23 MOL d           0.259  36.438  -7.427  0.00  0.00    -0.643 OA
ENDBRANCH   2  40
TORSDOF 7
ENDMDL
MODEL 2
REMARK VINA RESULT:      -7.5      1.824      5.166
REMARK  7 active torsions:
REMARK  status: ('A' for Active; 'I' for Inactive)
REMARK    1  A    between atoms: C8_9  and  C4_10 
REMARK    2  A    between atoms: C1_11  and  C7_12 
REMARK    3  A    between atoms: C2_16  and  C6_18 
REMARK    4  A    between atoms: C14_20  and  C26_21 
REMARK    5  A    between atoms: C26_21  and  C27_22 
REMARK    6  A    between atoms: C13_23  and  O25_24 
REMARK    7  A    between atoms: C9_26  and  O24_27 
ROOT
ATOM      1  C4  MOL d           0.431  34.394  -4.429  0.00  0.00     0.041 A 
ATOM      2  C1  MOL d          -0.014  34.266  -5.739  0.00  0.00     0.140 A 
ATOM      3  N5  MOL d           0.545  35.239  -6.456  0.00  0.00    -0.270 N 
ATOM      4  C2  MOL d           1.259  35.512  -4.464  0.00  0.00     0.103 A 
ATOM      5  N3  MOL d           1.265  35.936  -5.731  0.00  0.00    -0.173 NA
ATOM      6  H6  MOL d           0.399  35.389  -7.465  0.00  0.00     0.189 HD
ENDROOT
BRANCH   4   7
ATOM      7  C6  MOL d           1.815  36.119  -3.338  0.00  0.00     0.029 A 
ATOM      8  C10 MOL d           3.021  35.673  -2.795  0.00  0.00    -0.059 A 
ATOM      9  C14 MOL d           3.606  36.325  -1.712  0.00  0.00    -0.024 A 
ATOM     10  H7  MOL d           3.510  34.805  -3.222  0.00  0.00     0.086 H 
ATOM     11  C13 MOL d           3.000  37.459  -1.181  0.00  0.00     0.074 A 
ATOM     12  C11 MOL d           1.781  37.895  -1.695  0.00  0.00    -0.018 A 
ATOM     13  C9  MOL d           1.190  37.220  -2.763  0.00  0.00     0.081 A 
ATOM     14  H14 MOL d           1.290  38.760  -1.264  0.00  0.00     0.092 H 
BRANCH   9  15
ATOM     15  C26 MOL d           4.851  35.717  -1.059  0.00  0.00    -0.042 C 
ATOM     16  H8  MOL d           4.995  36.163  -0.064  0.00  0.00     0.039 H 
ATOM     17  H9  MOL d           5.730  35.926  -1.686  0.00  0.00     0.039 H 
BRANCH  15  18
ATOM     18  C27 MOL d           4.681  34.201  -0.916  0.00  0.00    -0.073 C 
ATOM     19  H10 MOL d           5.655  33.742  -0.690  0.00  0.00     0.028 H 
ATOM     20  H11 MOL d           4.289  33.786  -1.857  0.00  0.00     0.028 H 
ATOM     21  H12 MOL d           3.976  33.986  -0.099  0.00  0.00     0.028 H 
ENDBRANCH  15  18
ENDBRANCH   9  15
BRANCH  11  22
ATOM     22  O25 MOL d           3.689  38.216  -0.281  0.00  0.00    -0.360 OA
ATOM     23  H13 MOL d           4.622  38.111  -0.429  0.00  0.00     0.217 HD
ENDBRANCH  11  22
BRANCH  13  24
ATOM     24  O24 MOL d          -0.013  37.630  -3.243  0.00  0.00    -0.360 OA
ATOM     25  H15 MOL d           0.113  38.073  -4.073  0.00  0.00     0.217 HD
ENDBRANCH  13  24
ENDBRANCH   4   7
BRANCH   1  26
ATOM     26  C8  MOL d           0.156  33.579  -3.332  0.00  0.00    -0.018 A 
ATOM     27  C15 MOL d          -1.163  33.455  -2.904  0.00  0.00    -0.037 A 
ATOM     28  C12 MOL d          -1.432  32.694  -1.771  0.00  0.00     0.105 A 
ATOM     29  H1  MOL d          -1.966  33.944  -3.445  0.00  0.00     0.089 H 
ATOM     30  O17 MOL d          -2.606  32.419  -1.130  0.00  0.00    -0.323 OA
ATOM     31  C16 MOL d          -0.400  32.056  -1.084  0.00  0.00     0.105 A 
ATOM     32  C19 MOL d          -2.302  31.604  -0.066  0.00  0.00     0.115 A 
ATOM     33  O18 MOL d          -0.949  31.377  -0.034  0.00  0.00    -0.323 OA
ATOM     34  H2  MOL d          -2.832  30.646  -0.175  0.00  0.00     0.118 H 
ATOM     35  H3  MOL d          -2.615  32.092   0.870  0.00  0.00     0.118 H 
ATOM     36  C22 MOL d           0.919  32.171  -1.510  0.00  0.00    -0.047 A 
ATOM     37  C20 MOL d           1.184  32.941  -2.639  0.00  0.00    -0.069 A 
ATOM     38  H4  MOL d           1.721  31.674  -0.976  0.00  0.00     0.087 H 
ATOM     39  H5  MOL d           2.206  33.047  -2.985  0.00  0.00     0.085 H 
ENDBRANCH   1  26
BRANCH   2  40
ATOM     40  C7  MOL d          -0.927  33.190  -6.330  0.00  0.00     0.229 C 
ATOM     41  O21 MOL d          -1.819  33.541  -7.102  0.00  0.00    -0.643 OA
ATOM     42  O23 MOL d          -0.781  32.000  -6.045  0.00  0.00    -0.643 OA
ENDBRANCH   2  40
TORSDOF 7
ENDMDL
MODEL 3
REMARK VINA RESULT:      -7.3      1.762      5.470
REMARK  7 active torsions:
REMARK  status: ('A' for Active; 'I' for Inactive)
REMARK    1  A    between atoms: C8_9  and  C4_10 
REMARK    2  A    between atoms: C1_11  and  C7_12 
REMARK    3  A    between atoms: C2_16  and  C6_18 
REMARK    4  A    between atoms: C14_20  and  C26_21 
REMARK    5  A    between atoms: C26_21  and  C27_22 
REMARK    6  A    between atoms: C13_23  and  O25_24 
REMARK    7  A    between atoms: C9_26  and  O24_27 
ROOT
ATOM      1  C4  MOL d          -0.312  33.047  -2.555  0.00  0.00     0.041 A 
ATOM      2  C1  MOL d          -1.102  32.318  -1.676  0.00  0.00     0.140 A 
ATOM      3  N5  MOL d          -2.290  32.134  -2.252  0.00  0.00    -0.270 N 
ATOM      4  C2  MOL d          -1.143  33.271  -3.648  0.00  0.00     0.103 A 
ATOM      5  N3  MOL d          -2.304  32.672  -3.367  0.00  0.00    -0.173 NA
ATOM      6  H6  MOL d          -3.078  31.621  -1.832  0.00  0.00     0.189 HD
ENDROOT
BRANCH   4   7
ATOM      7  C6  MOL d          -0.828  34.100  -4.724  0.00  0.00     0.029 A 
ATOM      8  C10 MOL d          -0.585  35.462  -4.544  0.00  0.00    -0.059 A 
ATOM      9  C14 MOL d          -0.206  36.272  -5.612  0.00  0.00    -0.024 A 
ATOM     10  H7  MOL d          -0.693  35.897  -3.557  0.00  0.00     0.086 H 
ATOM     11  C13 MOL d          -0.035  35.712  -6.874  0.00  0.00     0.074 A 
ATOM     12  C11 MOL d          -0.305  34.360  -7.072  0.00  0.00    -0.018 A 
ATOM     13  C9  MOL d          -0.709  33.563  -6.002  0.00  0.00     0.081 A 
ATOM     14  H14 MOL d          -0.202  33.927  -8.061  0.00  0.00     0.092 H 
BRANCH   9  15
ATOM     15  C26 MOL d          -0.090  37.784  -5.397  0.00  0.00    -0.042 C 
ATOM     16  H8  MOL d          -1.092  38.236  -5.440  0.00  0.00     0.039 H 
ATOM     17  H9  MOL d           0.542  38.217  -6.186  0.00  0.00     0.039 H 
BRANCH  15  18
ATOM     18  C27 MOL d           0.538  38.072  -4.029  0.00  0.00    -0.073 C 
ATOM     19  H10 MOL d          -0.227  37.967  -3.245  0.00  0.00     0.028 H 
ATOM     20  H11 MOL d           0.936  39.098  -4.017  0.00  0.00     0.028 H 
ATOM     21  H12 MOL d           1.355  37.360  -3.843  0.00  0.00     0.028 H 
ENDBRANCH  15  18
ENDBRANCH   9  15
BRANCH  11  22
ATOM     22  O25 MOL d           0.552  36.458  -7.853  0.00  0.00    -0.360 OA
ATOM     23  H13 MOL d          -0.091  36.665  -8.521  0.00  0.00     0.217 HD
ENDBRANCH  11  22
BRANCH  13  24
ATOM     24  O24 MOL d          -1.000  32.252  -6.204  0.00  0.00    -0.360 OA
ATOM     25  H15 MOL d          -0.888  32.042  -7.124  0.00  0.00     0.217 HD
ENDBRANCH  13  24
ENDBRANCH   4   7
BRANCH   1  26
ATOM     26  C8  MOL d           1.019  33.438  -2.410  0.00  0.00    -0.018 A 
ATOM     27  C15 MOL d           1.305  34.789  -2.242  0.00  0.00    -0.037 A 
ATOM     28  C12 MOL d           2.635  35.189  -2.161  0.00  0.00     0.105 A 
ATOM     29  H1  MOL d           0.505  35.518  -2.174  0.00  0.00     0.089 H 
ATOM     30  O17 MOL d           3.196  36.425  -2.014  0.00  0.00    -0.323 OA
ATOM     31  C16 MOL d           3.663  34.250  -2.235  0.00  0.00     0.105 A 
ATOM     32  C19 MOL d           4.558  36.248  -1.981  0.00  0.00     0.115 A 
ATOM     33  O18 MOL d           4.851  34.913  -2.115  0.00  0.00    -0.323 OA
ATOM     34  H2  MOL d           4.953  36.614  -1.022  0.00  0.00     0.118 H 
ATOM     35  H3  MOL d           5.021  36.809  -2.807  0.00  0.00     0.118 H 
ATOM     36  C22 MOL d           3.383  32.896  -2.397  0.00  0.00    -0.047 A 
ATOM     37  C20 MOL d           2.051  32.504  -2.486  0.00  0.00    -0.069 A 
ATOM     38  H4  MOL d           4.183  32.166  -2.453  0.00  0.00     0.087 H 
ATOM     39  H5  MOL d           1.812  31.454  -2.617  0.00  0.00     0.085 H 
ENDBRANCH   1  26
BRANCH   2  40
ATOM     40  C7  MOL d          -0.722  31.744  -0.310  0.00  0.00     0.229 C 
ATOM     41  O21 MOL d          -1.483  31.940   0.638  0.00  0.00    -0.643 OA
ATOM     42  O23 MOL d           0.318  31.102  -0.153  0.00  0.00    -0.643 OA
ENDBRANCH   2  40
TORSDOF 7
ENDMDL
MODEL 4
REMARK VINA RESULT:      -7.0      1.338      2.093
REMARK  7 active torsions:
REMARK  status: ('A' for Active; 'I' for Inactive)
REMARK    1  A    between atoms: C8_9  and  C4_10 
REMARK    2  A    between atoms: C1_11  and  C7_12 
REMARK    3  A    between atoms: C2_16  and  C6_18 
REMARK    4  A    between atoms: C14_20  and  C26_21 
REMARK    5  A    between atoms: C26_21  and  C27_22 
REMARK    6  A    between atoms: C13_23  and  O25_24 
REMARK    7  A    between atoms: C9_26  and  O24_27 
ROOT
ATOM      1  C4  MOL d           0.213  34.423  -4.648  0.00  0.00     0.041 A 
ATOM      2  C1  MOL d          -0.021  34.383  -6.017  0.00  0.00     0.140 A 
ATOM      3  N5  MOL d          -0.601  33.216  -6.296  0.00  0.00    -0.270 N 
ATOM      4  C2  MOL d          -0.258  33.197  -4.190  0.00  0.00     0.103 A 
ATOM      5  N3  MOL d          -0.735  32.554  -5.260  0.00  0.00    -0.173 NA
ATOM      6  H6  MOL d          -0.895  32.911  -7.236  0.00  0.00     0.189 HD
ENDROOT
BRANCH   4   7
ATOM      7  C6  MOL d          -0.091  32.721  -2.890  0.00  0.00     0.029 A 
ATOM      8  C10 MOL d          -1.185  32.502  -2.052  0.00  0.00    -0.059 A 
ATOM      9  C14 MOL d          -1.019  31.964  -0.777  0.00  0.00    -0.024 A 
ATOM     10  H7  MOL d          -2.181  32.755  -2.398  0.00  0.00     0.086 H 
ATOM     11  C13 MOL d           0.253  31.607  -0.342  0.00  0.00     0.074 A 
ATOM     12  C11 MOL d           1.356  31.851  -1.157  0.00  0.00    -0.018 A 
ATOM     13  C9  MOL d           1.182  32.414  -2.421  0.00  0.00     0.081 A 
ATOM     14  H14 MOL d           2.352  31.602  -0.808  0.00  0.00     0.092 H 
BRANCH   9  15
ATOM     15  C26 MOL d          -2.228  31.875   0.158  0.00  0.00    -0.042 C 
ATOM     16  H8  MOL d          -2.857  32.769   0.026  0.00  0.00     0.039 H 
ATOM     17  H9  MOL d          -1.879  31.822   1.200  0.00  0.00     0.039 H 
BRANCH  15  18
ATOM     18  C27 MOL d          -3.051  30.624  -0.165  0.00  0.00    -0.073 C 
ATOM     19  H10 MOL d          -3.706  30.386   0.687  0.00  0.00     0.028 H 
ATOM     20  H11 MOL d          -2.373  29.778  -0.354  0.00  0.00     0.028 H 
ATOM     21  H12 MOL d          -3.665  30.809  -1.059  0.00  0.00     0.028 H 
ENDBRANCH  15  18
ENDBRANCH   9  15
BRANCH  11  22
ATOM     22  O25 MOL d           0.378  30.877   0.803  0.00  0.00    -0.360 OA
ATOM     23  H13 MOL d           0.994  30.168   0.660  0.00  0.00     0.217 HD
ENDBRANCH  11  22
BRANCH  13  24
ATOM     24  O24 MOL d           2.261  32.677  -3.201  0.00  0.00    -0.360 OA
ATOM     25  H15 MOL d           3.019  32.831  -2.650  0.00  0.00     0.217 HD
ENDBRANCH  13  24
ENDBRANCH   4   7
BRANCH   1  26
ATOM     26  C8  MOL d           0.756  35.458  -3.888  0.00  0.00    -0.018 A 
ATOM     27  C15 MOL d           2.140  35.556  -3.781  0.00  0.00    -0.037 A 
ATOM     28  C12 MOL d           2.683  36.549  -2.972  0.00  0.00     0.105 A 
ATOM     29  H1  MOL d           2.785  34.870  -4.320  0.00  0.00     0.089 H 
ATOM     30  O17 MOL d           3.979  36.861  -2.676  0.00  0.00    -0.323 OA
ATOM     31  C16 MOL d           1.853  37.439  -2.290  0.00  0.00     0.105 A 
ATOM     32  C19 MOL d           3.949  37.945  -1.832  0.00  0.00     0.115 A 
ATOM     33  O18 MOL d           2.647  38.305  -1.593  0.00  0.00    -0.323 OA
ATOM     34  H2  MOL d           4.482  38.787  -2.298  0.00  0.00     0.118 H 
ATOM     35  H3  MOL d           4.438  37.682  -0.881  0.00  0.00     0.118 H 
ATOM     36  C22 MOL d           0.469  37.350  -2.397  0.00  0.00    -0.047 A 
ATOM     37  C20 MOL d          -0.068  36.349  -3.201  0.00  0.00    -0.069 A 
ATOM     38  H4  MOL d          -0.175  38.043  -1.868  0.00  0.00     0.087 H 
ATOM     39  H5  MOL d          -1.144  36.261  -3.295  0.00  0.00     0.085 H 
ENDBRANCH   1  26
BRANCH   2  40
ATOM     40  C7  MOL d           0.251  35.468  -7.060  0.00  0.00     0.229 C 
ATOM     41  O21 MOL d          -0.493  36.448  -7.090  0.00  0.00    -0.643 OA
ATOM     42  O23 MOL d           1.189  35.372  -7.853  0.00  0.00    -0.643 OA
ENDBRANCH   2  40
TORSDOF 7
ENDMDL
