MODEL 1
REMARK VINA RESULT:      -8.3      0.000      0.000
REMARK  5 active torsions:
REMARK  status: ('A' for Active; 'I' for Inactive)
REMARK    1  A    between atoms: S1_2  and  N1_4 
REMARK    2  A    between atoms: S1_2  and  C13_10 
REMARK    3  A    between atoms: N1_4  and  C12_5 
REMARK    4  A    between atoms: C12_5  and  C14_6 
REMARK       I    between atoms: C14_6  and  N2_8 
REMARK    5  A    between atoms: C2_15  and  C1_16 
ROOT
ATOM      1  C13 HS4 d           2.510  -5.611   6.016  0.00  0.00     0.079 A 
ATOM      2  C10 HS4 d           2.333  -5.723   7.399  0.00  0.00    -0.059 A 
ATOM      3  C5  HS4 d           3.336  -6.229   8.220  0.00  0.00    -0.071 A 
ATOM      4  C11 HS4 d           3.717  -6.044   5.460  0.00  0.00    -0.059 A 
ATOM      5  C8  HS4 d           4.724  -6.554   6.284  0.00  0.00    -0.071 A 
ATOM      6  C2  HS4 d           4.535  -6.671   7.665  0.00  0.00    -0.026 A 
ATOM      7  H4  HS4 d           1.395  -5.408   7.841  0.00  0.00     0.085 H 
ATOM      8  H5  HS4 d           3.185  -6.279   9.293  0.00  0.00     0.084 H 
ATOM      9  H6  HS4 d           3.873  -5.984   4.389  0.00  0.00     0.085 H 
ATOM     10  H7  HS4 d           5.666  -6.865   5.846  0.00  0.00     0.084 H 
ENDROOT
BRANCH   1  11
ATOM     11  S1  HS4 d           1.257  -4.987   5.240  0.00  0.00     0.259 S 
ATOM     12  O4  HS4 d           1.584  -3.605   5.510  0.00  0.00    -0.201 OA
ATOM     13  O3  HS4 d           0.015  -5.468   5.659  0.00  0.00    -0.201 OA
BRANCH  11  14
ATOM     14  N1  HS4 d           1.270  -4.938   3.642  0.00  0.00    -0.306 N 
ATOM     15  H1  HS4 d           0.668  -4.265   3.210  0.00  0.00     0.172 HD
BRANCH  14  16
ATOM     16  C12 HS4 d           2.054  -5.757   2.761  0.00  0.00     0.080 C 
ATOM     17  H2  HS4 d           3.094  -5.778   3.120  0.00  0.00     0.079 H 
ATOM     18  H3  HS4 d           2.024  -5.328   1.749  0.00  0.00     0.079 H 
BRANCH  16  19
ATOM     19  C14 HS4 d           1.523  -7.164   2.715  0.00  0.00     0.287 C 
ATOM     20  O1  HS4 d           2.005  -8.091   3.361  0.00  0.00    -0.267 OA
ATOM     21  N2  HS4 d           0.478  -7.323   1.936  0.00  0.00    -0.057 NA
ATOM     22  O2  HS4 d          -0.100  -8.567   1.866  0.00  0.00    -0.058 OA
ENDBRANCH  16  19
ENDBRANCH  14  16
ENDBRANCH  11  14
ENDBRANCH   1  11
BRANCH   6  23
ATOM     23  C1  HS4 d           5.620  -7.158   8.562  0.00  0.00    -0.026 A 
ATOM     24  C4  HS4 d           6.912  -7.437   8.130  0.00  0.00    -0.072 A 
ATOM     25  C7  HS4 d           7.863  -7.933   9.025  0.00  0.00    -0.082 A 
ATOM     26  H8  HS4 d           7.183  -7.270   7.094  0.00  0.00     0.084 H 
ATOM     27  C9  HS4 d           7.519  -8.181  10.348  0.00  0.00    -0.083 A 
ATOM     28  H9  HS4 d           8.874  -8.125   8.686  0.00  0.00     0.083 H 
ATOM     29  C6  HS4 d           6.221  -7.934  10.777  0.00  0.00    -0.082 A 
ATOM     30  H10 HS4 d           8.259  -8.566  11.041  0.00  0.00     0.083 H 
ATOM     31  C3  HS4 d           5.278  -7.440   9.887  0.00  0.00    -0.072 A 
ATOM     32  H11 HS4 d           5.946  -8.126  11.807  0.00  0.00     0.083 H 
ATOM     33  H12 HS4 d           4.261  -7.272  10.224  0.00  0.00     0.084 H 
ENDBRANCH   6  23
TORSDOF 5
ENDMDL
MODEL 2
REMARK VINA RESULT:      -8.2      1.421      2.976
REMARK  5 active torsions:
REMARK  status: ('A' for Active; 'I' for Inactive)
REMARK    1  A    between atoms: S1_2  and  N1_4 
REMARK    2  A    between atoms: S1_2  and  C13_10 
REMARK    3  A    between atoms: N1_4  and  C12_5 
REMARK    4  A    between atoms: C12_5  and  C14_6 
REMARK       I    between atoms: C14_6  and  N2_8 
REMARK    5  A    between atoms: C2_15  and  C1_16 
ROOT
ATOM      1  C13 HS4 d           1.737  -6.659   5.220  0.00  0.00     0.079 A 
ATOM      2  C10 HS4 d           2.969  -7.206   4.847  0.00  0.00    -0.059 A 
ATOM      3  C5  HS4 d           4.023  -7.305   5.751  0.00  0.00    -0.071 A 
ATOM      4  C11 HS4 d           1.586  -6.185   6.527  0.00  0.00    -0.059 A 
ATOM      5  C8  HS4 d           2.644  -6.282   7.434  0.00  0.00    -0.071 A 
ATOM      6  C2  HS4 d           3.876  -6.822   7.049  0.00  0.00    -0.026 A 
ATOM      7  H4  HS4 d           3.106  -7.561   3.832  0.00  0.00     0.085 H 
ATOM      8  H5  HS4 d           4.958  -7.759   5.444  0.00  0.00     0.084 H 
ATOM      9  H6  HS4 d           0.647  -5.741   6.837  0.00  0.00     0.085 H 
ATOM     10  H7  HS4 d           2.509  -5.934   8.452  0.00  0.00     0.084 H 
ENDROOT
BRANCH   1  11
ATOM     11  S1  HS4 d           0.641  -6.649   4.054  0.00  0.00     0.259 S 
ATOM     12  O4  HS4 d          -0.336  -5.860   4.772  0.00  0.00    -0.201 OA
ATOM     13  O3  HS4 d           0.265  -7.913   3.597  0.00  0.00    -0.201 OA
BRANCH  11  14
ATOM     14  N1  HS4 d           0.851  -5.692   2.790  0.00  0.00    -0.306 N 
ATOM     15  H1  HS4 d           0.117  -5.683   2.110  0.00  0.00     0.172 HD
BRANCH  14  16
ATOM     16  C12 HS4 d           1.981  -4.847   2.528  0.00  0.00     0.080 C 
ATOM     17  H2  HS4 d           2.025  -4.630   1.450  0.00  0.00     0.079 H 
ATOM     18  H3  HS4 d           2.899  -5.369   2.835  0.00  0.00     0.079 H 
BRANCH  16  19
ATOM     19  C14 HS4 d           1.875  -3.552   3.286  0.00  0.00     0.287 C 
ATOM     20  O1  HS4 d           1.412  -2.521   2.804  0.00  0.00    -0.267 OA
ATOM     21  N2  HS4 d           2.302  -3.613   4.526  0.00  0.00    -0.057 NA
ATOM     22  O2  HS4 d           2.204  -2.487   5.306  0.00  0.00    -0.058 OA
ENDBRANCH  16  19
ENDBRANCH  14  16
ENDBRANCH  11  14
ENDBRANCH   1  11
BRANCH   6  23
ATOM     23  C1  HS4 d           4.993  -6.986   8.021  0.00  0.00    -0.026 A 
ATOM     24  C4  HS4 d           6.334  -7.026   7.655  0.00  0.00    -0.072 A 
ATOM     25  C7  HS4 d           7.322  -7.227   8.621  0.00  0.00    -0.082 A 
ATOM     26  H8  HS4 d           6.614  -6.901   6.615  0.00  0.00     0.084 H 
ATOM     27  C9  HS4 d           6.974  -7.420   9.952  0.00  0.00    -0.083 A 
ATOM     28  H9  HS4 d           8.367  -7.233   8.332  0.00  0.00     0.083 H 
ATOM     29  C6  HS4 d           5.634  -7.413  10.317  0.00  0.00    -0.082 A 
ATOM     30  H10 HS4 d           7.743  -7.576  10.700  0.00  0.00     0.083 H 
ATOM     31  C3  HS4 d           4.653  -7.212   9.357  0.00  0.00    -0.072 A 
ATOM     32  H11 HS4 d           5.354  -7.564  11.354  0.00  0.00     0.083 H 
ATOM     33  H12 HS4 d           3.608  -7.230   9.647  0.00  0.00     0.084 H 
ENDBRANCH   6  23
TORSDOF 5
ENDMDL
MODEL 3
REMARK VINA RESULT:      -6.6      1.644      3.193
REMARK  5 active torsions:
REMARK  status: ('A' for Active; 'I' for Inactive)
REMARK    1  A    between atoms: S1_2  and  N1_4 
REMARK    2  A    between atoms: S1_2  and  C13_10 
REMARK    3  A    between atoms: N1_4  and  C12_5 
REMARK    4  A    between atoms: C12_5  and  C14_6 
REMARK       I    between atoms: C14_6  and  N2_8 
REMARK    5  A    between atoms: C2_15  and  C1_16 
ROOT
ATOM      1  C13 HS4 d           2.746  -6.483   4.311  0.00  0.00     0.079 A 
ATOM      2  C10 HS4 d           2.512  -7.574   5.154  0.00  0.00    -0.059 A 
ATOM      3  C5  HS4 d           3.279  -7.787   6.296  0.00  0.00    -0.071 A 
ATOM      4  C11 HS4 d           3.794  -5.611   4.624  0.00  0.00    -0.059 A 
ATOM      5  C8  HS4 d           4.565  -5.825   5.769  0.00  0.00    -0.071 A 
ATOM      6  C2  HS4 d           4.329  -6.924   6.602  0.00  0.00    -0.026 A 
ATOM      7  H4  HS4 d           1.716  -8.269   4.913  0.00  0.00     0.085 H 
ATOM      8  H5  HS4 d           3.058  -8.625   6.948  0.00  0.00     0.084 H 
ATOM      9  H6  HS4 d           4.007  -4.767   3.977  0.00  0.00     0.085 H 
ATOM     10  H7  HS4 d           5.359  -5.129   6.016  0.00  0.00     0.084 H 
ENDROOT
BRANCH   1  11
ATOM     11  S1  HS4 d           1.752  -6.391   3.061  0.00  0.00     0.259 S 
ATOM     12  O4  HS4 d           1.425  -7.799   3.023  0.00  0.00    -0.201 OA
ATOM     13  O3  HS4 d           2.304  -5.809   1.919  0.00  0.00    -0.201 OA
BRANCH  11  14
ATOM     14  N1  HS4 d           0.281  -5.801   3.272  0.00  0.00    -0.306 N 
ATOM     15  H1  HS4 d          -0.479  -6.367   2.950  0.00  0.00     0.172 HD
BRANCH  14  16
ATOM     16  C12 HS4 d          -0.065  -4.543   3.874  0.00  0.00     0.080 C 
ATOM     17  H2  HS4 d          -1.155  -4.501   4.016  0.00  0.00     0.079 H 
ATOM     18  H3  HS4 d           0.250  -3.727   3.207  0.00  0.00     0.079 H 
BRANCH  16  19
ATOM     19  C14 HS4 d           0.612  -4.378   5.206  0.00  0.00     0.287 C 
ATOM     20  O1  HS4 d           1.442  -3.502   5.440  0.00  0.00    -0.267 OA
ATOM     21  N2  HS4 d           0.229  -5.240   6.120  0.00  0.00    -0.057 NA
ATOM     22  O2  HS4 d           0.765  -5.136   7.381  0.00  0.00    -0.058 OA
ENDBRANCH  16  19
ENDBRANCH  14  16
ENDBRANCH  11  14
ENDBRANCH   1  11
BRANCH   6  23
ATOM     23  C1  HS4 d           5.104  -7.133   7.856  0.00  0.00    -0.026 A 
ATOM     24  C4  HS4 d           4.525  -7.206   9.119  0.00  0.00    -0.072 A 
ATOM     25  C7  HS4 d           5.325  -7.360  10.253  0.00  0.00    -0.082 A 
ATOM     26  H8  HS4 d           3.448  -7.143   9.222  0.00  0.00     0.084 H 
ATOM     27  C9  HS4 d           6.708  -7.409  10.135  0.00  0.00    -0.083 A 
ATOM     28  H9  HS4 d           4.865  -7.440  11.231  0.00  0.00     0.083 H 
ATOM     29  C6  HS4 d           7.293  -7.304   8.879  0.00  0.00    -0.082 A 
ATOM     30  H10 HS4 d           7.327  -7.528  11.017  0.00  0.00     0.083 H 
ATOM     31  C3  HS4 d           6.498  -7.153   7.753  0.00  0.00    -0.072 A 
ATOM     32  H11 HS4 d           8.372  -7.341   8.780  0.00  0.00     0.083 H 
ATOM     33  H12 HS4 d           6.963  -7.049   6.779  0.00  0.00     0.084 H 
ENDBRANCH   6  23
TORSDOF 5
ENDMDL
