MODEL 1
REMARK VINA RESULT:      -5.1      0.000      0.000
REMARK  7 active torsions:
REMARK  status: ('A' for Active; 'I' for Inactive)
REMARK    1  A    between atoms: CE_10  and  N1_1 
REMARK    2  A    between atoms: CA_3  and  N_2 
REMARK    3  A    between atoms: CA_3  and  C_4 
REMARK    4  A    between atoms: CB_7  and  CA_3 
REMARK    5  A    between atoms: CG_8  and  CB_7 
REMARK    6  A    between atoms: CD_9  and  CG_8 
REMARK    7  A    between atoms: CD_9  and  CE_10 
ROOT
ATOM      1  CB  MOL d          24.045 -15.689   8.314  0.00  0.00    -0.029 C 
ATOM      2  H5  MOL d          23.626 -15.347   9.271  0.00  0.00     0.036 H 
ATOM      3  H6  MOL d          25.079 -16.032   8.469  0.00  0.00     0.036 H 
ENDROOT
BRANCH   1   4
ATOM      4  CA  MOL d          24.061 -14.501   7.325  0.00  0.00     0.182 C 
ATOM      5  H4  MOL d          23.303 -13.770   7.646  0.00  0.00     0.101 H 
BRANCH   4   6
ATOM      6  N   MOL d          23.710 -14.992   5.966  0.00  0.00    -0.065 N 
ATOM      7  H1  MOL d          24.503 -15.469   5.566  0.00  0.00     0.275 HD
ATOM      8  H2  MOL d          23.459 -14.210   5.380  0.00  0.00     0.275 HD
ATOM      9  H3  MOL d          22.931 -15.629   6.029  0.00  0.00     0.275 HD
ENDBRANCH   4   6
BRANCH   4  10
ATOM     10  C   MOL d          25.430 -13.795   7.290  0.00  0.00     0.204 C 
ATOM     11  OXT MOL d          26.473 -14.426   7.636  0.00  0.00    -0.646 OA
ATOM     12  O   MOL d          25.512 -12.587   6.914  0.00  0.00    -0.646 OA
ENDBRANCH   4  10
ENDBRANCH   1   4
BRANCH   1  13
ATOM     13  CG  MOL d          23.209 -16.862   7.803  0.00  0.00    -0.061 C 
ATOM     14  H7  MOL d          23.735 -17.805   8.015  0.00  0.00     0.033 H 
ATOM     15  H8  MOL d          23.063 -16.760   6.717  0.00  0.00     0.033 H 
BRANCH  13  16
ATOM     16  CD  MOL d          21.859 -16.875   8.492  0.00  0.00    -0.044 C 
ATOM     17  H9  MOL d          21.678 -15.907   8.982  0.00  0.00     0.035 H 
ATOM     18  H10 MOL d          21.827 -17.678   9.242  0.00  0.00     0.035 H 
BRANCH  16  19
ATOM     19  CE  MOL d          20.808 -17.120   7.422  0.00  0.00     0.054 C 
ATOM     20  H11 MOL d          21.208 -17.847   6.699  0.00  0.00     0.073 H 
ATOM     21  H12 MOL d          19.911 -17.538   7.904  0.00  0.00     0.073 H 
BRANCH  19  22
ATOM     22  N1  MOL d          20.428 -15.926   6.707  0.00  0.00    -0.156 N 
ATOM     23  O2  MOL d          20.798 -15.792   5.448  0.00  0.00    -0.537 OA
ATOM     24  O1  MOL d          19.763 -14.956   7.299  0.00  0.00    -0.537 OA
ENDBRANCH  19  22
ENDBRANCH  16  19
ENDBRANCH  13  16
ENDBRANCH   1  13
TORSDOF 7
ENDMDL
MODEL 2
REMARK VINA RESULT:      -4.8      1.363      4.972
REMARK  7 active torsions:
REMARK  status: ('A' for Active; 'I' for Inactive)
REMARK    1  A    between atoms: CE_10  and  N1_1 
REMARK    2  A    between atoms: CA_3  and  N_2 
REMARK    3  A    between atoms: CA_3  and  C_4 
REMARK    4  A    between atoms: CB_7  and  CA_3 
REMARK    5  A    between atoms: CG_8  and  CB_7 
REMARK    6  A    between atoms: CD_9  and  CG_8 
REMARK    7  A    between atoms: CD_9  and  CE_10 
ROOT
ATOM      1  CB  MOL d          22.962 -16.835   6.923  0.00  0.00    -0.029 C 
ATOM      2  H5  MOL d          22.888 -15.960   6.261  0.00  0.00     0.036 H 
ATOM      3  H6  MOL d          23.212 -17.725   6.326  0.00  0.00     0.036 H 
ENDROOT
BRANCH   1   4
ATOM      4  CA  MOL d          21.592 -17.063   7.602  0.00  0.00     0.182 C 
ATOM      5  H4  MOL d          21.753 -17.165   8.685  0.00  0.00     0.101 H 
BRANCH   4   6
ATOM      6  N   MOL d          20.992 -18.321   7.083  0.00  0.00    -0.065 N 
ATOM      7  H1  MOL d          21.312 -18.482   6.140  0.00  0.00     0.275 HD
ATOM      8  H2  MOL d          19.987 -18.240   7.086  0.00  0.00     0.275 HD
ATOM      9  H3  MOL d          21.270 -19.092   7.669  0.00  0.00     0.275 HD
ENDBRANCH   4   6
BRANCH   4  10
ATOM     10  C   MOL d          20.626 -15.886   7.365  0.00  0.00     0.204 C 
ATOM     11  OXT MOL d          19.787 -15.940   6.417  0.00  0.00    -0.646 OA
ATOM     12  O   MOL d          20.671 -14.866   8.117  0.00  0.00    -0.646 OA
ENDBRANCH   4  10
ENDBRANCH   1   4
BRANCH   1  13
ATOM     13  CG  MOL d          24.082 -16.592   7.935  0.00  0.00    -0.061 C 
ATOM     14  H7  MOL d          25.041 -16.913   7.501  0.00  0.00     0.033 H 
ATOM     15  H8  MOL d          23.880 -17.172   8.848  0.00  0.00     0.033 H 
BRANCH  13  16
ATOM     16  CD  MOL d          24.154 -15.119   8.282  0.00  0.00    -0.044 C 
ATOM     17  H9  MOL d          24.891 -14.956   9.082  0.00  0.00     0.035 H 
ATOM     18  H10 MOL d          23.168 -14.760   8.613  0.00  0.00     0.035 H 
BRANCH  16  19
ATOM     19  CE  MOL d          24.581 -14.378   7.025  0.00  0.00     0.054 C 
ATOM     20  H11 MOL d          24.789 -15.119   6.238  0.00  0.00     0.073 H 
ATOM     21  H12 MOL d          23.753 -13.727   6.706  0.00  0.00     0.073 H 
BRANCH  19  22
ATOM     22  N1  MOL d          25.757 -13.564   7.211  0.00  0.00    -0.156 N 
ATOM     23  O2  MOL d          26.784 -14.069   7.870  0.00  0.00    -0.537 OA
ATOM     24  O1  MOL d          25.807 -12.322   6.778  0.00  0.00    -0.537 OA
ENDBRANCH  19  22
ENDBRANCH  16  19
ENDBRANCH  13  16
ENDBRANCH   1  13
TORSDOF 7
ENDMDL
MODEL 3
REMARK VINA RESULT:      -4.2      1.930      5.326
REMARK  7 active torsions:
REMARK  status: ('A' for Active; 'I' for Inactive)
REMARK    1  A    between atoms: CE_10  and  N1_1 
REMARK    2  A    between atoms: CA_3  and  N_2 
REMARK    3  A    between atoms: CA_3  and  C_4 
REMARK    4  A    between atoms: CB_7  and  CA_3 
REMARK    5  A    between atoms: CG_8  and  CB_7 
REMARK    6  A    between atoms: CD_9  and  CG_8 
REMARK    7  A    between atoms: CD_9  and  CE_10 
ROOT
ATOM      1  CB  MOL d          21.878 -15.659   5.876  0.00  0.00    -0.029 C 
ATOM      2  H5  MOL d          21.827 -14.610   5.549  0.00  0.00     0.036 H 
ATOM      3  H6  MOL d          21.837 -16.320   4.997  0.00  0.00     0.036 H 
ENDROOT
BRANCH   1   4
ATOM      4  CA  MOL d          20.660 -15.958   6.779  0.00  0.00     0.182 C 
ATOM      5  H4  MOL d          19.765 -16.030   6.144  0.00  0.00     0.101 H 
BRANCH   4   6
ATOM      6  N   MOL d          20.478 -14.838   7.742  0.00  0.00    -0.065 N 
ATOM      7  H1  MOL d          21.373 -14.579   8.128  0.00  0.00     0.275 HD
ATOM      8  H2  MOL d          19.863 -15.131   8.485  0.00  0.00     0.275 HD
ATOM      9  H3  MOL d          20.076 -14.047   7.264  0.00  0.00     0.275 HD
ENDBRANCH   4   6
BRANCH   4  10
ATOM     10  C   MOL d          20.819 -17.286   7.544  0.00  0.00     0.204 C 
ATOM     11  OXT MOL d          21.248 -18.313   6.940  0.00  0.00    -0.646 OA
ATOM     12  O   MOL d          20.522 -17.349   8.775  0.00  0.00    -0.646 OA
ENDBRANCH   4  10
ENDBRANCH   1   4
BRANCH   1  13
ATOM     13  CG  MOL d          23.208 -15.884   6.598  0.00  0.00    -0.061 C 
ATOM     14  H7  MOL d          23.894 -16.431   5.934  0.00  0.00     0.033 H 
ATOM     15  H8  MOL d          23.032 -16.473   7.509  0.00  0.00     0.033 H 
BRANCH  13  16
ATOM     16  CD  MOL d          23.825 -14.551   6.972  0.00  0.00    -0.044 C 
ATOM     17  H9  MOL d          23.143 -13.991   7.628  0.00  0.00     0.035 H 
ATOM     18  H10 MOL d          24.028 -13.962   6.065  0.00  0.00     0.035 H 
BRANCH  16  19
ATOM     19  CE  MOL d          25.126 -14.845   7.701  0.00  0.00     0.054 C 
ATOM     20  H11 MOL d          24.925 -14.851   8.783  0.00  0.00     0.073 H 
ATOM     21  H12 MOL d          25.485 -15.836   7.388  0.00  0.00     0.073 H 
BRANCH  19  22
ATOM     22  N1  MOL d          26.163 -13.878   7.434  0.00  0.00    -0.156 N 
ATOM     23  O2  MOL d          26.784 -13.312   8.452  0.00  0.00    -0.537 OA
ATOM     24  O1  MOL d          26.466 -13.520   6.204  0.00  0.00    -0.537 OA
ENDBRANCH  19  22
ENDBRANCH  16  19
ENDBRANCH  13  16
ENDBRANCH   1  13
TORSDOF 7
ENDMDL
MODEL 4
REMARK VINA RESULT:      -4.2      2.159      2.454
REMARK  7 active torsions:
REMARK  status: ('A' for Active; 'I' for Inactive)
REMARK    1  A    between atoms: CE_10  and  N1_1 
REMARK    2  A    between atoms: CA_3  and  N_2 
REMARK    3  A    between atoms: CA_3  and  C_4 
REMARK    4  A    between atoms: CB_7  and  CA_3 
REMARK    5  A    between atoms: CG_8  and  CB_7 
REMARK    6  A    between atoms: CD_9  and  CG_8 
REMARK    7  A    between atoms: CD_9  and  CE_10 
ROOT
ATOM      1  CB  MOL d          22.400 -15.209   8.034  0.00  0.00    -0.029 C 
ATOM      2  H5  MOL d          22.087 -14.423   8.737  0.00  0.00     0.036 H 
ATOM      3  H6  MOL d          23.009 -15.956   8.565  0.00  0.00     0.036 H 
ENDROOT
BRANCH   1   4
ATOM      4  CA  MOL d          23.261 -14.567   6.922  0.00  0.00     0.182 C 
ATOM      5  H4  MOL d          22.828 -13.589   6.666  0.00  0.00     0.101 H 
BRANCH   4   6
ATOM      6  N   MOL d          23.231 -15.438   5.716  0.00  0.00    -0.065 N 
ATOM      7  H1  MOL d          22.858 -16.341   5.963  0.00  0.00     0.275 HD
ATOM      8  H2  MOL d          24.167 -15.547   5.357  0.00  0.00     0.275 HD
ATOM      9  H3  MOL d          22.647 -15.015   5.011  0.00  0.00     0.275 HD
ENDBRANCH   4   6
BRANCH   4  10
ATOM     10  C   MOL d          24.718 -14.349   7.373  0.00  0.00     0.204 C 
ATOM     11  OXT MOL d          25.330 -13.291   7.037  0.00  0.00    -0.646 OA
ATOM     12  O   MOL d          25.303 -15.224   8.080  0.00  0.00    -0.646 OA
ENDBRANCH   4  10
ENDBRANCH   1   4
BRANCH   1  13
ATOM     13  CG  MOL d          21.152 -15.897   7.480  0.00  0.00    -0.061 C 
ATOM     14  H7  MOL d          21.352 -16.246   6.456  0.00  0.00     0.033 H 
ATOM     15  H8  MOL d          20.317 -15.181   7.466  0.00  0.00     0.033 H 
BRANCH  13  16
ATOM     16  CD  MOL d          20.784 -17.082   8.351  0.00  0.00    -0.044 C 
ATOM     17  H9  MOL d          19.726 -17.019   8.644  0.00  0.00     0.035 H 
ATOM     18  H10 MOL d          21.414 -17.096   9.253  0.00  0.00     0.035 H 
BRANCH  16  19
ATOM     19  CE  MOL d          21.023 -18.338   7.530  0.00  0.00     0.054 C 
ATOM     20  H11 MOL d          20.786 -19.213   8.154  0.00  0.00     0.073 H 
ATOM     21  H12 MOL d          20.354 -18.317   6.657  0.00  0.00     0.073 H 
BRANCH  19  22
ATOM     22  N1  MOL d          22.382 -18.466   7.061  0.00  0.00    -0.156 N 
ATOM     23  O2  MOL d          22.606 -18.509   5.762  0.00  0.00    -0.537 OA
ATOM     24  O1  MOL d          23.388 -18.585   7.901  0.00  0.00    -0.537 OA
ENDBRANCH  19  22
ENDBRANCH  16  19
ENDBRANCH  13  16
ENDBRANCH   1  13
TORSDOF 7
ENDMDL
MODEL 5
REMARK VINA RESULT:      -4.0      1.843      2.009
REMARK  7 active torsions:
REMARK  status: ('A' for Active; 'I' for Inactive)
REMARK    1  A    between atoms: CE_10  and  N1_1 
REMARK    2  A    between atoms: CA_3  and  N_2 
REMARK    3  A    between atoms: CA_3  and  C_4 
REMARK    4  A    between atoms: CB_7  and  CA_3 
REMARK    5  A    between atoms: CG_8  and  CB_7 
REMARK    6  A    between atoms: CD_9  and  CG_8 
REMARK    7  A    between atoms: CD_9  and  CE_10 
ROOT
ATOM      1  CB  MOL d          23.332 -16.393   8.720  0.00  0.00    -0.029 C 
ATOM      2  H5  MOL d          22.685 -15.557   9.022  0.00  0.00     0.036 H 
ATOM      3  H6  MOL d          23.978 -16.680   9.563  0.00  0.00     0.036 H 
ENDROOT
BRANCH   1   4
ATOM      4  CA  MOL d          24.226 -15.930   7.546  0.00  0.00     0.182 C 
ATOM      5  H4  MOL d          24.718 -16.814   7.114  0.00  0.00     0.101 H 
BRANCH   4   6
ATOM      6  N   MOL d          25.268 -15.003   8.062  0.00  0.00    -0.065 N 
ATOM      7  H1  MOL d          25.702 -14.521   7.290  0.00  0.00     0.275 HD
ATOM      8  H2  MOL d          25.967 -15.529   8.564  0.00  0.00     0.275 HD
ATOM      9  H3  MOL d          24.843 -14.331   8.681  0.00  0.00     0.275 HD
ENDBRANCH   4   6
BRANCH   4  10
ATOM     10  C   MOL d          23.412 -15.238   6.437  0.00  0.00     0.204 C 
ATOM     11  OXT MOL d          23.097 -15.881   5.391  0.00  0.00    -0.646 OA
ATOM     12  O   MOL d          23.056 -14.028   6.571  0.00  0.00    -0.646 OA
ENDBRANCH   4  10
ENDBRANCH   1   4
BRANCH   1  13
ATOM     13  CG  MOL d          22.451 -17.586   8.347  0.00  0.00    -0.061 C 
ATOM     14  H7  MOL d          22.831 -18.490   8.845  0.00  0.00     0.033 H 
ATOM     15  H8  MOL d          22.476 -17.730   7.256  0.00  0.00     0.033 H 
BRANCH  13  16
ATOM     16  CD  MOL d          21.023 -17.332   8.787  0.00  0.00    -0.044 C 
ATOM     17  H9  MOL d          20.978 -16.433   9.419  0.00  0.00     0.035 H 
ATOM     18  H10 MOL d          20.644 -18.197   9.351  0.00  0.00     0.035 H 
BRANCH  16  19
ATOM     19  CE  MOL d          20.192 -17.126   7.531  0.00  0.00     0.054 C 
ATOM     20  H11 MOL d          20.645 -17.708   6.714  0.00  0.00     0.073 H 
ATOM     21  H12 MOL d          19.173 -17.494   7.723  0.00  0.00     0.073 H 
BRANCH  19  22
ATOM     22  N1  MOL d          20.109 -15.746   7.119  0.00  0.00    -0.156 N 
ATOM     23  O2  MOL d          19.996 -15.471   5.833  0.00  0.00    -0.537 OA
ATOM     24  O1  MOL d          20.190 -14.764   7.992  0.00  0.00    -0.537 OA
ENDBRANCH  19  22
ENDBRANCH  16  19
ENDBRANCH  13  16
ENDBRANCH   1  13
TORSDOF 7
ENDMDL
MODEL 6
REMARK VINA RESULT:      -2.8      2.660      3.370
REMARK  7 active torsions:
REMARK  status: ('A' for Active; 'I' for Inactive)
REMARK    1  A    between atoms: CE_10  and  N1_1 
REMARK    2  A    between atoms: CA_3  and  N_2 
REMARK    3  A    between atoms: CA_3  and  C_4 
REMARK    4  A    between atoms: CB_7  and  CA_3 
REMARK    5  A    between atoms: CG_8  and  CB_7 
REMARK    6  A    between atoms: CD_9  and  CG_8 
REMARK    7  A    between atoms: CD_9  and  CE_10 
ROOT
ATOM      1  CB  MOL d          21.405 -15.827   8.741  0.00  0.00    -0.029 C 
ATOM      2  H5  MOL d          21.025 -15.461   9.706  0.00  0.00     0.036 H 
ATOM      3  H6  MOL d          21.062 -16.860   8.579  0.00  0.00     0.036 H 
ENDROOT
BRANCH   1   4
ATOM      4  CA  MOL d          22.950 -15.817   8.779  0.00  0.00     0.182 C 
ATOM      5  H4  MOL d          23.272 -15.451   9.765  0.00  0.00     0.101 H 
BRANCH   4   6
ATOM      6  N   MOL d          23.460 -14.891   7.732  0.00  0.00    -0.065 N 
ATOM      7  H1  MOL d          24.468 -14.894   7.742  0.00  0.00     0.275 HD
ATOM      8  H2  MOL d          23.125 -13.959   7.916  0.00  0.00     0.275 HD
ATOM      9  H3  MOL d          23.132 -15.194   6.828  0.00  0.00     0.275 HD
ENDBRANCH   4   6
BRANCH   4  10
ATOM     10  C   MOL d          23.543 -17.224   8.568  0.00  0.00     0.204 C 
ATOM     11  OXT MOL d          24.797 -17.370   8.466  0.00  0.00    -0.646 OA
ATOM     12  O   MOL d          22.777 -18.231   8.497  0.00  0.00    -0.646 OA
ENDBRANCH   4  10
ENDBRANCH   1   4
BRANCH   1  13
ATOM     13  CG  MOL d          20.844 -14.943   7.626  0.00  0.00    -0.061 C 
ATOM     14  H7  MOL d          21.677 -14.492   7.065  0.00  0.00     0.033 H 
ATOM     15  H8  MOL d          20.226 -14.148   8.067  0.00  0.00     0.033 H 
BRANCH  13  16
ATOM     16  CD  MOL d          19.996 -15.774   6.684  0.00  0.00    -0.044 C 
ATOM     17  H9  MOL d          18.983 -15.350   6.616  0.00  0.00     0.035 H 
ATOM     18  H10 MOL d          19.935 -16.811   7.047  0.00  0.00     0.035 H 
BRANCH  16  19
ATOM     19  CE  MOL d          20.667 -15.740   5.321  0.00  0.00     0.054 C 
ATOM     20  H11 MOL d          19.983 -16.187   4.584  0.00  0.00     0.073 H 
ATOM     21  H12 MOL d          20.859 -14.690   5.053  0.00  0.00     0.073 H 
BRANCH  19  22
ATOM     22  N1  MOL d          21.917 -16.458   5.280  0.00  0.00    -0.156 N 
ATOM     23  O2  MOL d          21.915 -17.756   5.523  0.00  0.00    -0.537 OA
ATOM     24  O1  MOL d          23.056 -15.840   5.051  0.00  0.00    -0.537 OA
ENDBRANCH  19  22
ENDBRANCH  16  19
ENDBRANCH  13  16
ENDBRANCH   1  13
TORSDOF 7
ENDMDL
