MODEL 1
REMARK VINA RESULT:      -7.9      0.000      0.000
REMARK  12 active torsions:
REMARK  status: ('A' for Active; 'I' for Inactive)
REMARK    1  A    between atoms: O4_1  and  C4_2 
REMARK    2  A    between atoms: C3_6  and  O3_7 
REMARK    3  A    between atoms: C2_8  and  O2_9 
REMARK    4  A    between atoms: C1_10  and  O1_11 
REMARK    5  A    between atoms: N2_14  and  C8_15 
REMARK    6  A    between atoms: C8_15  and  C9_16 
REMARK    7  A    between atoms: C9_16  and  C10_17 
REMARK    8  A    between atoms: C10_17  and  C11_18 
REMARK    9  A    between atoms: C11_18  and  C12_19 
REMARK   10  A    between atoms: C12_19  and  C13_20 
REMARK   11  A    between atoms: C13_20  and  C14_21 
REMARK   12  A    between atoms: C14_21  and  C15_22 
ROOT
ATOM      1  C4  LGS d           1.624   6.669  13.354  0.00  0.00     0.084 C 
ATOM      2  C5  LGS d           1.047   6.242  11.999  0.00  0.00     0.066 C 
ATOM      3  C6  LGS d           0.643   7.356  11.034  0.00  0.00     0.050 C 
ATOM      4  O6  LGS d           1.160   6.929   9.748  0.00  0.00    -0.319 OA
ATOM      5  C3  LGS d           1.873   5.374  14.135  0.00  0.00     0.091 C 
ATOM      6  C2  LGS d           3.021   4.564  13.510  0.00  0.00     0.104 C 
ATOM      7  C1  LGS d           2.931   4.484  11.967  0.00  0.00     0.133 C 
ATOM      8  N1  LGS d           2.094   5.498  11.282  0.00  0.00    -0.307 N 
ATOM      9  C7  LGS d           2.079   5.924   9.969  0.00  0.00     0.241 C 
ATOM     10  N2  LGS d           2.809   5.409   8.975  0.00  0.00    -0.251 NA
ATOM     11  H2  LGS d           2.564   7.225  13.216  0.00  0.00     0.090 H 
ATOM     12  H3  LGS d           0.173   5.601  12.185  0.00  0.00     0.080 H 
ATOM     13  H4  LGS d           1.094   8.313  11.336  0.00  0.00     0.078 H 
ATOM     14  H5  LGS d          -0.451   7.461  10.997  0.00  0.00     0.078 H 
ATOM     15  H6  LGS d           0.952   4.772  14.140  0.00  0.00     0.091 H 
ATOM     16  H8  LGS d           3.959   5.075  13.771  0.00  0.00     0.093 H 
ATOM     17  H10 LGS d           2.547   3.485  11.711  0.00  0.00     0.122 H 
ENDROOT
BRANCH  10  18
ATOM     18  C8  LGS d           2.686   5.660   7.533  0.00  0.00     0.019 C 
ATOM     19  H12 LGS d           3.361   6.482   7.253  0.00  0.00     0.067 H 
ATOM     20  H13 LGS d           1.648   5.943   7.304  0.00  0.00     0.067 H 
BRANCH  18  21
ATOM     21  C9  LGS d           3.053   4.418   6.728  0.00  0.00    -0.048 C 
ATOM     22  H14 LGS d           3.343   4.725   5.713  0.00  0.00     0.035 H 
ATOM     23  H15 LGS d           2.176   3.757   6.676  0.00  0.00     0.035 H 
BRANCH  21  24
ATOM     24  C10 LGS d           4.218   3.649   7.367  0.00  0.00    -0.064 C 
ATOM     25  H16 LGS d           3.856   2.658   7.680  0.00  0.00     0.033 H 
ATOM     26  H17 LGS d           4.566   4.207   8.249  0.00  0.00     0.033 H 
BRANCH  24  27
ATOM     27  C11 LGS d           5.412   3.456   6.402  0.00  0.00    -0.065 C 
ATOM     28  H18 LGS d           5.391   4.222   5.614  0.00  0.00     0.033 H 
ATOM     29  H19 LGS d           5.372   2.457   5.943  0.00  0.00     0.033 H 
BRANCH  27  30
ATOM     30  C12 LGS d           6.690   3.600   7.250  0.00  0.00    -0.065 C 
ATOM     31  H20 LGS d           7.262   2.663   7.182  0.00  0.00     0.033 H 
ATOM     32  H21 LGS d           6.398   3.777   8.296  0.00  0.00     0.033 H 
BRANCH  30  33
ATOM     33  C13 LGS d           7.594   4.762   6.788  0.00  0.00    -0.065 C 
ATOM     34  H22 LGS d           7.041   5.389   6.073  0.00  0.00     0.033 H 
ATOM     35  H23 LGS d           8.490   4.351   6.299  0.00  0.00     0.033 H 
BRANCH  33  36
ATOM     36  C14 LGS d           8.023   5.623   7.990  0.00  0.00    -0.069 C 
ATOM     37  H24 LGS d           8.431   6.577   7.624  0.00  0.00     0.032 H 
ATOM     38  H25 LGS d           8.797   5.087   8.559  0.00  0.00     0.032 H 
BRANCH  36  39
ATOM     39  C15 LGS d           6.831   5.906   8.908  0.00  0.00    -0.077 C 
ATOM     40  H26 LGS d           6.918   5.299   9.820  0.00  0.00     0.027 H 
ATOM     41  H27 LGS d           5.897   5.652   8.386  0.00  0.00     0.027 H 
ATOM     42  H28 LGS d           6.822   6.973   9.178  0.00  0.00     0.027 H 
ENDBRANCH  36  39
ENDBRANCH  33  36
ENDBRANCH  30  33
ENDBRANCH  27  30
ENDBRANCH  24  27
ENDBRANCH  21  24
ENDBRANCH  18  21
ENDBRANCH  10  18
BRANCH   7  43
ATOM     43  O1  LGS d           4.241   4.669  11.397  0.00  0.00    -0.374 OA
ATOM     44  H11 LGS d           4.206   5.355  10.741  0.00  0.00     0.212 HD
ENDBRANCH   7  43
BRANCH   1  45
ATOM     45  O4  LGS d           0.686   7.476  14.045  0.00  0.00    -0.391 OA
ATOM     46  H1  LGS d           1.148   8.065  14.631  0.00  0.00     0.210 HD
ENDBRANCH   1  45
BRANCH   6  47
ATOM     47  O2  LGS d           3.081   3.229  14.022  0.00  0.00    -0.389 OA
ATOM     48  H9  LGS d           2.761   3.219  14.918  0.00  0.00     0.210 HD
ENDBRANCH   6  47
BRANCH   5  49
ATOM     49  O3  LGS d           2.267   5.679  15.474  0.00  0.00    -0.390 OA
ATOM     50  H7  LGS d           2.735   6.506  15.484  0.00  0.00     0.210 HD
ENDBRANCH   5  49
TORSDOF 12
ENDMDL
MODEL 2
REMARK VINA RESULT:      -7.9      1.767      2.286
REMARK  12 active torsions:
REMARK  status: ('A' for Active; 'I' for Inactive)
REMARK    1  A    between atoms: O4_1  and  C4_2 
REMARK    2  A    between atoms: C3_6  and  O3_7 
REMARK    3  A    between atoms: C2_8  and  O2_9 
REMARK    4  A    between atoms: C1_10  and  O1_11 
REMARK    5  A    between atoms: N2_14  and  C8_15 
REMARK    6  A    between atoms: C8_15  and  C9_16 
REMARK    7  A    between atoms: C9_16  and  C10_17 
REMARK    8  A    between atoms: C10_17  and  C11_18 
REMARK    9  A    between atoms: C11_18  and  C12_19 
REMARK   10  A    between atoms: C12_19  and  C13_20 
REMARK   11  A    between atoms: C13_20  and  C14_21 
REMARK   12  A    between atoms: C14_21  and  C15_22 
ROOT
ATOM      1  C4  LGS d           1.609   6.686  13.295  0.00  0.00     0.084 C 
ATOM      2  C5  LGS d           1.061   6.193  11.950  0.00  0.00     0.066 C 
ATOM      3  C6  LGS d           0.625   7.259  10.946  0.00  0.00     0.050 C 
ATOM      4  O6  LGS d           1.170   6.809   9.679  0.00  0.00    -0.319 OA
ATOM      5  C3  LGS d           1.897   5.427  14.121  0.00  0.00     0.091 C 
ATOM      6  C2  LGS d           3.080   4.641  13.534  0.00  0.00     0.104 C 
ATOM      7  C1  LGS d           3.008   4.506  11.993  0.00  0.00     0.133 C 
ATOM      8  N1  LGS d           2.140   5.465  11.268  0.00  0.00    -0.307 N 
ATOM      9  C7  LGS d           2.122   5.846   9.941  0.00  0.00     0.241 C 
ATOM     10  N2  LGS d           2.880   5.325   8.971  0.00  0.00    -0.251 NA
ATOM     11  H2  LGS d           2.529   7.271  13.147  0.00  0.00     0.090 H 
ATOM     12  H3  LGS d           0.208   5.526  12.152  0.00  0.00     0.080 H 
ATOM     13  H4  LGS d           1.038   8.241  11.220  0.00  0.00     0.078 H 
ATOM     14  H5  LGS d          -0.472   7.322  10.897  0.00  0.00     0.078 H 
ATOM     15  H6  LGS d           0.999   4.792  14.139  0.00  0.00     0.091 H 
ATOM     16  H8  LGS d           3.997   5.194  13.785  0.00  0.00     0.093 H 
ATOM     17  H10 LGS d           2.662   3.486  11.768  0.00  0.00     0.122 H 
ENDROOT
BRANCH  10  18
ATOM     18  C8  LGS d           2.761   5.524   7.520  0.00  0.00     0.019 C 
ATOM     19  H12 LGS d           3.351   6.405   7.229  0.00  0.00     0.067 H 
ATOM     20  H13 LGS d           1.704   5.689   7.265  0.00  0.00     0.067 H 
BRANCH  18  21
ATOM     21  C9  LGS d           3.273   4.307   6.758  0.00  0.00    -0.048 C 
ATOM     22  H14 LGS d           2.818   3.401   7.186  0.00  0.00     0.035 H 
ATOM     23  H15 LGS d           4.366   4.254   6.865  0.00  0.00     0.035 H 
BRANCH  21  24
ATOM     24  C10 LGS d           2.922   4.381   5.265  0.00  0.00    -0.064 C 
ATOM     25  H16 LGS d           2.042   3.747   5.079  0.00  0.00     0.033 H 
ATOM     26  H17 LGS d           3.776   4.002   4.684  0.00  0.00     0.033 H 
BRANCH  24  27
ATOM     27  C11 LGS d           2.602   5.819   4.793  0.00  0.00    -0.065 C 
ATOM     28  H18 LGS d           2.544   6.498   5.656  0.00  0.00     0.033 H 
ATOM     29  H19 LGS d           1.646   5.837   4.248  0.00  0.00     0.033 H 
BRANCH  27  30
ATOM     30  C12 LGS d           3.752   6.241   3.860  0.00  0.00    -0.065 C 
ATOM     31  H20 LGS d           3.346   6.906   3.083  0.00  0.00     0.033 H 
ATOM     32  H21 LGS d           4.171   5.339   3.390  0.00  0.00     0.033 H 
BRANCH  30  33
ATOM     33  C13 LGS d           4.887   6.983   4.597  0.00  0.00    -0.065 C 
ATOM     34  H22 LGS d           4.778   6.827   5.680  0.00  0.00     0.033 H 
ATOM     35  H23 LGS d           4.821   8.058   4.374  0.00  0.00     0.033 H 
BRANCH  33  36
ATOM     36  C14 LGS d           6.260   6.456   4.144  0.00  0.00    -0.069 C 
ATOM     37  H24 LGS d           6.952   6.469   4.999  0.00  0.00     0.032 H 
ATOM     38  H25 LGS d           6.651   7.105   3.346  0.00  0.00     0.032 H 
BRANCH  36  39
ATOM     39  C15 LGS d           6.145   5.024   3.613  0.00  0.00    -0.077 C 
ATOM     40  H26 LGS d           6.772   4.357   4.221  0.00  0.00     0.027 H 
ATOM     41  H27 LGS d           6.482   4.993   2.567  0.00  0.00     0.027 H 
ATOM     42  H28 LGS d           5.096   4.695   3.671  0.00  0.00     0.027 H 
ENDBRANCH  36  39
ENDBRANCH  33  36
ENDBRANCH  30  33
ENDBRANCH  27  30
ENDBRANCH  24  27
ENDBRANCH  21  24
ENDBRANCH  18  21
ENDBRANCH  10  18
BRANCH   7  43
ATOM     43  O1  LGS d           4.315   4.720  11.428  0.00  0.00    -0.374 OA
ATOM     44  H11 LGS d           4.666   3.892  11.121  0.00  0.00     0.212 HD
ENDBRANCH   7  43
BRANCH   1  45
ATOM     45  O4  LGS d           0.636   7.480  13.952  0.00  0.00    -0.391 OA
ATOM     46  H1  LGS d           0.422   8.230  13.409  0.00  0.00     0.210 HD
ENDBRANCH   1  45
BRANCH   6  47
ATOM     47  O2  LGS d           3.184   3.325  14.091  0.00  0.00    -0.389 OA
ATOM     48  H9  LGS d           3.510   3.385  14.982  0.00  0.00     0.210 HD
ENDBRANCH   6  47
BRANCH   5  49
ATOM     49  O3  LGS d           2.268   5.791  15.453  0.00  0.00    -0.390 OA
ATOM     50  H7  LGS d           3.209   5.705  15.553  0.00  0.00     0.210 HD
ENDBRANCH   5  49
TORSDOF 12
ENDMDL
MODEL 3
REMARK VINA RESULT:      -7.7      1.337      1.897
REMARK  12 active torsions:
REMARK  status: ('A' for Active; 'I' for Inactive)
REMARK    1  A    between atoms: O4_1  and  C4_2 
REMARK    2  A    between atoms: C3_6  and  O3_7 
REMARK    3  A    between atoms: C2_8  and  O2_9 
REMARK    4  A    between atoms: C1_10  and  O1_11 
REMARK    5  A    between atoms: N2_14  and  C8_15 
REMARK    6  A    between atoms: C8_15  and  C9_16 
REMARK    7  A    between atoms: C9_16  and  C10_17 
REMARK    8  A    between atoms: C10_17  and  C11_18 
REMARK    9  A    between atoms: C11_18  and  C12_19 
REMARK   10  A    between atoms: C12_19  and  C13_20 
REMARK   11  A    between atoms: C13_20  and  C14_21 
REMARK   12  A    between atoms: C14_21  and  C15_22 
ROOT
ATOM      1  C4  LGS d           1.661   6.671  13.417  0.00  0.00     0.084 C 
ATOM      2  C5  LGS d           1.017   6.267  12.086  0.00  0.00     0.066 C 
ATOM      3  C6  LGS d           0.596   7.396  11.147  0.00  0.00     0.050 C 
ATOM      4  O6  LGS d           1.047   6.968   9.837  0.00  0.00    -0.319 OA
ATOM      5  C3  LGS d           1.915   5.365  14.179  0.00  0.00     0.091 C 
ATOM      6  C2  LGS d           3.016   4.535  13.499  0.00  0.00     0.104 C 
ATOM      7  C1  LGS d           2.857   4.468  11.961  0.00  0.00     0.133 C 
ATOM      8  N1  LGS d           2.014   5.505  11.320  0.00  0.00    -0.307 N 
ATOM      9  C7  LGS d           1.952   5.941  10.011  0.00  0.00     0.241 C 
ATOM     10  N2  LGS d           2.625   5.417   8.983  0.00  0.00    -0.251 NA
ATOM     11  H2  LGS d           2.607   7.207  13.242  0.00  0.00     0.090 H 
ATOM     12  H3  LGS d           0.137   5.644  12.307  0.00  0.00     0.080 H 
ATOM     13  H4  LGS d           1.081   8.341  11.436  0.00  0.00     0.078 H 
ATOM     14  H5  LGS d          -0.496   7.526  11.159  0.00  0.00     0.078 H 
ATOM     15  H6  LGS d           0.982   4.784  14.220  0.00  0.00     0.091 H 
ATOM     16  H8  LGS d           3.976   5.023  13.722  0.00  0.00     0.093 H 
ATOM     17  H10 LGS d           2.440   3.480  11.716  0.00  0.00     0.122 H 
ENDROOT
BRANCH  10  18
ATOM     18  C8  LGS d           2.446   5.681   7.550  0.00  0.00     0.019 C 
ATOM     19  H12 LGS d           2.358   6.766   7.393  0.00  0.00     0.067 H 
ATOM     20  H13 LGS d           1.526   5.184   7.205  0.00  0.00     0.067 H 
BRANCH  18  21
ATOM     21  C9  LGS d           3.628   5.155   6.744  0.00  0.00    -0.048 C 
ATOM     22  H14 LGS d           3.323   5.048   5.692  0.00  0.00     0.035 H 
ATOM     23  H15 LGS d           3.923   4.174   7.143  0.00  0.00     0.035 H 
BRANCH  21  24
ATOM     24  C10 LGS d           4.834   6.104   6.816  0.00  0.00    -0.064 C 
ATOM     25  H16 LGS d           4.487   7.087   7.169  0.00  0.00     0.033 H 
ATOM     26  H17 LGS d           5.262   6.206   5.808  0.00  0.00     0.033 H 
BRANCH  24  27
ATOM     27  C11 LGS d           5.940   5.599   7.773  0.00  0.00    -0.065 C 
ATOM     28  H18 LGS d           6.881   5.453   7.222  0.00  0.00     0.033 H 
ATOM     29  H19 LGS d           5.636   4.649   8.238  0.00  0.00     0.033 H 
BRANCH  27  30
ATOM     30  C12 LGS d           6.117   6.684   8.851  0.00  0.00    -0.065 C 
ATOM     31  H20 LGS d           7.181   6.959   8.898  0.00  0.00     0.033 H 
ATOM     32  H21 LGS d           5.802   6.270   9.820  0.00  0.00     0.033 H 
BRANCH  30  33
ATOM     33  C13 LGS d           5.292   7.957   8.569  0.00  0.00    -0.065 C 
ATOM     34  H22 LGS d           4.451   7.704   7.906  0.00  0.00     0.033 H 
ATOM     35  H23 LGS d           5.934   8.703   8.079  0.00  0.00     0.033 H 
BRANCH  33  36
ATOM     36  C14 LGS d           4.743   8.546   9.881  0.00  0.00    -0.069 C 
ATOM     37  H24 LGS d           3.646   8.460   9.885  0.00  0.00     0.032 H 
ATOM     38  H25 LGS d           5.028   9.606   9.948  0.00  0.00     0.032 H 
BRANCH  36  39
ATOM     39  C15 LGS d           5.308   7.797  11.092  0.00  0.00    -0.077 C 
ATOM     40  H26 LGS d           4.557   7.089  11.468  0.00  0.00     0.027 H 
ATOM     41  H27 LGS d           5.561   8.518  11.883  0.00  0.00     0.027 H 
ATOM     42  H28 LGS d           6.213   7.248  10.793  0.00  0.00     0.027 H 
ENDBRANCH  36  39
ENDBRANCH  33  36
ENDBRANCH  30  33
ENDBRANCH  27  30
ENDBRANCH  24  27
ENDBRANCH  21  24
ENDBRANCH  18  21
ENDBRANCH  10  18
BRANCH   7  43
ATOM     43  O1  LGS d           4.145   4.628  11.335  0.00  0.00    -0.374 OA
ATOM     44  H11 LGS d           4.292   5.547  11.146  0.00  0.00     0.212 HD
ENDBRANCH   7  43
BRANCH   1  45
ATOM     45  O4  LGS d           0.773   7.494  14.155  0.00  0.00    -0.391 OA
ATOM     46  H1  LGS d           1.109   7.610  15.036  0.00  0.00     0.210 HD
ENDBRANCH   1  45
BRANCH   6  47
ATOM     47  O2  LGS d           3.068   3.194  14.000  0.00  0.00    -0.389 OA
ATOM     48  H9  LGS d           2.202   2.933  14.292  0.00  0.00     0.210 HD
ENDBRANCH   6  47
BRANCH   5  49
ATOM     49  O3  LGS d           2.374   5.651  15.501  0.00  0.00    -0.390 OA
ATOM     50  H7  LGS d           2.640   6.562  15.553  0.00  0.00     0.210 HD
ENDBRANCH   5  49
TORSDOF 12
ENDMDL
MODEL 4
REMARK VINA RESULT:      -6.6      1.636      2.523
REMARK  12 active torsions:
REMARK  status: ('A' for Active; 'I' for Inactive)
REMARK    1  A    between atoms: O4_1  and  C4_2 
REMARK    2  A    between atoms: C3_6  and  O3_7 
REMARK    3  A    between atoms: C2_8  and  O2_9 
REMARK    4  A    between atoms: C1_10  and  O1_11 
REMARK    5  A    between atoms: N2_14  and  C8_15 
REMARK    6  A    between atoms: C8_15  and  C9_16 
REMARK    7  A    between atoms: C9_16  and  C10_17 
REMARK    8  A    between atoms: C10_17  and  C11_18 
REMARK    9  A    between atoms: C11_18  and  C12_19 
REMARK   10  A    between atoms: C12_19  and  C13_20 
REMARK   11  A    between atoms: C13_20  and  C14_21 
REMARK   12  A    between atoms: C14_21  and  C15_22 
ROOT
ATOM      1  C4  LGS d           1.491   6.967  12.122  0.00  0.00     0.084 C 
ATOM      2  C5  LGS d           1.453   5.896  11.025  0.00  0.00     0.066 C 
ATOM      3  C6  LGS d           1.287   6.383   9.586  0.00  0.00     0.050 C 
ATOM      4  O6  LGS d           2.248   5.608   8.826  0.00  0.00    -0.319 OA
ATOM      5  C3  LGS d           1.593   6.208  13.450  0.00  0.00     0.091 C 
ATOM      6  C2  LGS d           2.960   5.521  13.590  0.00  0.00     0.104 C 
ATOM      7  C1  LGS d           3.406   4.796  12.296  0.00  0.00     0.133 C 
ATOM      8  N1  LGS d           2.750   5.204  11.030  0.00  0.00    -0.307 N 
ATOM      9  C7  LGS d           3.136   5.038   9.715  0.00  0.00     0.241 C 
ATOM     10  N2  LGS d           4.207   4.356   9.298  0.00  0.00    -0.251 NA
ATOM     11  H2  LGS d           2.360   7.628  11.987  0.00  0.00     0.090 H 
ATOM     12  H3  LGS d           0.637   5.196  11.258  0.00  0.00     0.080 H 
ATOM     13  H4  LGS d           1.508   7.458   9.512  0.00  0.00     0.078 H 
ATOM     14  H5  LGS d           0.264   6.193   9.227  0.00  0.00     0.078 H 
ATOM     15  H6  LGS d           0.791   5.457  13.499  0.00  0.00     0.091 H 
ATOM     16  H8  LGS d           3.699   6.305  13.813  0.00  0.00     0.093 H 
ATOM     17  H10 LGS d           3.234   3.720  12.445  0.00  0.00     0.122 H 
ENDROOT
BRANCH  10  18
ATOM     18  C8  LGS d           4.553   3.957   7.928  0.00  0.00     0.019 C 
ATOM     19  H12 LGS d           3.708   4.186   7.262  0.00  0.00     0.067 H 
ATOM     20  H13 LGS d           4.753   2.875   7.908  0.00  0.00     0.067 H 
BRANCH  18  21
ATOM     21  C9  LGS d           5.790   4.700   7.437  0.00  0.00    -0.048 C 
ATOM     22  H14 LGS d           6.297   5.156   8.300  0.00  0.00     0.035 H 
ATOM     23  H15 LGS d           5.477   5.488   6.737  0.00  0.00     0.035 H 
BRANCH  21  24
ATOM     24  C10 LGS d           6.773   3.761   6.722  0.00  0.00    -0.064 C 
ATOM     25  H16 LGS d           6.463   2.722   6.906  0.00  0.00     0.033 H 
ATOM     26  H17 LGS d           7.779   3.923   7.138  0.00  0.00     0.033 H 
BRANCH  24  27
ATOM     27  C11 LGS d           6.826   3.997   5.194  0.00  0.00    -0.065 C 
ATOM     28  H18 LGS d           6.268   3.208   4.668  0.00  0.00     0.033 H 
ATOM     29  H19 LGS d           7.870   4.001   4.846  0.00  0.00     0.033 H 
BRANCH  27  30
ATOM     30  C12 LGS d           6.176   5.368   4.937  0.00  0.00    -0.065 C 
ATOM     31  H20 LGS d           6.943   6.052   4.544  0.00  0.00     0.033 H 
ATOM     32  H21 LGS d           5.792   5.758   5.892  0.00  0.00     0.033 H 
BRANCH  30  33
ATOM     33  C13 LGS d           5.009   5.306   3.928  0.00  0.00    -0.065 C 
ATOM     34  H22 LGS d           4.575   4.295   3.939  0.00  0.00     0.033 H 
ATOM     35  H23 LGS d           5.390   5.530   2.921  0.00  0.00     0.033 H 
BRANCH  33  36
ATOM     36  C14 LGS d           3.920   6.329   4.298  0.00  0.00    -0.069 C 
ATOM     37  H24 LGS d           3.496   6.754   3.376  0.00  0.00     0.032 H 
ATOM     38  H25 LGS d           4.369   7.133   4.900  0.00  0.00     0.032 H 
BRANCH  36  39
ATOM     39  C15 LGS d           2.801   5.664   5.104  0.00  0.00    -0.077 C 
ATOM     40  H26 LGS d           3.238   4.956   5.823  0.00  0.00     0.027 H 
ATOM     41  H27 LGS d           2.128   5.125   4.422  0.00  0.00     0.027 H 
ATOM     42  H28 LGS d           2.233   6.434   5.647  0.00  0.00     0.027 H 
ENDBRANCH  36  39
ENDBRANCH  33  36
ENDBRANCH  30  33
ENDBRANCH  27  30
ENDBRANCH  24  27
ENDBRANCH  21  24
ENDBRANCH  18  21
ENDBRANCH  10  18
BRANCH   7  43
ATOM     43  O1  LGS d           4.805   5.045  12.061  0.00  0.00    -0.374 OA
ATOM     44  H11 LGS d           5.239   5.217  12.888  0.00  0.00     0.212 HD
ENDBRANCH   7  43
BRANCH   1  45
ATOM     45  O4  LGS d           0.298   7.731  12.094  0.00  0.00    -0.391 OA
ATOM     46  H1  LGS d           0.176   8.157  12.935  0.00  0.00     0.210 HD
ENDBRANCH   1  45
BRANCH   6  47
ATOM     47  O2  LGS d           2.980   4.570  14.660  0.00  0.00    -0.389 OA
ATOM     48  H9  LGS d           3.150   5.021  15.480  0.00  0.00     0.210 HD
ENDBRANCH   6  47
BRANCH   5  49
ATOM     49  O3  LGS d           1.478   7.121  14.544  0.00  0.00    -0.390 OA
ATOM     50  H7  LGS d           1.892   6.745  15.312  0.00  0.00     0.210 HD
ENDBRANCH   5  49
TORSDOF 12
ENDMDL
MODEL 5
REMARK VINA RESULT:      -6.4      2.587      4.195
REMARK  12 active torsions:
REMARK  status: ('A' for Active; 'I' for Inactive)
REMARK    1  A    between atoms: O4_1  and  C4_2 
REMARK    2  A    between atoms: C3_6  and  O3_7 
REMARK    3  A    between atoms: C2_8  and  O2_9 
REMARK    4  A    between atoms: C1_10  and  O1_11 
REMARK    5  A    between atoms: N2_14  and  C8_15 
REMARK    6  A    between atoms: C8_15  and  C9_16 
REMARK    7  A    between atoms: C9_16  and  C10_17 
REMARK    8  A    between atoms: C10_17  and  C11_18 
REMARK    9  A    between atoms: C11_18  and  C12_19 
REMARK   10  A    between atoms: C12_19  and  C13_20 
REMARK   11  A    between atoms: C13_20  and  C14_21 
REMARK   12  A    between atoms: C14_21  and  C15_22 
ROOT
ATOM      1  C4  LGS d           4.919   7.056  11.071  0.00  0.00     0.084 C 
ATOM      2  C5  LGS d           4.910   7.197   9.545  0.00  0.00     0.066 C 
ATOM      3  C6  LGS d           6.116   7.882   8.904  0.00  0.00     0.050 C 
ATOM      4  O6  LGS d           6.440   7.052   7.759  0.00  0.00    -0.319 OA
ATOM      5  C3  LGS d           3.581   6.409  11.445  0.00  0.00     0.091 C 
ATOM      6  C2  LGS d           3.520   4.950  10.963  0.00  0.00     0.104 C 
ATOM      7  C1  LGS d           4.042   4.771   9.517  0.00  0.00     0.133 C 
ATOM      8  N1  LGS d           4.908   5.844   8.970  0.00  0.00    -0.307 N 
ATOM      9  C7  LGS d           5.795   5.842   7.912  0.00  0.00     0.241 C 
ATOM     10  N2  LGS d           5.996   4.827   7.067  0.00  0.00    -0.251 NA
ATOM     11  H2  LGS d           5.759   6.423  11.396  0.00  0.00     0.090 H 
ATOM     12  H3  LGS d           3.998   7.743   9.257  0.00  0.00     0.080 H 
ATOM     13  H4  LGS d           6.960   7.920   9.608  0.00  0.00     0.078 H 
ATOM     14  H5  LGS d           5.859   8.902   8.583  0.00  0.00     0.078 H 
ATOM     15  H6  LGS d           2.761   6.985  10.992  0.00  0.00     0.091 H 
ATOM     16  H8  LGS d           4.160   4.358  11.633  0.00  0.00     0.093 H 
ATOM     17  H10 LGS d           3.166   4.663   8.861  0.00  0.00     0.122 H 
ENDROOT
BRANCH  10  18
ATOM     18  C8  LGS d           6.750   4.830   5.806  0.00  0.00     0.019 C 
ATOM     19  H12 LGS d           7.825   4.766   6.031  0.00  0.00     0.067 H 
ATOM     20  H13 LGS d           6.543   5.766   5.266  0.00  0.00     0.067 H 
BRANCH  18  21
ATOM     21  C9  LGS d           6.353   3.649   4.928  0.00  0.00    -0.048 C 
ATOM     22  H14 LGS d           7.162   2.904   4.946  0.00  0.00     0.035 H 
ATOM     23  H15 LGS d           6.204   4.006   3.898  0.00  0.00     0.035 H 
BRANCH  21  24
ATOM     24  C10 LGS d           5.056   2.987   5.416  0.00  0.00    -0.064 C 
ATOM     25  H16 LGS d           4.798   3.404   6.401  0.00  0.00     0.033 H 
ATOM     26  H17 LGS d           5.229   1.904   5.510  0.00  0.00     0.033 H 
BRANCH  24  27
ATOM     27  C11 LGS d           3.865   3.215   4.456  0.00  0.00    -0.065 C 
ATOM     28  H18 LGS d           3.532   2.257   4.030  0.00  0.00     0.033 H 
ATOM     29  H19 LGS d           4.157   3.896   3.642  0.00  0.00     0.033 H 
BRANCH  27  30
ATOM     30  C12 LGS d           2.738   3.844   5.295  0.00  0.00    -0.065 C 
ATOM     31  H20 LGS d           2.741   3.377   6.291  0.00  0.00     0.033 H 
ATOM     32  H21 LGS d           1.777   3.643   4.798  0.00  0.00     0.033 H 
BRANCH  30  33
ATOM     33  C13 LGS d           2.892   5.370   5.468  0.00  0.00    -0.065 C 
ATOM     34  H22 LGS d           3.790   5.578   6.068  0.00  0.00     0.033 H 
ATOM     35  H23 LGS d           2.006   5.767   5.985  0.00  0.00     0.033 H 
BRANCH  33  36
ATOM     36  C14 LGS d           3.028   6.058   4.097  0.00  0.00    -0.069 C 
ATOM     37  H24 LGS d           2.204   6.774   3.969  0.00  0.00     0.032 H 
ATOM     38  H25 LGS d           2.978   5.296   3.305  0.00  0.00     0.032 H 
BRANCH  36  39
ATOM     39  C15 LGS d           4.361   6.803   3.993  0.00  0.00    -0.077 C 
ATOM     40  H26 LGS d           5.185   6.077   3.951  0.00  0.00     0.027 H 
ATOM     41  H27 LGS d           4.488   7.452   4.872  0.00  0.00     0.027 H 
ATOM     42  H28 LGS d           4.368   7.417   3.080  0.00  0.00     0.027 H 
ENDBRANCH  36  39
ENDBRANCH  33  36
ENDBRANCH  30  33
ENDBRANCH  27  30
ENDBRANCH  24  27
ENDBRANCH  21  24
ENDBRANCH  18  21
ENDBRANCH  10  18
BRANCH   7  43
ATOM     43  O1  LGS d           4.862   3.588   9.442  0.00  0.00    -0.374 OA
ATOM     44  H11 LGS d           4.767   3.192   8.585  0.00  0.00     0.212 HD
ENDBRANCH   7  43
BRANCH   1  45
ATOM     45  O4  LGS d           5.021   8.334  11.675  0.00  0.00    -0.391 OA
ATOM     46  H1  LGS d           5.782   8.787  11.330  0.00  0.00     0.210 HD
ENDBRANCH   1  45
BRANCH   6  47
ATOM     47  O2  LGS d           2.192   4.416  11.025  0.00  0.00    -0.389 OA
ATOM     48  H9  LGS d           2.234   3.496  11.262  0.00  0.00     0.210 HD
ENDBRANCH   6  47
BRANCH   5  49
ATOM     49  O3  LGS d           3.432   6.378  12.866  0.00  0.00    -0.390 OA
ATOM     50  H7  LGS d           3.342   5.477  13.154  0.00  0.00     0.210 HD
ENDBRANCH   5  49
TORSDOF 12
ENDMDL
MODEL 6
REMARK VINA RESULT:      -6.3      2.143      3.876
REMARK  12 active torsions:
REMARK  status: ('A' for Active; 'I' for Inactive)
REMARK    1  A    between atoms: O4_1  and  C4_2 
REMARK    2  A    between atoms: C3_6  and  O3_7 
REMARK    3  A    between atoms: C2_8  and  O2_9 
REMARK    4  A    between atoms: C1_10  and  O1_11 
REMARK    5  A    between atoms: N2_14  and  C8_15 
REMARK    6  A    between atoms: C8_15  and  C9_16 
REMARK    7  A    between atoms: C9_16  and  C10_17 
REMARK    8  A    between atoms: C10_17  and  C11_18 
REMARK    9  A    between atoms: C11_18  and  C12_19 
REMARK   10  A    between atoms: C12_19  and  C13_20 
REMARK   11  A    between atoms: C13_20  and  C14_21 
REMARK   12  A    between atoms: C14_21  and  C15_22 
ROOT
ATOM      1  C4  LGS d           3.060   5.553  12.775  0.00  0.00     0.084 C 
ATOM      2  C5  LGS d           3.979   6.497  11.992  0.00  0.00     0.066 C 
ATOM      3  C6  LGS d           5.376   5.980  11.651  0.00  0.00     0.050 C 
ATOM      4  O6  LGS d           5.577   6.357  10.265  0.00  0.00    -0.319 OA
ATOM      5  C3  LGS d           1.770   6.340  13.037  0.00  0.00     0.091 C 
ATOM      6  C2  LGS d           0.993   6.575  11.731  0.00  0.00     0.104 C 
ATOM      7  C1  LGS d           1.902   7.026  10.562  0.00  0.00     0.133 C 
ATOM      8  N1  LGS d           3.354   6.749  10.685  0.00  0.00    -0.307 N 
ATOM      9  C7  LGS d           4.349   6.687   9.730  0.00  0.00     0.241 C 
ATOM     10  N2  LGS d           4.201   6.968   8.433  0.00  0.00    -0.251 NA
ATOM     11  H2  LGS d           2.847   4.645  12.190  0.00  0.00     0.090 H 
ATOM     12  H3  LGS d           4.077   7.432  12.563  0.00  0.00     0.080 H 
ATOM     13  H4  LGS d           5.424   4.887  11.767  0.00  0.00     0.078 H 
ATOM     14  H5  LGS d           6.133   6.451  12.296  0.00  0.00     0.078 H 
ATOM     15  H6  LGS d           2.023   7.305  13.499  0.00  0.00     0.091 H 
ATOM     16  H8  LGS d           0.527   5.619  11.452  0.00  0.00     0.093 H 
ATOM     17  H10 LGS d           1.764   8.110  10.436  0.00  0.00     0.122 H 
ENDROOT
BRANCH  10  18
ATOM     18  C8  LGS d           5.246   7.136   7.414  0.00  0.00     0.019 C 
ATOM     19  H12 LGS d           6.231   7.020   7.888  0.00  0.00     0.067 H 
ATOM     20  H13 LGS d           5.165   8.143   6.978  0.00  0.00     0.067 H 
BRANCH  18  21
ATOM     21  C9  LGS d           5.101   6.100   6.306  0.00  0.00    -0.048 C 
ATOM     22  H14 LGS d           4.515   5.251   6.687  0.00  0.00     0.035 H 
ATOM     23  H15 LGS d           6.102   5.752   6.011  0.00  0.00     0.035 H 
BRANCH  21  24
ATOM     24  C10 LGS d           4.393   6.679   5.072  0.00  0.00    -0.064 C 
ATOM     25  H16 LGS d           5.075   6.610   4.211  0.00  0.00     0.033 H 
ATOM     26  H17 LGS d           4.156   7.736   5.268  0.00  0.00     0.033 H 
BRANCH  24  27
ATOM     27  C11 LGS d           3.082   5.935   4.726  0.00  0.00    -0.065 C 
ATOM     28  H18 LGS d           3.136   5.526   3.705  0.00  0.00     0.033 H 
ATOM     29  H19 LGS d           2.224   6.619   4.802  0.00  0.00     0.033 H 
BRANCH  27  30
ATOM     30  C12 LGS d           2.942   4.792   5.748  0.00  0.00    -0.065 C 
ATOM     31  H20 LGS d           2.095   5.019   6.413  0.00  0.00     0.033 H 
ATOM     32  H21 LGS d           3.868   4.736   6.340  0.00  0.00     0.033 H 
BRANCH  30  33
ATOM     33  C13 LGS d           2.695   3.418   5.090  0.00  0.00    -0.065 C 
ATOM     34  H22 LGS d           1.620   3.301   4.890  0.00  0.00     0.033 H 
ATOM     35  H23 LGS d           3.029   2.624   5.775  0.00  0.00     0.033 H 
BRANCH  33  36
ATOM     36  C14 LGS d           3.473   3.306   3.767  0.00  0.00    -0.069 C 
ATOM     37  H24 LGS d           3.383   4.252   3.214  0.00  0.00     0.032 H 
ATOM     38  H25 LGS d           3.047   2.488   3.166  0.00  0.00     0.032 H 
BRANCH  36  39
ATOM     39  C15 LGS d           4.953   3.017   4.029  0.00  0.00    -0.077 C 
ATOM     40  H26 LGS d           5.544   3.924   3.834  0.00  0.00     0.027 H 
ATOM     41  H27 LGS d           5.293   2.208   3.365  0.00  0.00     0.027 H 
ATOM     42  H28 LGS d           5.087   2.711   5.078  0.00  0.00     0.027 H 
ENDBRANCH  36  39
ENDBRANCH  33  36
ENDBRANCH  30  33
ENDBRANCH  27  30
ENDBRANCH  24  27
ENDBRANCH  21  24
ENDBRANCH  18  21
ENDBRANCH  10  18
BRANCH   7  43
ATOM     43  O1  LGS d           1.516   6.337   9.357  0.00  0.00    -0.374 OA
ATOM     44  H11 LGS d           2.182   5.698   9.131  0.00  0.00     0.212 HD
ENDBRANCH   7  43
BRANCH   1  45
ATOM     45  O4  LGS d           3.665   5.199  14.006  0.00  0.00    -0.391 OA
ATOM     46  H1  LGS d           4.301   4.508  13.858  0.00  0.00     0.210 HD
ENDBRANCH   1  45
BRANCH   6  47
ATOM     47  O2  LGS d          -0.044   7.550  11.889  0.00  0.00    -0.389 OA
ATOM     48  H9  LGS d          -0.134   7.770  12.809  0.00  0.00     0.210 HD
ENDBRANCH   6  47
BRANCH   5  49
ATOM     49  O3  LGS d           0.908   5.593  13.898  0.00  0.00    -0.390 OA
ATOM     50  H7  LGS d           0.538   6.173  14.553  0.00  0.00     0.210 HD
ENDBRANCH   5  49
TORSDOF 12
ENDMDL
MODEL 7
REMARK VINA RESULT:      -6.3      2.910      4.893
REMARK  12 active torsions:
REMARK  status: ('A' for Active; 'I' for Inactive)
REMARK    1  A    between atoms: O4_1  and  C4_2 
REMARK    2  A    between atoms: C3_6  and  O3_7 
REMARK    3  A    between atoms: C2_8  and  O2_9 
REMARK    4  A    between atoms: C1_10  and  O1_11 
REMARK    5  A    between atoms: N2_14  and  C8_15 
REMARK    6  A    between atoms: C8_15  and  C9_16 
REMARK    7  A    between atoms: C9_16  and  C10_17 
REMARK    8  A    between atoms: C10_17  and  C11_18 
REMARK    9  A    between atoms: C11_18  and  C12_19 
REMARK   10  A    between atoms: C12_19  and  C13_20 
REMARK   11  A    between atoms: C13_20  and  C14_21 
REMARK   12  A    between atoms: C14_21  and  C15_22 
ROOT
ATOM      1  C4  LGS d           3.771   5.456  10.594  0.00  0.00     0.084 C 
ATOM      2  C5  LGS d           5.035   4.977   9.870  0.00  0.00     0.066 C 
ATOM      3  C6  LGS d           4.874   3.821   8.886  0.00  0.00     0.050 C 
ATOM      4  O6  LGS d           5.648   4.220   7.726  0.00  0.00    -0.319 OA
ATOM      5  C3  LGS d           4.227   6.559  11.557  0.00  0.00     0.091 C 
ATOM      6  C2  LGS d           4.680   7.811  10.788  0.00  0.00     0.104 C 
ATOM      7  C1  LGS d           5.581   7.478   9.574  0.00  0.00     0.133 C 
ATOM      8  N1  LGS d           5.529   6.092   9.049  0.00  0.00    -0.307 N 
ATOM      9  C7  LGS d           5.902   5.572   7.826  0.00  0.00     0.241 C 
ATOM     10  N2  LGS d           6.501   6.249   6.842  0.00  0.00    -0.251 NA
ATOM     11  H2  LGS d           3.038   5.850   9.874  0.00  0.00     0.090 H 
ATOM     12  H3  LGS d           5.779   4.695  10.631  0.00  0.00     0.080 H 
ATOM     13  H4  LGS d           3.816   3.682   8.618  0.00  0.00     0.078 H 
ATOM     14  H5  LGS d           5.270   2.887   9.314  0.00  0.00     0.078 H 
ATOM     15  H6  LGS d           5.055   6.181  12.174  0.00  0.00     0.091 H 
ATOM     16  H8  LGS d           3.773   8.309  10.413  0.00  0.00     0.093 H 
ATOM     17  H10 LGS d           6.619   7.702   9.863  0.00  0.00     0.122 H 
ENDROOT
BRANCH  10  18
ATOM     18  C8  LGS d           7.116   5.719   5.618  0.00  0.00     0.019 C 
ATOM     19  H12 LGS d           7.021   4.623   5.614  0.00  0.00     0.067 H 
ATOM     20  H13 LGS d           8.181   5.995   5.602  0.00  0.00     0.067 H 
BRANCH  18  21
ATOM     21  C9  LGS d           6.437   6.283   4.375  0.00  0.00    -0.048 C 
ATOM     22  H14 LGS d           6.326   5.478   3.634  0.00  0.00     0.035 H 
ATOM     23  H15 LGS d           7.067   7.082   3.958  0.00  0.00     0.035 H 
BRANCH  21  24
ATOM     24  C10 LGS d           5.050   6.858   4.696  0.00  0.00    -0.064 C 
ATOM     25  H16 LGS d           5.158   7.930   4.923  0.00  0.00     0.033 H 
ATOM     26  H17 LGS d           4.648   6.335   5.576  0.00  0.00     0.033 H 
BRANCH  24  27
ATOM     27  C11 LGS d           4.048   6.700   3.527  0.00  0.00    -0.065 C 
ATOM     28  H18 LGS d           4.517   6.152   2.697  0.00  0.00     0.033 H 
ATOM     29  H19 LGS d           3.718   7.689   3.173  0.00  0.00     0.033 H 
BRANCH  27  30
ATOM     30  C12 LGS d           2.850   5.907   4.080  0.00  0.00    -0.065 C 
ATOM     31  H20 LGS d           2.730   4.992   3.480  0.00  0.00     0.033 H 
ATOM     32  H21 LGS d           1.947   6.528   3.988  0.00  0.00     0.033 H 
BRANCH  30  33
ATOM     33  C13 LGS d           3.022   5.505   5.560  0.00  0.00    -0.065 C 
ATOM     34  H22 LGS d           2.248   6.003   6.162  0.00  0.00     0.033 H 
ATOM     35  H23 LGS d           4.016   5.821   5.908  0.00  0.00     0.033 H 
BRANCH  33  36
ATOM     36  C14 LGS d           2.889   3.980   5.724  0.00  0.00    -0.069 C 
ATOM     37  H24 LGS d           1.984   3.757   6.309  0.00  0.00     0.032 H 
ATOM     38  H25 LGS d           3.773   3.596   6.255  0.00  0.00     0.032 H 
BRANCH  36  39
ATOM     39  C15 LGS d           2.786   3.293   4.359  0.00  0.00    -0.077 C 
ATOM     40  H26 LGS d           3.577   2.535   4.270  0.00  0.00     0.027 H 
ATOM     41  H27 LGS d           2.903   4.042   3.562  0.00  0.00     0.027 H 
ATOM     42  H28 LGS d           1.802   2.810   4.266  0.00  0.00     0.027 H 
ENDBRANCH  36  39
ENDBRANCH  33  36
ENDBRANCH  30  33
ENDBRANCH  27  30
ENDBRANCH  24  27
ENDBRANCH  21  24
ENDBRANCH  18  21
ENDBRANCH  10  18
BRANCH   7  43
ATOM     43  O1  LGS d           5.197   8.293   8.449  0.00  0.00    -0.374 OA
ATOM     44  H11 LGS d           5.422   7.844   7.643  0.00  0.00     0.212 HD
ENDBRANCH   7  43
BRANCH   1  45
ATOM     45  O4  LGS d           3.198   4.386  11.326  0.00  0.00    -0.391 OA
ATOM     46  H1  LGS d           3.494   4.425  12.227  0.00  0.00     0.210 HD
ENDBRANCH   1  45
BRANCH   6  47
ATOM     47  O2  LGS d           5.384   8.734  11.625  0.00  0.00    -0.389 OA
ATOM     48  H9  LGS d           5.870   8.253  12.286  0.00  0.00     0.210 HD
ENDBRANCH   6  47
BRANCH   5  49
ATOM     49  O3  LGS d           3.137   6.961  12.390  0.00  0.00    -0.390 OA
ATOM     50  H7  LGS d           3.450   7.089  13.278  0.00  0.00     0.210 HD
ENDBRANCH   5  49
TORSDOF 12
ENDMDL
MODEL 8
REMARK VINA RESULT:      -6.1      4.303      8.486
REMARK  12 active torsions:
REMARK  status: ('A' for Active; 'I' for Inactive)
REMARK    1  A    between atoms: O4_1  and  C4_2 
REMARK    2  A    between atoms: C3_6  and  O3_7 
REMARK    3  A    between atoms: C2_8  and  O2_9 
REMARK    4  A    between atoms: C1_10  and  O1_11 
REMARK    5  A    between atoms: N2_14  and  C8_15 
REMARK    6  A    between atoms: C8_15  and  C9_16 
REMARK    7  A    between atoms: C9_16  and  C10_17 
REMARK    8  A    between atoms: C10_17  and  C11_18 
REMARK    9  A    between atoms: C11_18  and  C12_19 
REMARK   10  A    between atoms: C12_19  and  C13_20 
REMARK   11  A    between atoms: C13_20  and  C14_21 
REMARK   12  A    between atoms: C14_21  and  C15_22 
ROOT
ATOM      1  C4  LGS d           6.663   4.942   3.446  0.00  0.00     0.084 C 
ATOM      2  C5  LGS d           5.360   4.446   4.086  0.00  0.00     0.066 C 
ATOM      3  C6  LGS d           5.321   2.987   4.537  0.00  0.00     0.050 C 
ATOM      4  O6  LGS d           4.699   3.027   5.846  0.00  0.00    -0.319 OA
ATOM      5  C3  LGS d           6.403   6.395   3.031  0.00  0.00     0.091 C 
ATOM      6  C2  LGS d           6.255   7.303   4.263  0.00  0.00     0.104 C 
ATOM      7  C1  LGS d           5.359   6.683   5.363  0.00  0.00     0.133 C 
ATOM      8  N1  LGS d           5.146   5.217   5.319  0.00  0.00    -0.307 N 
ATOM      9  C7  LGS d           4.727   4.332   6.293  0.00  0.00     0.241 C 
ATOM     10  N2  LGS d           4.326   4.662   7.524  0.00  0.00    -0.251 NA
ATOM     11  H2  LGS d           7.492   4.887   4.167  0.00  0.00     0.090 H 
ATOM     12  H3  LGS d           4.541   4.618   3.371  0.00  0.00     0.080 H 
ATOM     13  H4  LGS d           6.338   2.573   4.602  0.00  0.00     0.078 H 
ATOM     14  H5  LGS d           4.722   2.380   3.841  0.00  0.00     0.078 H 
ATOM     15  H6  LGS d           5.488   6.439   2.423  0.00  0.00     0.091 H 
ATOM     16  H8  LGS d           7.261   7.448   4.684  0.00  0.00     0.093 H 
ATOM     17  H10 LGS d           4.378   7.180   5.307  0.00  0.00     0.122 H 
ENDROOT
BRANCH  10  18
ATOM     18  C8  LGS d           3.669   3.811   8.524  0.00  0.00     0.019 C 
ATOM     19  H12 LGS d           4.353   2.998   8.809  0.00  0.00     0.067 H 
ATOM     20  H13 LGS d           2.753   3.384   8.088  0.00  0.00     0.067 H 
BRANCH  18  21
ATOM     21  C9  LGS d           3.302   4.611   9.768  0.00  0.00    -0.048 C 
ATOM     22  H14 LGS d           4.212   4.788  10.359  0.00  0.00     0.035 H 
ATOM     23  H15 LGS d           2.583   4.031  10.365  0.00  0.00     0.035 H 
BRANCH  21  24
ATOM     24  C10 LGS d           2.671   5.965   9.409  0.00  0.00    -0.064 C 
ATOM     25  H16 LGS d           2.089   5.847   8.483  0.00  0.00     0.033 H 
ATOM     26  H17 LGS d           3.478   6.695   9.244  0.00  0.00     0.033 H 
BRANCH  24  27
ATOM     27  C11 LGS d           1.735   6.506  10.515  0.00  0.00    -0.065 C 
ATOM     28  H18 LGS d           0.700   6.559  10.145  0.00  0.00     0.033 H 
ATOM     29  H19 LGS d           2.061   7.507  10.834  0.00  0.00     0.033 H 
BRANCH  27  30
ATOM     30  C12 LGS d           1.828   5.517  11.692  0.00  0.00    -0.065 C 
ATOM     31  H20 LGS d           2.890   5.324  11.904  0.00  0.00     0.033 H 
ATOM     32  H21 LGS d           1.335   4.578  11.400  0.00  0.00     0.033 H 
BRANCH  30  33
ATOM     33  C13 LGS d           1.159   6.044  12.979  0.00  0.00    -0.065 C 
ATOM     34  H22 LGS d           0.148   5.618  13.061  0.00  0.00     0.033 H 
ATOM     35  H23 LGS d           1.091   7.140  12.929  0.00  0.00     0.033 H 
BRANCH  33  36
ATOM     36  C14 LGS d           1.980   5.643  14.218  0.00  0.00    -0.069 C 
ATOM     37  H24 LGS d           1.295   5.331  15.020  0.00  0.00     0.032 H 
ATOM     38  H25 LGS d           2.570   6.508  14.555  0.00  0.00     0.032 H 
BRANCH  36  39
ATOM     39  C15 LGS d           2.928   4.486  13.890  0.00  0.00    -0.077 C 
ATOM     40  H26 LGS d           3.825   4.557  14.522  0.00  0.00     0.027 H 
ATOM     41  H27 LGS d           3.220   4.540  12.831  0.00  0.00     0.027 H 
ATOM     42  H28 LGS d           2.419   3.529  14.082  0.00  0.00     0.027 H 
ENDBRANCH  36  39
ENDBRANCH  33  36
ENDBRANCH  30  33
ENDBRANCH  27  30
ENDBRANCH  24  27
ENDBRANCH  21  24
ENDBRANCH  18  21
ENDBRANCH  10  18
BRANCH   7  43
ATOM     43  O1  LGS d           5.954   6.912   6.655  0.00  0.00    -0.374 OA
ATOM     44  H11 LGS d           5.921   6.110   7.164  0.00  0.00     0.212 HD
ENDBRANCH   7  43
BRANCH   1  45
ATOM     45  O4  LGS d           6.968   4.162   2.303  0.00  0.00    -0.391 OA
ATOM     46  H1  LGS d           7.833   4.394   1.984  0.00  0.00     0.210 HD
ENDBRANCH   1  45
BRANCH   6  47
ATOM     47  O2  LGS d           5.721   8.588   3.925  0.00  0.00    -0.389 OA
ATOM     48  H9  LGS d           5.260   8.530   3.096  0.00  0.00     0.210 HD
ENDBRANCH   6  47
BRANCH   5  49
ATOM     49  O3  LGS d           7.514   6.895   2.284  0.00  0.00    -0.390 OA
ATOM     50  H7  LGS d           8.295   6.402   2.511  0.00  0.00     0.210 HD
ENDBRANCH   5  49
TORSDOF 12
ENDMDL
MODEL 9
REMARK VINA RESULT:      -5.9      3.980      8.322
REMARK  12 active torsions:
REMARK  status: ('A' for Active; 'I' for Inactive)
REMARK    1  A    between atoms: O4_1  and  C4_2 
REMARK    2  A    between atoms: C3_6  and  O3_7 
REMARK    3  A    between atoms: C2_8  and  O2_9 
REMARK    4  A    between atoms: C1_10  and  O1_11 
REMARK    5  A    between atoms: N2_14  and  C8_15 
REMARK    6  A    between atoms: C8_15  and  C9_16 
REMARK    7  A    between atoms: C9_16  and  C10_17 
REMARK    8  A    between atoms: C10_17  and  C11_18 
REMARK    9  A    between atoms: C11_18  and  C12_19 
REMARK   10  A    between atoms: C12_19  and  C13_20 
REMARK   11  A    between atoms: C13_20  and  C14_21 
REMARK   12  A    between atoms: C14_21  and  C15_22 
ROOT
ATOM      1  C4  LGS d           7.106   4.411   4.430  0.00  0.00     0.084 C 
ATOM      2  C5  LGS d           6.103   3.862   5.451  0.00  0.00     0.066 C 
ATOM      3  C6  LGS d           6.664   2.991   6.575  0.00  0.00     0.050 C 
ATOM      4  O6  LGS d           5.999   3.470   7.772  0.00  0.00    -0.319 OA
ATOM      5  C3  LGS d           6.277   5.178   3.393  0.00  0.00     0.091 C 
ATOM      6  C2  LGS d           5.673   6.453   4.003  0.00  0.00     0.104 C 
ATOM      7  C1  LGS d           5.058   6.217   5.404  0.00  0.00     0.133 C 
ATOM      8  N1  LGS d           5.498   5.009   6.143  0.00  0.00    -0.307 N 
ATOM      9  C7  LGS d           5.436   4.696   7.487  0.00  0.00     0.241 C 
ATOM     10  N2  LGS d           4.851   5.437   8.432  0.00  0.00    -0.251 NA
ATOM     11  H2  LGS d           7.830   5.081   4.919  0.00  0.00     0.090 H 
ATOM     12  H3  LGS d           5.339   3.288   4.906  0.00  0.00     0.080 H 
ATOM     13  H4  LGS d           7.753   3.119   6.658  0.00  0.00     0.078 H 
ATOM     14  H5  LGS d           6.430   1.931   6.398  0.00  0.00     0.078 H 
ATOM     15  H6  LGS d           5.474   4.526   3.018  0.00  0.00     0.091 H 
ATOM     16  H8  LGS d           6.488   7.183   4.107  0.00  0.00     0.093 H 
ATOM     17  H10 LGS d           3.965   6.171   5.281  0.00  0.00     0.122 H 
ENDROOT
BRANCH  10  18
ATOM     18  C8  LGS d           4.558   5.069   9.824  0.00  0.00     0.019 C 
ATOM     19  H12 LGS d           4.514   5.982  10.435  0.00  0.00     0.067 H 
ATOM     20  H13 LGS d           5.358   4.414  10.199  0.00  0.00     0.067 H 
BRANCH  18  21
ATOM     21  C9  LGS d           3.225   4.335   9.927  0.00  0.00    -0.048 C 
ATOM     22  H14 LGS d           3.393   3.265   9.736  0.00  0.00     0.035 H 
ATOM     23  H15 LGS d           2.537   4.741   9.171  0.00  0.00     0.035 H 
BRANCH  21  24
ATOM     24  C10 LGS d           2.591   4.499  11.316  0.00  0.00    -0.064 C 
ATOM     25  H16 LGS d           2.536   3.510  11.796  0.00  0.00     0.033 H 
ATOM     26  H17 LGS d           1.575   4.903  11.193  0.00  0.00     0.033 H 
BRANCH  24  27
ATOM     27  C11 LGS d           3.393   5.450  12.236  0.00  0.00    -0.065 C 
ATOM     28  H18 LGS d           4.126   6.020  11.646  0.00  0.00     0.033 H 
ATOM     29  H19 LGS d           3.917   4.874  13.013  0.00  0.00     0.033 H 
BRANCH  27  30
ATOM     30  C12 LGS d           2.371   6.404  12.880  0.00  0.00    -0.065 C 
ATOM     31  H20 LGS d           2.620   7.434  12.586  0.00  0.00     0.033 H 
ATOM     32  H21 LGS d           2.441   6.306  13.973  0.00  0.00     0.033 H 
BRANCH  30  33
ATOM     33  C13 LGS d           0.917   6.110  12.453  0.00  0.00    -0.065 C 
ATOM     34  H22 LGS d           0.304   5.936  13.351  0.00  0.00     0.033 H 
ATOM     35  H23 LGS d           0.900   5.212  11.819  0.00  0.00     0.033 H 
BRANCH  33  36
ATOM     36  C14 LGS d           0.335   7.297  11.664  0.00  0.00    -0.069 C 
ATOM     37  H24 LGS d           0.748   8.234  12.066  0.00  0.00     0.032 H 
ATOM     38  H25 LGS d          -0.759   7.302  11.774  0.00  0.00     0.032 H 
BRANCH  36  39
ATOM     39  C15 LGS d           0.690   7.189  10.179  0.00  0.00    -0.077 C 
ATOM     40  H26 LGS d          -0.046   7.748   9.584  0.00  0.00     0.027 H 
ATOM     41  H27 LGS d           0.679   6.131   9.876  0.00  0.00     0.027 H 
ATOM     42  H28 LGS d           1.693   7.608  10.010  0.00  0.00     0.027 H 
ENDBRANCH  36  39
ENDBRANCH  33  36
ENDBRANCH  30  33
ENDBRANCH  27  30
ENDBRANCH  24  27
ENDBRANCH  21  24
ENDBRANCH  18  21
ENDBRANCH  10  18
BRANCH   7  43
ATOM     43  O1  LGS d           5.410   7.308   6.276  0.00  0.00    -0.374 OA
ATOM     44  H11 LGS d           5.133   8.128   5.883  0.00  0.00     0.212 HD
ENDBRANCH   7  43
BRANCH   1  45
ATOM     45  O4  LGS d           7.792   3.341   3.802  0.00  0.00    -0.391 OA
ATOM     46  H1  LGS d           8.510   3.058   4.356  0.00  0.00     0.210 HD
ENDBRANCH   1  45
BRANCH   6  47
ATOM     47  O2  LGS d           4.663   7.026   3.165  0.00  0.00    -0.389 OA
ATOM     48  H9  LGS d           5.070   7.400   2.392  0.00  0.00     0.210 HD
ENDBRANCH   6  47
BRANCH   5  49
ATOM     49  O3  LGS d           7.113   5.597   2.312  0.00  0.00    -0.390 OA
ATOM     50  H7  LGS d           6.750   6.382   1.918  0.00  0.00     0.210 HD
ENDBRANCH   5  49
TORSDOF 12
ENDMDL
MODEL 10
REMARK VINA RESULT:      -5.8      2.559      3.598
REMARK  12 active torsions:
REMARK  status: ('A' for Active; 'I' for Inactive)
REMARK    1  A    between atoms: O4_1  and  C4_2 
REMARK    2  A    between atoms: C3_6  and  O3_7 
REMARK    3  A    between atoms: C2_8  and  O2_9 
REMARK    4  A    between atoms: C1_10  and  O1_11 
REMARK    5  A    between atoms: N2_14  and  C8_15 
REMARK    6  A    between atoms: C8_15  and  C9_16 
REMARK    7  A    between atoms: C9_16  and  C10_17 
REMARK    8  A    between atoms: C10_17  and  C11_18 
REMARK    9  A    between atoms: C11_18  and  C12_19 
REMARK   10  A    between atoms: C12_19  and  C13_20 
REMARK   11  A    between atoms: C13_20  and  C14_21 
REMARK   12  A    between atoms: C14_21  and  C15_22 
ROOT
ATOM      1  C4  LGS d           4.428   6.943  11.236  0.00  0.00     0.084 C 
ATOM      2  C5  LGS d           4.188   6.867   9.723  0.00  0.00     0.066 C 
ATOM      3  C6  LGS d           5.417   6.969   8.821  0.00  0.00     0.050 C 
ATOM      4  O6  LGS d           5.226   5.930   7.827  0.00  0.00    -0.319 OA
ATOM      5  C3  LGS d           3.040   6.887  11.887  0.00  0.00     0.091 C 
ATOM      6  C2  LGS d           2.401   5.501  11.706  0.00  0.00     0.104 C 
ATOM      7  C1  LGS d           2.560   4.947  10.269  0.00  0.00     0.133 C 
ATOM      8  N1  LGS d           3.623   5.543   9.426  0.00  0.00    -0.307 N 
ATOM      9  C7  LGS d           4.249   5.072   8.288  0.00  0.00     0.241 C 
ATOM     10  N2  LGS d           3.935   3.949   7.637  0.00  0.00    -0.251 NA
ATOM     11  H2  LGS d           5.047   6.098  11.572  0.00  0.00     0.090 H 
ATOM     12  H3  LGS d           3.480   7.664   9.449  0.00  0.00     0.080 H 
ATOM     13  H4  LGS d           6.337   6.791   9.397  0.00  0.00     0.078 H 
ATOM     14  H5  LGS d           5.468   7.958   8.343  0.00  0.00     0.078 H 
ATOM     15  H6  LGS d           2.397   7.656  11.434  0.00  0.00     0.091 H 
ATOM     16  H8  LGS d           2.914   4.813  12.395  0.00  0.00     0.093 H 
ATOM     17  H10 LGS d           1.595   5.079   9.758  0.00  0.00     0.122 H 
ENDROOT
BRANCH  10  18
ATOM     18  C8  LGS d           4.403   3.503   6.317  0.00  0.00     0.019 C 
ATOM     19  H12 LGS d           4.621   2.426   6.358  0.00  0.00     0.067 H 
ATOM     20  H13 LGS d           5.319   4.054   6.055  0.00  0.00     0.067 H 
BRANCH  18  21
ATOM     21  C9  LGS d           3.346   3.757   5.248  0.00  0.00    -0.048 C 
ATOM     22  H14 LGS d           2.424   3.225   5.525  0.00  0.00     0.035 H 
ATOM     23  H15 LGS d           3.716   3.376   4.285  0.00  0.00     0.035 H 
BRANCH  21  24
ATOM     24  C10 LGS d           3.031   5.253   5.102  0.00  0.00    -0.064 C 
ATOM     25  H16 LGS d           3.828   5.830   5.596  0.00  0.00     0.033 H 
ATOM     26  H17 LGS d           2.070   5.460   5.595  0.00  0.00     0.033 H 
BRANCH  24  27
ATOM     27  C11 LGS d           2.936   5.707   3.626  0.00  0.00    -0.065 C 
ATOM     28  H18 LGS d           1.956   6.167   3.433  0.00  0.00     0.033 H 
ATOM     29  H19 LGS d           3.076   4.847   2.954  0.00  0.00     0.033 H 
BRANCH  27  30
ATOM     30  C12 LGS d           4.059   6.737   3.409  0.00  0.00    -0.065 C 
ATOM     31  H20 LGS d           3.615   7.744   3.406  0.00  0.00     0.033 H 
ATOM     32  H21 LGS d           4.532   6.541   2.436  0.00  0.00     0.033 H 
BRANCH  30  33
ATOM     33  C13 LGS d           5.148   6.685   4.503  0.00  0.00    -0.065 C 
ATOM     34  H22 LGS d           4.813   6.022   5.315  0.00  0.00     0.033 H 
ATOM     35  H23 LGS d           5.311   7.697   4.900  0.00  0.00     0.033 H 
BRANCH  33  36
ATOM     36  C14 LGS d           6.470   6.149   3.923  0.00  0.00    -0.069 C 
ATOM     37  H24 LGS d           7.057   6.991   3.527  0.00  0.00     0.032 H 
ATOM     38  H25 LGS d           6.247   5.442   3.111  0.00  0.00     0.032 H 
BRANCH  36  39
ATOM     39  C15 LGS d           7.285   5.432   5.003  0.00  0.00    -0.077 C 
ATOM     40  H26 LGS d           6.604   4.994   5.747  0.00  0.00     0.027 H 
ATOM     41  H27 LGS d           7.953   6.153   5.497  0.00  0.00     0.027 H 
ATOM     42  H28 LGS d           7.885   4.634   4.540  0.00  0.00     0.027 H 
ENDBRANCH  36  39
ENDBRANCH  33  36
ENDBRANCH  30  33
ENDBRANCH  27  30
ENDBRANCH  24  27
ENDBRANCH  21  24
ENDBRANCH  18  21
ENDBRANCH  10  18
BRANCH   7  43
ATOM     43  O1  LGS d           2.901   3.548  10.326  0.00  0.00    -0.374 OA
ATOM     44  H11 LGS d           3.341   3.298   9.522  0.00  0.00     0.212 HD
ENDBRANCH   7  43
BRANCH   1  45
ATOM     45  O4  LGS d           5.065   8.165  11.565  0.00  0.00    -0.391 OA
ATOM     46  H1  LGS d           5.326   8.150  12.478  0.00  0.00     0.210 HD
ENDBRANCH   1  45
BRANCH   6  47
ATOM     47  O2  LGS d           1.007   5.503  12.031  0.00  0.00    -0.389 OA
ATOM     48  H9  LGS d           0.835   4.839  12.690  0.00  0.00     0.210 HD
ENDBRANCH   6  47
BRANCH   5  49
ATOM     49  O3  LGS d           3.152   7.108  13.295  0.00  0.00    -0.390 OA
ATOM     50  H7  LGS d           4.070   7.137  13.537  0.00  0.00     0.210 HD
ENDBRANCH   5  49
TORSDOF 12
ENDMDL
