REMARK  7 active torsions:
REMARK  status: ('A' for Active; 'I' for Inactive)
REMARK    1  A    between atoms: P_1  and  O5'_5 
REMARK    2  A    between atoms: O5'_5  and  C5'_6 
REMARK    3  A    between atoms: C5'_6  and  C4'_7 
REMARK    4  A    between atoms: C3'_9  and  O3'_10 
REMARK    5  A    between atoms: C2'_11  and  O2'_12 
REMARK    6  A    between atoms: C1'_13  and  N1_14 
REMARK    7  A    between atoms: C6_21  and  O1_22 
ROOT
ATOM      1  C4' BMP d          39.249  37.970  37.402  0.00  0.00     0.089 C 
ATOM      2  O4' BMP d          40.187  38.659  38.238  0.00  0.00    -0.353 OA
ATOM      3  C3' BMP d          38.675  39.007  36.459  0.00  0.00     0.091 C 
ATOM      4  C2' BMP d          39.835  39.998  36.338  0.00  0.00     0.105 C 
ATOM      5  C1' BMP d          40.514  39.904  37.706  0.00  0.00     0.143 C 
ATOM      6  H3  BMP d          38.415  37.607  38.021  0.00  0.00     0.090 H 
ATOM      7  H4  BMP d          38.426  38.559  35.486  0.00  0.00     0.091 H 
ATOM      8  H6  BMP d          40.531  39.654  35.559  0.00  0.00     0.093 H 
ATOM      9  H8  BMP d          40.021  40.664  38.330  0.00  0.00     0.123 H 
ENDROOT
BRANCH   5  10
ATOM     10  N1  BMP d          41.953  40.189  37.841  0.00  0.00    -0.249 N 
ATOM     11  C6  BMP d          42.396  41.141  38.779  0.00  0.00     0.153 A 
ATOM     12  C5  BMP d          43.698  41.416  38.913  0.00  0.00     0.032 A 
ATOM     13  C4  BMP d          44.691  40.754  38.111  0.00  0.00     0.253 A 
ATOM     14  H10 BMP d          44.013  42.158  39.646  0.00  0.00     0.098 H 
ATOM     15  N3  BMP d          44.179  39.818  37.213  0.00  0.00    -0.275 N 
ATOM     16  O4  BMP d          45.896  40.916  38.140  0.00  0.00    -0.268 OA
ATOM     17  C2  BMP d          42.865  39.491  37.030  0.00  0.00     0.333 A 
ATOM     18  H9  BMP d          44.844  39.335  36.643  0.00  0.00     0.173 HD
ATOM     19  O2  BMP d          42.472  38.655  36.237  0.00  0.00    -0.246 OA
BRANCH  11  20
ATOM     20  O1  BMP d          41.515  41.700  39.477  0.00  0.00    -0.346 OA
ATOM     21  H11 BMP d          41.927  42.318  40.070  0.00  0.00     0.219 HD
ENDBRANCH  11  20
ENDBRANCH   5  10
BRANCH   4  22
ATOM     22  O2' BMP d          39.421  41.332  35.988  0.00  0.00    -0.388 OA
ATOM     23  H7  BMP d          38.802  41.650  36.634  0.00  0.00     0.210 HD
ENDBRANCH   4  22
BRANCH   1  24
ATOM     24  C5' BMP d          39.927  36.743  36.835  0.00  0.00     0.059 C 
ATOM     25  H1  BMP d          40.820  37.037  36.264  0.00  0.00     0.079 H 
ATOM     26  H2  BMP d          40.221  36.066  37.650  0.00  0.00     0.079 H 
BRANCH  24  27
ATOM     27  O5' BMP d          38.993  36.096  35.978  0.00  0.00    -0.280 OA
BRANCH  27  28
ATOM     28  P   BMP d          39.342  34.747  35.196  0.00  0.00     0.422 P 
ATOM     29  O3P BMP d          39.361  33.569  36.305  0.00  0.00    -0.617 OA
ATOM     30  O2P BMP d          38.180  34.487  34.319  0.00  0.00    -0.617 OA
ATOM     31  O1P BMP d          40.588  34.847  34.360  0.00  0.00    -0.617 OA
ENDBRANCH  27  28
ENDBRANCH  24  27
ENDBRANCH   1  24
BRANCH   3  32
ATOM     32  O3' BMP d          37.509  39.657  36.996  0.00  0.00    -0.390 OA
ATOM     33  H5  BMP d          37.250  40.367  36.420  0.00  0.00     0.210 HD
ENDBRANCH   3  32
TORSDOF 7
