MODEL 1
REMARK VINA RESULT:      -5.7      0.000      0.000
REMARK  7 active torsions:
REMARK  status: ('A' for Active; 'I' for Inactive)
REMARK    1  A    between atoms: P_1  and  O5'_5 
REMARK    2  A    between atoms: O5'_5  and  C5'_6 
REMARK    3  A    between atoms: C5'_6  and  C4'_7 
REMARK    4  A    between atoms: C3'_9  and  O3'_10 
REMARK    5  A    between atoms: C2'_11  and  O2'_12 
REMARK    6  A    between atoms: C1'_13  and  N1_14 
REMARK    7  A    between atoms: C6_21  and  O1_22 
ROOT
ATOM      1  C4' BMP d          40.321  40.685  37.558  0.00  0.00     0.089 C 
ATOM      2  O4' BMP d          39.800  39.356  37.685  0.00  0.00    -0.353 OA
ATOM      3  C3' BMP d          41.814  40.539  37.343  0.00  0.00     0.091 C 
ATOM      4  C2' BMP d          41.899  39.182  36.641  0.00  0.00     0.105 C 
ATOM      5  C1' BMP d          40.718  38.411  37.235  0.00  0.00     0.143 C 
ATOM      6  H3  BMP d          40.188  41.216  38.512  0.00  0.00     0.090 H 
ATOM      7  H4  BMP d          42.199  41.347  36.704  0.00  0.00     0.091 H 
ATOM      8  H6  BMP d          41.741  39.318  35.561  0.00  0.00     0.093 H 
ATOM      9  H8  BMP d          41.120  37.899  38.122  0.00  0.00     0.123 H 
ENDROOT
BRANCH   5  10
ATOM     10  N1  BMP d          40.061  37.346  36.458  0.00  0.00    -0.249 N 
ATOM     11  C6  BMP d          40.197  36.001  36.853  0.00  0.00     0.153 A 
ATOM     12  C5  BMP d          39.612  35.020  36.157  0.00  0.00     0.032 A 
ATOM     13  C4  BMP d          38.824  35.298  34.987  0.00  0.00     0.253 A 
ATOM     14  H10 BMP d          39.734  33.989  36.485  0.00  0.00     0.098 H 
ATOM     15  N3  BMP d          38.725  36.651  34.664  0.00  0.00    -0.275 N 
ATOM     16  O4  BMP d          38.245  34.498  34.276  0.00  0.00    -0.268 OA
ATOM     17  C2  BMP d          39.296  37.697  35.332  0.00  0.00     0.333 A 
ATOM     18  H9  BMP d          38.179  36.879  33.857  0.00  0.00     0.173 HD
ATOM     19  O2  BMP d          39.168  38.865  35.012  0.00  0.00    -0.246 OA
BRANCH  11  20
ATOM     20  O1  BMP d          40.880  35.781  37.883  0.00  0.00    -0.346 OA
ATOM     21  H11 BMP d          40.544  35.010  38.325  0.00  0.00     0.219 HD
ENDBRANCH  11  20
ENDBRANCH   5  10
BRANCH   4  22
ATOM     22  O2' BMP d          43.167  38.521  36.812  0.00  0.00    -0.388 OA
ATOM     23  H7  BMP d          43.824  38.958  36.284  0.00  0.00     0.210 HD
ENDBRANCH   4  22
BRANCH   1  24
ATOM     24  C5' BMP d          39.491  41.428  36.536  0.00  0.00     0.059 C 
ATOM     25  H1  BMP d          40.130  42.109  35.955  0.00  0.00     0.079 H 
ATOM     26  H2  BMP d          39.006  40.713  35.855  0.00  0.00     0.079 H 
BRANCH  24  27
ATOM     27  O5' BMP d          38.505  42.171  37.244  0.00  0.00    -0.280 OA
BRANCH  27  28
ATOM     28  P   BMP d          36.957  42.127  36.853  0.00  0.00     0.422 P 
ATOM     29  O3P BMP d          36.860  41.299  35.467  0.00  0.00    -0.617 OA
ATOM     30  O2P BMP d          36.310  41.297  37.891  0.00  0.00    -0.617 OA
ATOM     31  O1P BMP d          36.310  43.485  36.823  0.00  0.00    -0.617 OA
ENDBRANCH  27  28
ENDBRANCH  24  27
ENDBRANCH   1  24
BRANCH   3  32
ATOM     32  O3' BMP d          42.551  40.516  38.578  0.00  0.00    -0.390 OA
ATOM     33  H5  BMP d          43.355  40.026  38.457  0.00  0.00     0.210 HD
ENDBRANCH   3  32
TORSDOF 7
ENDMDL
MODEL 2
REMARK VINA RESULT:      -5.7      0.580      1.935
REMARK  7 active torsions:
REMARK  status: ('A' for Active; 'I' for Inactive)
REMARK    1  A    between atoms: P_1  and  O5'_5 
REMARK    2  A    between atoms: O5'_5  and  C5'_6 
REMARK    3  A    between atoms: C5'_6  and  C4'_7 
REMARK    4  A    between atoms: C3'_9  and  O3'_10 
REMARK    5  A    between atoms: C2'_11  and  O2'_12 
REMARK    6  A    between atoms: C1'_13  and  N1_14 
REMARK    7  A    between atoms: C6_21  and  O1_22 
ROOT
ATOM      1  C4' BMP d          40.293  40.804  37.475  0.00  0.00     0.089 C 
ATOM      2  O4' BMP d          39.782  39.472  37.608  0.00  0.00    -0.353 OA
ATOM      3  C3' BMP d          41.783  40.669  37.243  0.00  0.00     0.091 C 
ATOM      4  C2' BMP d          41.870  39.312  36.541  0.00  0.00     0.105 C 
ATOM      5  C1' BMP d          40.701  38.533  37.148  0.00  0.00     0.143 C 
ATOM      6  H3  BMP d          40.167  41.335  38.431  0.00  0.00     0.090 H 
ATOM      7  H4  BMP d          42.157  41.479  36.600  0.00  0.00     0.091 H 
ATOM      8  H6  BMP d          41.700  39.446  35.462  0.00  0.00     0.093 H 
ATOM      9  H8  BMP d          41.116  38.025  38.031  0.00  0.00     0.123 H 
ENDROOT
BRANCH   5  10
ATOM     10  N1  BMP d          40.043  37.463  36.379  0.00  0.00    -0.249 N 
ATOM     11  C6  BMP d          39.299  37.782  35.227  0.00  0.00     0.153 A 
ATOM     12  C5  BMP d          38.691  36.825  34.518  0.00  0.00     0.032 A 
ATOM     13  C4  BMP d          38.773  35.441  34.900  0.00  0.00     0.253 A 
ATOM     14  H10 BMP d          38.121  37.099  33.631  0.00  0.00     0.098 H 
ATOM     15  N3  BMP d          39.534  35.201  36.044  0.00  0.00    -0.275 N 
ATOM     16  O4  BMP d          38.268  34.486  34.341  0.00  0.00    -0.268 OA
ATOM     17  C2  BMP d          40.180  36.132  36.809  0.00  0.00     0.333 A 
ATOM     18  H9  BMP d          39.616  34.248  36.335  0.00  0.00     0.173 HD
ATOM     19  O2  BMP d          40.842  35.866  37.795  0.00  0.00    -0.246 OA
BRANCH  11  20
ATOM     20  O1  BMP d          39.248  38.994  34.903  0.00  0.00    -0.346 OA
ATOM     21  H11 BMP d          38.573  39.428  35.412  0.00  0.00     0.219 HD
ENDBRANCH  11  20
ENDBRANCH   5  10
BRANCH   4  22
ATOM     22  O2' BMP d          43.144  38.660  36.699  0.00  0.00    -0.388 OA
ATOM     23  H7  BMP d          43.399  38.262  35.875  0.00  0.00     0.210 HD
ENDBRANCH   4  22
BRANCH   1  24
ATOM     24  C5' BMP d          39.446  41.541  36.461  0.00  0.00     0.059 C 
ATOM     25  H1  BMP d          40.075  42.222  35.870  0.00  0.00     0.079 H 
ATOM     26  H2  BMP d          38.954  40.823  35.790  0.00  0.00     0.079 H 
BRANCH  24  27
ATOM     27  O5' BMP d          38.467  42.283  37.180  0.00  0.00    -0.280 OA
BRANCH  27  28
ATOM     28  P   BMP d          36.903  42.145  36.887  0.00  0.00     0.422 P 
ATOM     29  O3P BMP d          36.311  41.160  38.026  0.00  0.00    -0.617 OA
ATOM     30  O2P BMP d          36.333  43.485  37.144  0.00  0.00    -0.617 OA
ATOM     31  O1P BMP d          36.595  41.732  35.474  0.00  0.00    -0.617 OA
ENDBRANCH  27  28
ENDBRANCH  24  27
ENDBRANCH   1  24
BRANCH   3  32
ATOM     32  O3' BMP d          42.534  40.651  38.470  0.00  0.00    -0.390 OA
ATOM     33  H5  BMP d          42.981  39.817  38.555  0.00  0.00     0.210 HD
ENDBRANCH   3  32
TORSDOF 7
ENDMDL
MODEL 3
REMARK VINA RESULT:      -5.5      2.144      4.235
REMARK  7 active torsions:
REMARK  status: ('A' for Active; 'I' for Inactive)
REMARK    1  A    between atoms: P_1  and  O5'_5 
REMARK    2  A    between atoms: O5'_5  and  C5'_6 
REMARK    3  A    between atoms: C5'_6  and  C4'_7 
REMARK    4  A    between atoms: C3'_9  and  O3'_10 
REMARK    5  A    between atoms: C2'_11  and  O2'_12 
REMARK    6  A    between atoms: C1'_13  and  N1_14 
REMARK    7  A    between atoms: C6_21  and  O1_22 
ROOT
ATOM      1  C4' BMP d          40.715  40.879  37.373  0.00  0.00     0.089 C 
ATOM      2  O4' BMP d          40.611  40.074  36.193  0.00  0.00    -0.353 OA
ATOM      3  C3' BMP d          39.309  41.333  37.707  0.00  0.00     0.091 C 
ATOM      4  C2' BMP d          38.468  40.180  37.153  0.00  0.00     0.105 C 
ATOM      5  C1' BMP d          39.292  39.694  35.959  0.00  0.00     0.143 C 
ATOM      6  H3  BMP d          41.294  41.785  37.140  0.00  0.00     0.090 H 
ATOM      7  H4  BMP d          39.177  41.440  38.793  0.00  0.00     0.091 H 
ATOM      8  H6  BMP d          38.403  39.380  37.904  0.00  0.00     0.093 H 
ATOM      9  H8  BMP d          38.933  40.278  35.098  0.00  0.00     0.123 H 
ENDROOT
BRANCH   5  10
ATOM     10  N1  BMP d          39.203  38.291  35.519  0.00  0.00    -0.249 N 
ATOM     11  C6  BMP d          40.075  37.327  36.061  0.00  0.00     0.153 A 
ATOM     12  C5  BMP d          40.012  36.050  35.671  0.00  0.00     0.032 A 
ATOM     13  C4  BMP d          39.057  35.611  34.690  0.00  0.00     0.253 A 
ATOM     14  H10 BMP d          40.700  35.325  36.106  0.00  0.00     0.098 H 
ATOM     15  N3  BMP d          38.221  36.617  34.206  0.00  0.00    -0.275 N 
ATOM     16  O4  BMP d          38.902  34.485  34.257  0.00  0.00    -0.268 OA
ATOM     17  C2  BMP d          38.233  37.936  34.564  0.00  0.00     0.333 A 
ATOM     18  H9  BMP d          37.541  36.345  33.526  0.00  0.00     0.173 HD
ATOM     19  O2  BMP d          37.471  38.773  34.118  0.00  0.00    -0.246 OA
BRANCH  11  20
ATOM     20  O1  BMP d          40.894  37.728  36.924  0.00  0.00    -0.346 OA
ATOM     21  H11 BMP d          41.569  38.247  36.501  0.00  0.00     0.219 HD
ENDBRANCH  11  20
ENDBRANCH   5  10
BRANCH   4  22
ATOM     22  O2' BMP d          37.122  40.560  36.810  0.00  0.00    -0.388 OA
ATOM     23  H7  BMP d          36.885  40.169  35.978  0.00  0.00     0.210 HD
ENDBRANCH   4  22
BRANCH   1  24
ATOM     24  C5' BMP d          41.514  40.114  38.404  0.00  0.00     0.059 C 
ATOM     25  H1  BMP d          40.865  39.825  39.244  0.00  0.00     0.079 H 
ATOM     26  H2  BMP d          41.947  39.212  37.949  0.00  0.00     0.079 H 
BRANCH  24  27
ATOM     27  O5' BMP d          42.551  40.973  38.865  0.00  0.00    -0.280 OA
BRANCH  27  28
ATOM     28  P   BMP d          43.951  41.107  38.105  0.00  0.00     0.422 P 
ATOM     29  O3P BMP d          45.084  41.220  39.254  0.00  0.00    -0.617 OA
ATOM     30  O2P BMP d          44.159  39.809  37.428  0.00  0.00    -0.617 OA
ATOM     31  O1P BMP d          43.973  42.212  37.086  0.00  0.00    -0.617 OA
ENDBRANCH  27  28
ENDBRANCH  24  27
ENDBRANCH   1  24
BRANCH   3  32
ATOM     32  O3' BMP d          38.959  42.570  37.060  0.00  0.00    -0.390 OA
ATOM     33  H5  BMP d          39.744  43.089  36.927  0.00  0.00     0.210 HD
ENDBRANCH   3  32
TORSDOF 7
ENDMDL
