MODEL 1
REMARK VINA RESULT:      -5.8      0.000      0.000
REMARK  19 active torsions:
REMARK  status: ('A' for Active; 'I' for Inactive)
REMARK    1  A    between atoms: C2_4  and  C1_2 
REMARK    2  A    between atoms: O2_17  and  C2_4 
REMARK    3  A    between atoms: C6_6  and  C7_7 
REMARK    4  A    between atoms: C7_7  and  C8_8 
REMARK    5  A    between atoms: C7_7  and  O7_10 
REMARK    6  A    between atoms: C8_8  and  O8_9 
REMARK    7  A    between atoms: C5_11  and  O5_12 
REMARK    8  A    between atoms: C4_13  and  O4_14 
REMARK    9  A    between atoms: C3_15  and  O3_16 
REMARK   10  A    between atoms: C4_23  and  O2_17 
REMARK   11  A    between atoms: C2_21  and  C1_18 
REMARK   12  A    between atoms: C2_21  and  O2_32 
REMARK   13  A    between atoms: C5_24  and  O5_25 
REMARK   14  A    between atoms: C6_26  and  C7_28 
REMARK   15  A    between atoms: C7_28  and  O7_29 
REMARK   16  A    between atoms: C7_28  and  C8_30 
REMARK   17  A    between atoms: C8_30  and  O8_31 
REMARK   18  A    between atoms: O2_32  and  C9_33 
REMARK   19  A    between atoms: C9_33  and  C10_34 
ROOT
ATOM      1  C2  KO1 d          -8.548   1.280  71.028  0.00  0.00     0.259 C 
ATOM      2  C3  KO1 d          -8.380   1.876  69.595  0.00  0.00     0.024 C 
ATOM      3  C4  KO1 d          -7.958   0.869  68.495  0.00  0.00     0.075 C 
ATOM      4  C5  KO1 d          -6.764  -0.053  68.853  0.00  0.00     0.088 C 
ATOM      5  C6  KO1 d          -7.082  -0.725  70.224  0.00  0.00     0.096 C 
ATOM      6  O6  KO1 d          -7.516   0.273  71.238  0.00  0.00    -0.336 OA
ATOM      7  H13 KO1 d          -7.614   2.664  69.644  0.00  0.00     0.045 H 
ATOM      8  H14 KO1 d          -9.343   2.318  69.297  0.00  0.00     0.045 H 
ATOM      9  H15 KO1 d          -8.836   0.238  68.290  0.00  0.00     0.087 H 
ATOM     10  H16 KO1 d          -6.692  -0.845  68.093  0.00  0.00     0.091 H 
ATOM     11  H18 KO1 d          -7.944  -1.387  70.054  0.00  0.00     0.091 H 
ENDROOT
BRANCH   3  12
ATOM     12  O2  KO1 d          -7.537   1.513  67.251  0.00  0.00    -0.336 OA
BRANCH  12  13
ATOM     13  C2  KO1 d          -8.520   1.777  66.190  0.00  0.00     0.286 C 
ATOM     14  O6  KO1 d          -9.126   3.189  66.441  0.00  0.00    -0.334 OA
ATOM     15  C6  KO1 d          -8.011   4.197  66.592  0.00  0.00     0.096 C 
ATOM     16  C5  KO1 d          -7.266   4.315  65.261  0.00  0.00     0.090 C 
ATOM     17  H1  KO1 d          -7.293   3.874  67.361  0.00  0.00     0.091 H 
ATOM     18  C4  KO1 d          -6.644   2.936  64.912  0.00  0.00     0.093 C 
ATOM     19  H7  KO1 d          -6.473   5.073  65.343  0.00  0.00     0.091 H 
ATOM     20  C3  KO1 d          -7.675   1.767  64.874  0.00  0.00     0.127 C 
ATOM     21  H9  KO1 d          -5.895   2.698  65.682  0.00  0.00     0.091 H 
ATOM     22  H11 KO1 d          -7.134   0.817  64.756  0.00  0.00     0.096 H 
BRANCH  13  23
ATOM     23  C1  KO1 d          -9.701   0.791  66.042  0.00  0.00     0.241 C 
ATOM     24  OA1 KO1 d         -10.878   1.188  66.258  0.00  0.00    -0.644 OA
ATOM     25  O1B KO1 d          -9.464  -0.369  65.701  0.00  0.00    -0.644 OA
ENDBRANCH  13  23
BRANCH  15  26
ATOM     26  C7  KO1 d          -8.749   5.479  67.080  0.00  0.00     0.083 C 
ATOM     27  H2  KO1 d          -8.484   6.316  66.419  0.00  0.00     0.090 H 
BRANCH  26  28
ATOM     28  C8  KO1 d         -10.286   5.350  67.034  0.00  0.00     0.043 C 
ATOM     29  H3  KO1 d         -10.775   6.070  67.707  0.00  0.00     0.078 H 
ATOM     30  H4  KO1 d         -10.615   4.331  67.285  0.00  0.00     0.078 H 
BRANCH  28  31
ATOM     31  O8  KO1 d         -10.534   5.664  65.645  0.00  0.00    -0.398 OA
ATOM     32  H5  KO1 d         -10.852   4.888  65.198  0.00  0.00     0.209 HD
ENDBRANCH  28  31
ENDBRANCH  26  28
BRANCH  26  33
ATOM     33  O7  KO1 d          -8.192   5.728  68.362  0.00  0.00    -0.391 OA
ATOM     34  H6  KO1 d          -8.713   6.386  68.810  0.00  0.00     0.210 HD
ENDBRANCH  26  33
ENDBRANCH  15  26
BRANCH  16  35
ATOM     35  O5  KO1 d          -8.192   4.691  64.225  0.00  0.00    -0.390 OA
ATOM     36  H8  KO1 d          -8.611   3.912  63.878  0.00  0.00     0.210 HD
ENDBRANCH  16  35
BRANCH  18  37
ATOM     37  O4  KO1 d          -5.999   3.037  63.665  0.00  0.00    -0.390 OA
ATOM     38  H10 KO1 d          -5.867   2.167  63.306  0.00  0.00     0.210 HD
ENDBRANCH  18  37
BRANCH  20  39
ATOM     39  O3  KO1 d          -8.664   1.894  63.872  0.00  0.00    -0.387 OA
ATOM     40  H12 KO1 d          -9.505   1.625  64.223  0.00  0.00     0.210 HD
ENDBRANCH  20  39
ENDBRANCH  12  13
ENDBRANCH   3  12
BRANCH   4  41
ATOM     41  O5  KO1 d          -5.501   0.680  68.840  0.00  0.00    -0.390 OA
ATOM     42  H17 KO1 d          -5.132   0.689  69.715  0.00  0.00     0.210 HD
ENDBRANCH   4  41
BRANCH   1  43
ATOM     43  C1  KO1 d          -8.354   2.484  72.004  0.00  0.00     0.239 C 
ATOM     44  O1A KO1 d          -8.629   2.244  73.212  0.00  0.00    -0.644 OA
ATOM     45  O1B KO1 d          -7.963   3.614  71.557  0.00  0.00    -0.644 OA
ENDBRANCH   1  43
BRANCH   1  46
ATOM     46  O2  KO1 d          -9.797   0.585  71.252  0.00  0.00    -0.343 OA
BRANCH  46  47
ATOM     47  C9  KO1 d         -11.014   0.089  70.796  0.00  0.00     0.038 C 
ATOM     48  H24 KO1 d         -11.364   0.821  70.052  0.00  0.00     0.080 H 
ATOM     49  H25 KO1 d         -11.680   0.110  71.672  0.00  0.00     0.080 H 
BRANCH  47  50
ATOM     50  C10 KO1 d         -11.225  -1.175  70.200  0.00  0.00    -0.089 C 
ATOM     51  C11 KO1 d         -10.946  -1.456  68.853  0.00  0.00    -0.123 C 
ATOM     52  H27 KO1 d         -11.132  -2.452  68.454  0.00  0.00     0.066 H 
ATOM     53  H28 KO1 d         -10.544  -0.677  68.206  0.00  0.00     0.066 H 
ATOM     54  H26 KO1 d         -11.626  -1.976  70.820  0.00  0.00     0.078 H 
ENDBRANCH  47  50
ENDBRANCH  46  47
ENDBRANCH   1  46
BRANCH   5  55
ATOM     55  C7  KO1 d          -5.928  -1.637  70.722  0.00  0.00     0.083 C 
ATOM     56  H19 KO1 d          -5.141  -0.972  71.107  0.00  0.00     0.090 H 
BRANCH  55  57
ATOM     57  O7  KO1 d          -5.362  -2.400  69.632  0.00  0.00    -0.391 OA
ATOM     58  H20 KO1 d          -6.063  -2.752  69.096  0.00  0.00     0.210 HD
ENDBRANCH  55  57
BRANCH  55  59
ATOM     59  C8  KO1 d          -6.328  -2.593  71.885  0.00  0.00     0.043 C 
ATOM     60  H21 KO1 d          -5.783  -2.294  72.792  0.00  0.00     0.078 H 
ATOM     61  H22 KO1 d          -6.048  -3.621  71.612  0.00  0.00     0.078 H 
BRANCH  59  62
ATOM     62  O8  KO1 d          -7.752  -2.555  72.161  0.00  0.00    -0.398 OA
ATOM     63  H23 KO1 d          -7.891  -2.562  73.100  0.00  0.00     0.209 HD
ENDBRANCH  59  62
ENDBRANCH  55  59
ENDBRANCH   5  55
TORSDOF 19
ENDMDL
MODEL 2
REMARK VINA RESULT:      -4.7      1.725      4.988
REMARK  19 active torsions:
REMARK  status: ('A' for Active; 'I' for Inactive)
REMARK    1  A    between atoms: C2_4  and  C1_2 
REMARK    2  A    between atoms: O2_17  and  C2_4 
REMARK    3  A    between atoms: C6_6  and  C7_7 
REMARK    4  A    between atoms: C7_7  and  C8_8 
REMARK    5  A    between atoms: C7_7  and  O7_10 
REMARK    6  A    between atoms: C8_8  and  O8_9 
REMARK    7  A    between atoms: C5_11  and  O5_12 
REMARK    8  A    between atoms: C4_13  and  O4_14 
REMARK    9  A    between atoms: C3_15  and  O3_16 
REMARK   10  A    between atoms: C4_23  and  O2_17 
REMARK   11  A    between atoms: C2_21  and  C1_18 
REMARK   12  A    between atoms: C2_21  and  O2_32 
REMARK   13  A    between atoms: C5_24  and  O5_25 
REMARK   14  A    between atoms: C6_26  and  C7_28 
REMARK   15  A    between atoms: C7_28  and  O7_29 
REMARK   16  A    between atoms: C7_28  and  C8_30 
REMARK   17  A    between atoms: C8_30  and  O8_31 
REMARK   18  A    between atoms: O2_32  and  C9_33 
REMARK   19  A    between atoms: C9_33  and  C10_34 
ROOT
ATOM      1  C2  KO1 d          -8.625   0.456  71.044  0.00  0.00     0.259 C 
ATOM      2  C3  KO1 d          -8.798   1.119  69.642  0.00  0.00     0.024 C 
ATOM      3  C4  KO1 d          -8.383   2.609  69.547  0.00  0.00     0.075 C 
ATOM      4  C5  KO1 d          -8.936   3.531  70.665  0.00  0.00     0.088 C 
ATOM      5  C6  KO1 d          -8.586   2.871  72.035  0.00  0.00     0.096 C 
ATOM      6  O6  KO1 d          -8.970   1.435  72.068  0.00  0.00    -0.336 OA
ATOM      7  H13 KO1 d          -9.860   1.045  69.362  0.00  0.00     0.045 H 
ATOM      8  H14 KO1 d          -8.190   0.552  68.922  0.00  0.00     0.045 H 
ATOM      9  H15 KO1 d          -7.284   2.634  69.587  0.00  0.00     0.087 H 
ATOM     10  H16 KO1 d          -8.418   4.498  70.610  0.00  0.00     0.091 H 
ATOM     11  H18 KO1 d          -7.490   2.900  72.123  0.00  0.00     0.091 H 
ENDROOT
BRANCH   3  12
ATOM     12  O2  KO1 d          -8.828   3.256  68.313  0.00  0.00    -0.336 OA
BRANCH  12  13
ATOM     13  C2  KO1 d          -7.877   4.037  67.508  0.00  0.00     0.286 C 
ATOM     14  O6  KO1 d          -7.376   3.129  66.348  0.00  0.00    -0.334 OA
ATOM     15  C6  KO1 d          -8.562   2.547  65.614  0.00  0.00     0.096 C 
ATOM     16  C5  KO1 d          -9.325   3.682  64.929  0.00  0.00     0.090 C 
ATOM     17  H1  KO1 d          -9.246   2.044  66.313  0.00  0.00     0.091 H 
ATOM     18  C4  KO1 d          -9.846   4.661  66.015  0.00  0.00     0.093 C 
ATOM     19  H7  KO1 d         -10.172   3.271  64.359  0.00  0.00     0.091 H 
ATOM     20  C3  KO1 d          -8.731   5.222  66.950  0.00  0.00     0.127 C 
ATOM     21  H9  KO1 d         -10.568   4.118  66.643  0.00  0.00     0.091 H 
ATOM     22  H11 KO1 d          -9.202   5.793  67.764  0.00  0.00     0.096 H 
BRANCH  13  23
ATOM     23  C1  KO1 d          -6.628   4.603  68.220  0.00  0.00     0.241 C 
ATOM     24  OA1 KO1 d          -5.508   4.048  68.054  0.00  0.00    -0.644 OA
ATOM     25  O1B KO1 d          -6.753   5.602  68.930  0.00  0.00    -0.644 OA
ENDBRANCH  13  23
BRANCH  15  26
ATOM     26  C7  KO1 d          -7.916   1.488  64.671  0.00  0.00     0.083 C 
ATOM     27  H2  KO1 d          -8.177   1.733  63.631  0.00  0.00     0.090 H 
BRANCH  26  28
ATOM     28  C8  KO1 d          -6.376   1.466  64.746  0.00  0.00     0.043 C 
ATOM     29  H3  KO1 d          -5.962   0.532  64.339  0.00  0.00     0.078 H 
ATOM     30  H4  KO1 d          -6.018   1.607  65.777  0.00  0.00     0.078 H 
BRANCH  28  31
ATOM     31  O8  KO1 d          -6.055   2.601  63.911  0.00  0.00    -0.398 OA
ATOM     32  H5  KO1 d          -5.862   2.300  63.031  0.00  0.00     0.209 HD
ENDBRANCH  28  31
ENDBRANCH  26  28
BRANCH  26  33
ATOM     33  O7  KO1 d          -8.566   0.276  65.022  0.00  0.00    -0.391 OA
ATOM     34  H6  KO1 d          -8.811   0.303  65.940  0.00  0.00     0.210 HD
ENDBRANCH  26  33
ENDBRANCH  15  26
BRANCH  16  35
ATOM     35  O5  KO1 d          -8.439   4.388  64.041  0.00  0.00    -0.390 OA
ATOM     36  H8  KO1 d          -8.748   5.280  63.932  0.00  0.00     0.210 HD
ENDBRANCH  16  35
BRANCH  18  37
ATOM     37  O4  KO1 d         -10.509   5.728  65.378  0.00  0.00    -0.390 OA
ATOM     38  H10 KO1 d          -9.963   6.065  64.677  0.00  0.00     0.210 HD
ENDBRANCH  18  37
BRANCH  20  39
ATOM     39  O3  KO1 d          -7.764   6.016  66.293  0.00  0.00    -0.387 OA
ATOM     40  H12 KO1 d          -7.690   6.854  66.736  0.00  0.00     0.210 HD
ENDBRANCH  20  39
ENDBRANCH  12  13
ENDBRANCH   3  12
BRANCH   4  41
ATOM     41  O5  KO1 d         -10.362   3.789  70.488  0.00  0.00    -0.390 OA
ATOM     42  H17 KO1 d         -10.680   4.315  71.212  0.00  0.00     0.210 HD
ENDBRANCH   4  41
BRANCH   1  43
ATOM     43  C1  KO1 d          -9.626  -0.743  71.065  0.00  0.00     0.239 C 
ATOM     44  O1A KO1 d          -9.569  -1.471  72.093  0.00  0.00    -0.644 OA
ATOM     45  O1B KO1 d         -10.411  -0.938  70.078  0.00  0.00    -0.644 OA
ENDBRANCH   1  43
BRANCH   1  46
ATOM     46  O2  KO1 d          -7.273   0.050  71.359  0.00  0.00    -0.343 OA
BRANCH  46  47
ATOM     47  C9  KO1 d          -5.933  -0.097  71.013  0.00  0.00     0.038 C 
ATOM     48  H24 KO1 d          -5.373   0.083  71.943  0.00  0.00     0.080 H 
ATOM     49  H25 KO1 d          -5.728   0.714  70.299  0.00  0.00     0.080 H 
BRANCH  47  50
ATOM     50  C10 KO1 d          -5.345  -1.250  70.444  0.00  0.00    -0.089 C 
ATOM     51  C11 KO1 d          -5.678  -1.746  69.173  0.00  0.00    -0.123 C 
ATOM     52  H27 KO1 d          -5.188  -2.640  68.792  0.00  0.00     0.066 H 
ATOM     53  H28 KO1 d          -6.426  -1.236  68.568  0.00  0.00     0.066 H 
ATOM     54  H26 KO1 d          -4.593  -1.784  71.024  0.00  0.00     0.078 H 
ENDBRANCH  47  50
ENDBRANCH  46  47
ENDBRANCH   1  46
BRANCH   5  55
ATOM     55  C7  KO1 d          -9.138   3.678  73.242  0.00  0.00     0.083 C 
ATOM     56  H19 KO1 d          -8.663   3.265  74.144  0.00  0.00     0.090 H 
BRANCH  55  57
ATOM     57  O7  KO1 d         -10.566   3.498  73.377  0.00  0.00    -0.391 OA
ATOM     58  H20 KO1 d         -10.819   3.651  74.280  0.00  0.00     0.210 HD
ENDBRANCH  55  57
BRANCH  55  59
ATOM     59  C8  KO1 d          -8.798   5.198  73.201  0.00  0.00     0.043 C 
ATOM     60  H21 KO1 d          -7.957   5.354  72.510  0.00  0.00     0.078 H 
ATOM     61  H22 KO1 d          -8.506   5.523  74.211  0.00  0.00     0.078 H 
BRANCH  59  62
ATOM     62  O8  KO1 d          -9.923   6.000  72.759  0.00  0.00    -0.398 OA
ATOM     63  H23 KO1 d          -9.607   6.838  72.442  0.00  0.00     0.209 HD
ENDBRANCH  59  62
ENDBRANCH  55  59
ENDBRANCH   5  55
TORSDOF 19
ENDMDL
MODEL 3
REMARK VINA RESULT:      -4.6      1.686      2.451
REMARK  19 active torsions:
REMARK  status: ('A' for Active; 'I' for Inactive)
REMARK    1  A    between atoms: C2_4  and  C1_2 
REMARK    2  A    between atoms: O2_17  and  C2_4 
REMARK    3  A    between atoms: C6_6  and  C7_7 
REMARK    4  A    between atoms: C7_7  and  C8_8 
REMARK    5  A    between atoms: C7_7  and  O7_10 
REMARK    6  A    between atoms: C8_8  and  O8_9 
REMARK    7  A    between atoms: C5_11  and  O5_12 
REMARK    8  A    between atoms: C4_13  and  O4_14 
REMARK    9  A    between atoms: C3_15  and  O3_16 
REMARK   10  A    between atoms: C4_23  and  O2_17 
REMARK   11  A    between atoms: C2_21  and  C1_18 
REMARK   12  A    between atoms: C2_21  and  O2_32 
REMARK   13  A    between atoms: C5_24  and  O5_25 
REMARK   14  A    between atoms: C6_26  and  C7_28 
REMARK   15  A    between atoms: C7_28  and  O7_29 
REMARK   16  A    between atoms: C7_28  and  C8_30 
REMARK   17  A    between atoms: C8_30  and  O8_31 
REMARK   18  A    between atoms: O2_32  and  C9_33 
REMARK   19  A    between atoms: C9_33  and  C10_34 
ROOT
ATOM      1  C2  KO1 d          -8.336   1.463  71.365  0.00  0.00     0.259 C 
ATOM      2  C3  KO1 d          -8.320   1.585  69.809  0.00  0.00     0.024 C 
ATOM      3  C4  KO1 d          -8.290   0.244  69.031  0.00  0.00     0.075 C 
ATOM      4  C5  KO1 d          -7.238  -0.788  69.516  0.00  0.00     0.088 C 
ATOM      5  C6  KO1 d          -7.425  -0.963  71.054  0.00  0.00     0.096 C 
ATOM      6  O6  KO1 d          -7.483   0.347  71.755  0.00  0.00    -0.336 OA
ATOM      7  H13 KO1 d          -7.427   2.161  69.524  0.00  0.00     0.045 H 
ATOM      8  H14 KO1 d          -9.223   2.133  69.503  0.00  0.00     0.045 H 
ATOM      9  H15 KO1 d          -9.289  -0.203  69.134  0.00  0.00     0.087 H 
ATOM     10  H16 KO1 d          -7.447  -1.753  69.034  0.00  0.00     0.091 H 
ATOM     11  H18 KO1 d          -8.409  -1.433  71.197  0.00  0.00     0.091 H 
ENDROOT
BRANCH   3  12
ATOM     12  O2  KO1 d          -7.986   0.407  67.610  0.00  0.00    -0.336 OA
BRANCH  12  13
ATOM     13  C2  KO1 d          -8.815   1.291  66.777  0.00  0.00     0.286 C 
ATOM     14  O6  KO1 d          -8.236   2.731  66.887  0.00  0.00    -0.334 OA
ATOM     15  C6  KO1 d          -6.758   2.706  66.578  0.00  0.00     0.096 C 
ATOM     16  C5  KO1 d          -6.565   2.311  65.112  0.00  0.00     0.090 C 
ATOM     17  H1  KO1 d          -6.239   1.966  67.206  0.00  0.00     0.091 H 
ATOM     18  C4  KO1 d          -7.140   0.885  64.899  0.00  0.00     0.093 C 
ATOM     19  H7  KO1 d          -5.494   2.324  64.860  0.00  0.00     0.091 H 
ATOM     20  C3  KO1 d          -8.632   0.733  65.327  0.00  0.00     0.127 C 
ATOM     21  H9  KO1 d          -6.544   0.186  65.504  0.00  0.00     0.091 H 
ATOM     22  H11 KO1 d          -8.913  -0.329  65.270  0.00  0.00     0.096 H 
BRANCH  13  23
ATOM     23  C1  KO1 d         -10.324   1.376  67.101  0.00  0.00     0.241 C 
ATOM     24  OA1 KO1 d         -11.029   0.331  67.079  0.00  0.00    -0.644 OA
ATOM     25  O1B KO1 d         -10.806   2.473  67.389  0.00  0.00    -0.644 OA
ENDBRANCH  13  23
BRANCH  15  26
ATOM     26  C7  KO1 d          -6.285   4.138  66.970  0.00  0.00     0.083 C 
ATOM     27  H2  KO1 d          -6.250   4.761  66.065  0.00  0.00     0.090 H 
BRANCH  26  28
ATOM     28  C8  KO1 d          -7.238   4.844  67.956  0.00  0.00     0.043 C 
ATOM     29  H3  KO1 d          -7.927   4.133  68.436  0.00  0.00     0.078 H 
ATOM     30  H4  KO1 d          -7.816   5.639  67.463  0.00  0.00     0.078 H 
BRANCH  28  31
ATOM     31  O8  KO1 d          -6.286   5.384  68.901  0.00  0.00    -0.398 OA
ATOM     32  H5  KO1 d          -5.838   4.670  69.339  0.00  0.00     0.209 HD
ENDBRANCH  28  31
ENDBRANCH  26  28
BRANCH  26  33
ATOM     33  O7  KO1 d          -4.956   3.945  67.431  0.00  0.00    -0.391 OA
ATOM     34  H6  KO1 d          -4.946   3.257  68.087  0.00  0.00     0.210 HD
ENDBRANCH  26  33
ENDBRANCH  15  26
BRANCH  16  35
ATOM     35  O5  KO1 d          -7.273   3.238  64.269  0.00  0.00    -0.390 OA
ATOM     36  H8  KO1 d          -7.415   4.050  64.742  0.00  0.00     0.210 HD
ENDBRANCH  16  35
BRANCH  18  37
ATOM     37  O4  KO1 d          -7.002   0.544  63.540  0.00  0.00    -0.390 OA
ATOM     38  H10 KO1 d          -6.216   0.950  63.191  0.00  0.00     0.210 HD
ENDBRANCH  18  37
BRANCH  20  39
ATOM     39  O3  KO1 d          -9.537   1.519  64.578  0.00  0.00    -0.387 OA
ATOM     40  H12 KO1 d         -10.390   1.101  64.575  0.00  0.00     0.210 HD
ENDBRANCH  20  39
ENDBRANCH  12  13
ENDBRANCH   3  12
BRANCH   4  41
ATOM     41  O5  KO1 d          -5.886  -0.392  69.132  0.00  0.00    -0.390 OA
ATOM     42  H17 KO1 d          -5.500   0.128  69.826  0.00  0.00     0.210 HD
ENDBRANCH   4  41
BRANCH   1  43
ATOM     43  C1  KO1 d          -7.756   2.814  71.894  0.00  0.00     0.239 C 
ATOM     44  O1A KO1 d          -7.877   3.794  71.109  0.00  0.00    -0.644 OA
ATOM     45  O1B KO1 d          -7.192   2.863  73.038  0.00  0.00    -0.644 OA
ENDBRANCH   1  43
BRANCH   1  46
ATOM     46  O2  KO1 d          -9.630   1.158  71.935  0.00  0.00    -0.343 OA
BRANCH  46  47
ATOM     47  C9  KO1 d         -10.676   1.446  72.806  0.00  0.00     0.038 C 
ATOM     48  H24 KO1 d         -10.292   1.205  73.808  0.00  0.00     0.080 H 
ATOM     49  H25 KO1 d         -11.476   0.739  72.540  0.00  0.00     0.080 H 
BRANCH  47  50
ATOM     50  C10 KO1 d         -11.319   2.697  72.946  0.00  0.00    -0.089 C 
ATOM     51  C11 KO1 d         -10.790   3.764  73.691  0.00  0.00    -0.123 C 
ATOM     52  H27 KO1 d         -11.336   4.703  73.760  0.00  0.00     0.066 H 
ATOM     53  H28 KO1 d          -9.834   3.651  74.201  0.00  0.00     0.066 H 
ATOM     54  H26 KO1 d         -12.277   2.843  72.449  0.00  0.00     0.078 H 
ENDBRANCH  47  50
ENDBRANCH  46  47
ENDBRANCH   1  46
BRANCH   5  55
ATOM     55  C7  KO1 d          -6.386  -1.939  71.672  0.00  0.00     0.083 C 
ATOM     56  H19 KO1 d          -5.541  -1.325  72.019  0.00  0.00     0.090 H 
BRANCH  55  57
ATOM     57  O7  KO1 d          -5.880  -2.857  70.677  0.00  0.00    -0.391 OA
ATOM     58  H20 KO1 d          -5.389  -3.548  71.106  0.00  0.00     0.210 HD
ENDBRANCH  55  57
BRANCH  55  59
ATOM     59  C8  KO1 d          -6.912  -2.732  72.905  0.00  0.00     0.043 C 
ATOM     60  H21 KO1 d          -6.064  -2.954  73.570  0.00  0.00     0.078 H 
ATOM     61  H22 KO1 d          -7.361  -3.674  72.557  0.00  0.00     0.078 H 
BRANCH  59  62
ATOM     62  O8  KO1 d          -7.908  -1.987  73.651  0.00  0.00    -0.398 OA
ATOM     63  H23 KO1 d          -8.175  -2.491  74.411  0.00  0.00     0.209 HD
ENDBRANCH  59  62
ENDBRANCH  55  59
ENDBRANCH   5  55
TORSDOF 19
ENDMDL
MODEL 4
REMARK VINA RESULT:      -4.2      2.100      4.472
REMARK  19 active torsions:
REMARK  status: ('A' for Active; 'I' for Inactive)
REMARK    1  A    between atoms: C2_4  and  C1_2 
REMARK    2  A    between atoms: O2_17  and  C2_4 
REMARK    3  A    between atoms: C6_6  and  C7_7 
REMARK    4  A    between atoms: C7_7  and  C8_8 
REMARK    5  A    between atoms: C7_7  and  O7_10 
REMARK    6  A    between atoms: C8_8  and  O8_9 
REMARK    7  A    between atoms: C5_11  and  O5_12 
REMARK    8  A    between atoms: C4_13  and  O4_14 
REMARK    9  A    between atoms: C3_15  and  O3_16 
REMARK   10  A    between atoms: C4_23  and  O2_17 
REMARK   11  A    between atoms: C2_21  and  C1_18 
REMARK   12  A    between atoms: C2_21  and  O2_32 
REMARK   13  A    between atoms: C5_24  and  O5_25 
REMARK   14  A    between atoms: C6_26  and  C7_28 
REMARK   15  A    between atoms: C7_28  and  O7_29 
REMARK   16  A    between atoms: C7_28  and  C8_30 
REMARK   17  A    between atoms: C8_30  and  O8_31 
REMARK   18  A    between atoms: O2_32  and  C9_33 
REMARK   19  A    between atoms: C9_33  and  C10_34 
ROOT
ATOM      1  C2  KO1 d          -8.545   0.347  71.743  0.00  0.00     0.259 C 
ATOM      2  C3  KO1 d          -8.719   0.569  70.208  0.00  0.00     0.024 C 
ATOM      3  C4  KO1 d          -8.359   1.984  69.689  0.00  0.00     0.075 C 
ATOM      4  C5  KO1 d          -8.966   3.165  70.491  0.00  0.00     0.088 C 
ATOM      5  C6  KO1 d          -8.615   2.944  71.994  0.00  0.00     0.096 C 
ATOM      6  O6  KO1 d          -8.944   1.564  72.439  0.00  0.00    -0.336 OA
ATOM      7  H13 KO1 d          -9.772   0.374  69.956  0.00  0.00     0.045 H 
ATOM      8  H14 KO1 d          -8.077  -0.156  69.686  0.00  0.00     0.045 H 
ATOM      9  H15 KO1 d          -7.263   2.065  69.726  0.00  0.00     0.087 H 
ATOM     10  H16 KO1 d          -8.484   4.097  70.160  0.00  0.00     0.091 H 
ATOM     11  H18 KO1 d          -7.522   3.042  72.076  0.00  0.00     0.091 H 
ENDROOT
BRANCH   3  12
ATOM     12  O2  KO1 d          -8.807   2.229  68.318  0.00  0.00    -0.336 OA
BRANCH  12  13
ATOM     13  C2  KO1 d          -7.835   2.229  67.216  0.00  0.00     0.286 C 
ATOM     14  O6  KO1 d          -8.536   2.827  65.961  0.00  0.00    -0.334 OA
ATOM     15  C6  KO1 d          -9.152   4.160  66.315  0.00  0.00     0.096 C 
ATOM     16  C5  KO1 d          -8.034   5.148  66.655  0.00  0.00     0.090 C 
ATOM     17  H1  KO1 d          -9.809   4.067  67.193  0.00  0.00     0.091 H 
ATOM     18  C4  KO1 d          -7.257   4.618  67.890  0.00  0.00     0.093 C 
ATOM     19  H7  KO1 d          -8.464   6.135  66.880  0.00  0.00     0.091 H 
ATOM     20  C3  KO1 d          -6.693   3.175  67.712  0.00  0.00     0.127 C 
ATOM     21  H9  KO1 d          -7.948   4.605  68.745  0.00  0.00     0.091 H 
ATOM     22  H11 KO1 d          -6.280   2.832  68.672  0.00  0.00     0.096 H 
BRANCH  13  23
ATOM     23  C1  KO1 d          -7.224   0.872  66.797  0.00  0.00     0.241 C 
ATOM     24  OA1 KO1 d          -6.733   0.110  67.672  0.00  0.00    -0.644 OA
ATOM     25  O1B KO1 d          -7.244   0.557  65.606  0.00  0.00    -0.644 OA
ENDBRANCH  13  23
BRANCH  15  26
ATOM     26  C7  KO1 d         -10.011   4.502  65.062  0.00  0.00     0.083 C 
ATOM     27  H2  KO1 d          -9.776   5.526  64.737  0.00  0.00     0.090 H 
BRANCH  26  28
ATOM     28  C8  KO1 d          -9.724   3.581  63.858  0.00  0.00     0.043 C 
ATOM     29  H3  KO1 d         -10.595   3.500  63.191  0.00  0.00     0.078 H 
ATOM     30  H4  KO1 d          -9.413   2.577  64.180  0.00  0.00     0.078 H 
BRANCH  28  31
ATOM     31  O8  KO1 d          -8.638   4.300  63.231  0.00  0.00    -0.398 OA
ATOM     32  H5  KO1 d          -7.837   4.151  63.719  0.00  0.00     0.209 HD
ENDBRANCH  28  31
ENDBRANCH  26  28
BRANCH  26  33
ATOM     33  O7  KO1 d         -11.346   4.483  65.545  0.00  0.00    -0.391 OA
ATOM     34  H6  KO1 d         -11.948   4.551  64.813  0.00  0.00     0.210 HD
ENDBRANCH  26  33
ENDBRANCH  15  26
BRANCH  16  35
ATOM     35  O5  KO1 d          -7.132   5.254  65.538  0.00  0.00    -0.390 OA
ATOM     36  H8  KO1 d          -6.245   5.084  65.832  0.00  0.00     0.210 HD
ENDBRANCH  16  35
BRANCH  18  37
ATOM     37  O4  KO1 d          -6.201   5.506  68.171  0.00  0.00    -0.390 OA
ATOM     38  H10 KO1 d          -6.334   6.316  67.692  0.00  0.00     0.210 HD
ENDBRANCH  18  37
BRANCH  20  39
ATOM     39  O3  KO1 d          -5.723   3.049  66.691  0.00  0.00    -0.387 OA
ATOM     40  H12 KO1 d          -4.973   2.572  67.026  0.00  0.00     0.210 HD
ENDBRANCH  20  39
ENDBRANCH  12  13
ENDBRANCH   3  12
BRANCH   4  41
ATOM     41  O5  KO1 d         -10.397   3.302  70.238  0.00  0.00    -0.390 OA
ATOM     42  H17 KO1 d         -10.767   3.932  70.846  0.00  0.00     0.210 HD
ENDBRANCH   4  41
BRANCH   1  43
ATOM     43  C1  KO1 d          -9.500  -0.836  72.104  0.00  0.00     0.239 C 
ATOM     44  O1A KO1 d          -9.535  -1.142  73.327  0.00  0.00    -0.644 OA
ATOM     45  O1B KO1 d         -10.160  -1.428  71.186  0.00  0.00    -0.644 OA
ENDBRANCH   1  43
BRANCH   1  46
ATOM     46  O2  KO1 d          -7.184   0.105  72.169  0.00  0.00    -0.343 OA
BRANCH  46  47
ATOM     47  C9  KO1 d          -5.865   0.519  72.326  0.00  0.00     0.038 C 
ATOM     48  H24 KO1 d          -5.286  -0.407  72.462  0.00  0.00     0.080 H 
ATOM     49  H25 KO1 d          -5.854   1.099  73.261  0.00  0.00     0.080 H 
BRANCH  47  50
ATOM     50  C10 KO1 d          -5.121   1.290  71.404  0.00  0.00    -0.089 C 
ATOM     51  C11 KO1 d          -4.742   0.828  70.132  0.00  0.00    -0.123 C 
ATOM     52  H27 KO1 d          -4.168   1.472  69.468  0.00  0.00     0.066 H 
ATOM     53  H28 KO1 d          -5.022  -0.174  69.811  0.00  0.00     0.066 H 
ATOM     54  H26 KO1 d          -4.825   2.297  71.694  0.00  0.00     0.078 H 
ENDBRANCH  47  50
ENDBRANCH  46  47
ENDBRANCH   1  46
BRANCH   5  55
ATOM     55  C7  KO1 d          -9.218   4.041  72.913  0.00  0.00     0.083 C 
ATOM     56  H19 KO1 d          -8.761   3.911  73.906  0.00  0.00     0.090 H 
BRANCH  55  57
ATOM     57  O7  KO1 d         -10.645   3.867  73.063  0.00  0.00    -0.391 OA
ATOM     58  H20 KO1 d         -10.985   4.534  73.647  0.00  0.00     0.210 HD
ENDBRANCH  55  57
BRANCH  55  59
ATOM     59  C8  KO1 d          -8.908   5.497  72.456  0.00  0.00     0.043 C 
ATOM     60  H21 KO1 d          -9.663   6.172  72.885  0.00  0.00     0.078 H 
ATOM     61  H22 KO1 d          -8.959   5.543  71.357  0.00  0.00     0.078 H 
BRANCH  59  62
ATOM     62  O8  KO1 d          -7.592   5.936  72.880  0.00  0.00    -0.398 OA
ATOM     63  H23 KO1 d          -7.069   6.151  72.117  0.00  0.00     0.209 HD
ENDBRANCH  59  62
ENDBRANCH  55  59
ENDBRANCH   5  55
TORSDOF 19
ENDMDL
MODEL 5
REMARK VINA RESULT:      -4.2      1.943      7.500
REMARK  19 active torsions:
REMARK  status: ('A' for Active; 'I' for Inactive)
REMARK    1  A    between atoms: C2_4  and  C1_2 
REMARK    2  A    between atoms: O2_17  and  C2_4 
REMARK    3  A    between atoms: C6_6  and  C7_7 
REMARK    4  A    between atoms: C7_7  and  C8_8 
REMARK    5  A    between atoms: C7_7  and  O7_10 
REMARK    6  A    between atoms: C8_8  and  O8_9 
REMARK    7  A    between atoms: C5_11  and  O5_12 
REMARK    8  A    between atoms: C4_13  and  O4_14 
REMARK    9  A    between atoms: C3_15  and  O3_16 
REMARK   10  A    between atoms: C4_23  and  O2_17 
REMARK   11  A    between atoms: C2_21  and  C1_18 
REMARK   12  A    between atoms: C2_21  and  O2_32 
REMARK   13  A    between atoms: C5_24  and  O5_25 
REMARK   14  A    between atoms: C6_26  and  C7_28 
REMARK   15  A    between atoms: C7_28  and  O7_29 
REMARK   16  A    between atoms: C7_28  and  C8_30 
REMARK   17  A    between atoms: C8_30  and  O8_31 
REMARK   18  A    between atoms: O2_32  and  C9_33 
REMARK   19  A    between atoms: C9_33  and  C10_34 
ROOT
ATOM      1  C2  KO1 d          -7.685   1.827  65.937  0.00  0.00     0.259 C 
ATOM      2  C3  KO1 d          -7.004   0.998  67.071  0.00  0.00     0.024 C 
ATOM      3  C4  KO1 d          -7.309   1.462  68.517  0.00  0.00     0.075 C 
ATOM      4  C5  KO1 d          -7.158   2.983  68.779  0.00  0.00     0.088 C 
ATOM      5  C6  KO1 d          -7.992   3.732  67.694  0.00  0.00     0.096 C 
ATOM      6  O6  KO1 d          -7.693   3.231  66.326  0.00  0.00    -0.336 OA
ATOM      7  H13 KO1 d          -5.915   1.051  66.921  0.00  0.00     0.045 H 
ATOM      8  H14 KO1 d          -7.337  -0.046  66.973  0.00  0.00     0.045 H 
ATOM      9  H15 KO1 d          -8.350   1.174  68.728  0.00  0.00     0.087 H 
ATOM     10  H16 KO1 d          -7.591   3.214  69.763  0.00  0.00     0.091 H 
ATOM     11  H18 KO1 d          -9.047   3.488  67.889  0.00  0.00     0.091 H 
ENDROOT
BRANCH   3  12
ATOM     12  O2  KO1 d          -6.435   0.850  69.518  0.00  0.00    -0.336 OA
BRANCH  12  13
ATOM     13  C2  KO1 d          -7.011   0.259  70.735  0.00  0.00     0.286 C 
ATOM     14  O6  KO1 d          -6.398  -1.161  70.911  0.00  0.00    -0.334 OA
ATOM     15  C6  KO1 d          -4.891  -1.071  70.853  0.00  0.00     0.096 C 
ATOM     16  C5  KO1 d          -4.396  -0.272  72.061  0.00  0.00     0.090 C 
ATOM     17  H1  KO1 d          -4.564  -0.552  69.939  0.00  0.00     0.091 H 
ATOM     18  C4  KO1 d          -4.982   1.164  71.984  0.00  0.00     0.093 C 
ATOM     19  H7  KO1 d          -3.297  -0.228  72.054  0.00  0.00     0.091 H 
ATOM     20  C3  KO1 d          -6.538   1.209  71.883  0.00  0.00     0.127 C 
ATOM     21  H9  KO1 d          -4.573   1.649  71.085  0.00  0.00     0.091 H 
ATOM     22  H11 KO1 d          -6.853   2.246  71.697  0.00  0.00     0.096 H 
BRANCH  13  23
ATOM     23  C1  KO1 d          -8.547   0.107  70.802  0.00  0.00     0.241 C 
ATOM     24  OA1 KO1 d          -9.262   1.103  71.095  0.00  0.00    -0.644 OA
ATOM     25  O1B KO1 d          -9.044  -0.993  70.553  0.00  0.00    -0.644 OA
ENDBRANCH  13  23
BRANCH  15  26
ATOM     26  C7  KO1 d          -4.444  -2.562  70.789  0.00  0.00     0.083 C 
ATOM     27  H2  KO1 d          -3.347  -2.603  70.736  0.00  0.00     0.090 H 
BRANCH  26  28
ATOM     28  C8  KO1 d          -4.856  -3.374  72.034  0.00  0.00     0.043 C 
ATOM     29  H3  KO1 d          -4.935  -2.737  72.927  0.00  0.00     0.078 H 
ATOM     30  H4  KO1 d          -4.155  -4.197  72.232  0.00  0.00     0.078 H 
BRANCH  28  31
ATOM     31  O8  KO1 d          -6.149  -3.864  71.613  0.00  0.00    -0.398 OA
ATOM     32  H5  KO1 d          -6.388  -3.454  70.789  0.00  0.00     0.209 HD
ENDBRANCH  28  31
ENDBRANCH  26  28
BRANCH  26  33
ATOM     33  O7  KO1 d          -4.969  -3.024  69.553  0.00  0.00    -0.391 OA
ATOM     34  H6  KO1 d          -4.922  -2.326  68.910  0.00  0.00     0.210 HD
ENDBRANCH  26  33
ENDBRANCH  15  26
BRANCH  16  35
ATOM     35  O5  KO1 d          -4.850  -0.904  73.272  0.00  0.00    -0.390 OA
ATOM     36  H8  KO1 d          -4.169  -1.479  73.601  0.00  0.00     0.210 HD
ENDBRANCH  16  35
BRANCH  18  37
ATOM     37  O4  KO1 d          -4.561   1.881  73.120  0.00  0.00    -0.390 OA
ATOM     38  H10 KO1 d          -5.259   1.888  73.765  0.00  0.00     0.210 HD
ENDBRANCH  18  37
BRANCH  20  39
ATOM     39  O3  KO1 d          -7.210   0.688  73.011  0.00  0.00    -0.387 OA
ATOM     40  H12 KO1 d          -8.054   0.342  72.743  0.00  0.00     0.210 HD
ENDBRANCH  20  39
ENDBRANCH  12  13
ENDBRANCH   3  12
BRANCH   4  41
ATOM     41  O5  KO1 d          -5.754   3.382  68.815  0.00  0.00    -0.390 OA
ATOM     42  H17 KO1 d          -5.686   4.313  68.644  0.00  0.00     0.210 HD
ENDBRANCH   4  41
BRANCH   1  43
ATOM     43  C1  KO1 d          -6.796   1.609  64.670  0.00  0.00     0.239 C 
ATOM     44  O1A KO1 d          -6.485   2.660  64.047  0.00  0.00    -0.644 OA
ATOM     45  O1B KO1 d          -6.455   0.429  64.324  0.00  0.00    -0.644 OA
ENDBRANCH   1  43
BRANCH   1  46
ATOM     46  O2  KO1 d          -9.074   1.500  65.698  0.00  0.00    -0.343 OA
BRANCH  46  47
ATOM     47  C9  KO1 d         -10.429   1.801  65.788  0.00  0.00     0.038 C 
ATOM     48  H24 KO1 d         -10.603   2.038  66.848  0.00  0.00     0.080 H 
ATOM     49  H25 KO1 d         -10.950   0.866  65.530  0.00  0.00     0.080 H 
BRANCH  47  50
ATOM     50  C10 KO1 d         -11.104   2.812  65.066  0.00  0.00    -0.089 C 
ATOM     51  C11 KO1 d         -10.489   3.613  64.090  0.00  0.00    -0.123 C 
ATOM     52  H27 KO1 d         -11.066   4.377  63.570  0.00  0.00     0.066 H 
ATOM     53  H28 KO1 d          -9.435   3.473  63.855  0.00  0.00     0.066 H 
ATOM     54  H26 KO1 d         -12.160   2.979  65.278  0.00  0.00     0.078 H 
ENDBRANCH  47  50
ENDBRANCH  46  47
ENDBRANCH   1  46
BRANCH   5  55
ATOM     55  C7  KO1 d          -7.877   5.276  67.817  0.00  0.00     0.083 C 
ATOM     56  H19 KO1 d          -7.346   5.628  66.919  0.00  0.00     0.090 H 
BRANCH  55  57
ATOM     57  O7  KO1 d          -7.086   5.648  68.968  0.00  0.00    -0.391 OA
ATOM     58  H20 KO1 d          -6.973   4.892  69.530  0.00  0.00     0.210 HD
ENDBRANCH  55  57
BRANCH  55  59
ATOM     59  C8  KO1 d          -9.247   6.017  67.854  0.00  0.00     0.043 C 
ATOM     60  H21 KO1 d          -9.079   7.058  68.167  0.00  0.00     0.078 H 
ATOM     61  H22 KO1 d          -9.901   5.516  68.584  0.00  0.00     0.078 H 
BRANCH  59  62
ATOM     62  O8  KO1 d          -9.906   6.017  66.561  0.00  0.00    -0.398 OA
ATOM     63  H23 KO1 d         -10.755   6.435  66.640  0.00  0.00     0.209 HD
ENDBRANCH  59  62
ENDBRANCH  55  59
ENDBRANCH   5  55
TORSDOF 19
ENDMDL
MODEL 6
REMARK VINA RESULT:      -4.2      1.701      7.093
REMARK  19 active torsions:
REMARK  status: ('A' for Active; 'I' for Inactive)
REMARK    1  A    between atoms: C2_4  and  C1_2 
REMARK    2  A    between atoms: O2_17  and  C2_4 
REMARK    3  A    between atoms: C6_6  and  C7_7 
REMARK    4  A    between atoms: C7_7  and  C8_8 
REMARK    5  A    between atoms: C7_7  and  O7_10 
REMARK    6  A    between atoms: C8_8  and  O8_9 
REMARK    7  A    between atoms: C5_11  and  O5_12 
REMARK    8  A    between atoms: C4_13  and  O4_14 
REMARK    9  A    between atoms: C3_15  and  O3_16 
REMARK   10  A    between atoms: C4_23  and  O2_17 
REMARK   11  A    between atoms: C2_21  and  C1_18 
REMARK   12  A    between atoms: C2_21  and  O2_32 
REMARK   13  A    between atoms: C5_24  and  O5_25 
REMARK   14  A    between atoms: C6_26  and  C7_28 
REMARK   15  A    between atoms: C7_28  and  O7_29 
REMARK   16  A    between atoms: C7_28  and  C8_30 
REMARK   17  A    between atoms: C8_30  and  O8_31 
REMARK   18  A    between atoms: O2_32  and  C9_33 
REMARK   19  A    between atoms: C9_33  and  C10_34 
ROOT
ATOM      1  C2  KO1 d          -7.888   2.721  66.332  0.00  0.00     0.259 C 
ATOM      2  C3  KO1 d          -7.014   2.240  67.532  0.00  0.00     0.024 C 
ATOM      3  C4  KO1 d          -7.639   2.436  68.937  0.00  0.00     0.075 C 
ATOM      4  C5  KO1 d          -8.235   3.840  69.216  0.00  0.00     0.088 C 
ATOM      5  C6  KO1 d          -9.212   4.177  68.047  0.00  0.00     0.096 C 
ATOM      6  O6  KO1 d          -8.584   3.942  66.720  0.00  0.00    -0.336 OA
ATOM      7  H13 KO1 d          -6.065   2.796  67.503  0.00  0.00     0.045 H 
ATOM      8  H14 KO1 d          -6.815   1.167  67.397  0.00  0.00     0.045 H 
ATOM      9  H15 KO1 d          -8.442   1.691  69.032  0.00  0.00     0.087 H 
ATOM     10  H16 KO1 d          -8.818   3.794  70.147  0.00  0.00     0.091 H 
ATOM     11  H18 KO1 d         -10.047   3.464  68.124  0.00  0.00     0.091 H 
ENDROOT
BRANCH   3  12
ATOM     12  O2  KO1 d          -6.682   2.243  70.027  0.00  0.00    -0.336 OA
BRANCH  12  13
ATOM     13  C2  KO1 d          -7.037   1.400  71.178  0.00  0.00     0.286 C 
ATOM     14  O6  KO1 d          -8.139   0.402  70.716  0.00  0.00    -0.334 OA
ATOM     15  C6  KO1 d          -7.678  -0.317  69.469  0.00  0.00     0.096 C 
ATOM     16  C5  KO1 d          -6.472  -1.191  69.820  0.00  0.00     0.090 C 
ATOM     17  H1  KO1 d          -7.370   0.401  68.694  0.00  0.00     0.091 H 
ATOM     18  C4  KO1 d          -5.321  -0.277  70.319  0.00  0.00     0.093 C 
ATOM     19  H7  KO1 d          -6.146  -1.751  68.930  0.00  0.00     0.091 H 
ATOM     20  C3  KO1 d          -5.713   0.640  71.518  0.00  0.00     0.127 C 
ATOM     21  H9  KO1 d          -5.018   0.372  69.485  0.00  0.00     0.091 H 
ATOM     22  H11 KO1 d          -4.890   1.341  71.715  0.00  0.00     0.096 H 
BRANCH  13  23
ATOM     23  C1  KO1 d          -7.560   2.103  72.450  0.00  0.00     0.241 C 
ATOM     24  OA1 KO1 d          -8.801   2.244  72.623  0.00  0.00    -0.644 OA
ATOM     25  O1B KO1 d          -6.744   2.502  73.283  0.00  0.00    -0.644 OA
ENDBRANCH  13  23
BRANCH  15  26
ATOM     26  C7  KO1 d          -8.957  -1.071  68.997  0.00  0.00     0.083 C 
ATOM     27  H2  KO1 d          -8.736  -2.147  68.943  0.00  0.00     0.090 H 
BRANCH  26  28
ATOM     28  C8  KO1 d         -10.148  -0.914  69.965  0.00  0.00     0.043 C 
ATOM     29  H3  KO1 d         -11.110  -1.066  69.453  0.00  0.00     0.078 H 
ATOM     30  H4  KO1 d         -10.145   0.070  70.455  0.00  0.00     0.078 H 
BRANCH  28  31
ATOM     31  O8  KO1 d          -9.867  -1.977  70.902  0.00  0.00    -0.398 OA
ATOM     32  H5  KO1 d         -10.578  -2.041  71.529  0.00  0.00     0.209 HD
ENDBRANCH  28  31
ENDBRANCH  26  28
BRANCH  26  33
ATOM     33  O7  KO1 d          -9.170  -0.591  67.678  0.00  0.00    -0.391 OA
ATOM     34  H6  KO1 d          -9.976  -0.089  67.651  0.00  0.00     0.210 HD
ENDBRANCH  26  33
ENDBRANCH  15  26
BRANCH  16  35
ATOM     35  O5  KO1 d          -6.834  -2.110  70.867  0.00  0.00    -0.390 OA
ATOM     36  H8  KO1 d          -7.468  -2.734  70.533  0.00  0.00     0.210 HD
ENDBRANCH  16  35
BRANCH  18  37
ATOM     37  O4  KO1 d          -4.229  -1.089  70.683  0.00  0.00    -0.390 OA
ATOM     38  H10 KO1 d          -3.438  -0.756  70.275  0.00  0.00     0.210 HD
ENDBRANCH  18  37
BRANCH  20  39
ATOM     39  O3  KO1 d          -6.054  -0.059  72.699  0.00  0.00    -0.387 OA
ATOM     40  H12 KO1 d          -5.261  -0.361  73.126  0.00  0.00     0.210 HD
ENDBRANCH  20  39
ENDBRANCH  12  13
ENDBRANCH   3  12
BRANCH   4  41
ATOM     41  O5  KO1 d          -7.186   4.837  69.408  0.00  0.00    -0.390 OA
ATOM     42  H17 KO1 d          -7.153   5.089  70.323  0.00  0.00     0.210 HD
ENDBRANCH   4  41
BRANCH   1  43
ATOM     43  C1  KO1 d          -6.882   3.003  65.170  0.00  0.00     0.239 C 
ATOM     44  O1A KO1 d          -6.382   4.161  65.164  0.00  0.00    -0.644 OA
ATOM     45  O1B KO1 d          -6.635   2.099  64.304  0.00  0.00    -0.644 OA
ENDBRANCH   1  43
BRANCH   1  46
ATOM     46  O2  KO1 d          -8.937   1.805  65.941  0.00  0.00    -0.343 OA
BRANCH  46  47
ATOM     47  C9  KO1 d          -9.799   1.275  64.985  0.00  0.00     0.038 C 
ATOM     48  H24 KO1 d         -10.684   0.942  65.548  0.00  0.00     0.080 H 
ATOM     49  H25 KO1 d          -9.273   0.399  64.577  0.00  0.00     0.080 H 
BRANCH  47  50
ATOM     50  C10 KO1 d         -10.310   1.959  63.859  0.00  0.00    -0.089 C 
ATOM     51  C11 KO1 d         -10.318   3.358  63.736  0.00  0.00    -0.123 C 
ATOM     52  H27 KO1 d         -10.728   3.823  62.841  0.00  0.00     0.066 H 
ATOM     53  H28 KO1 d          -9.915   3.977  64.536  0.00  0.00     0.066 H 
ATOM     54  H26 KO1 d         -10.721   1.368  63.041  0.00  0.00     0.078 H 
ENDBRANCH  47  50
ENDBRANCH  46  47
ENDBRANCH   1  46
BRANCH   5  55
ATOM     55  C7  KO1 d          -9.837   5.592  68.184  0.00  0.00     0.083 C 
ATOM     56  H19 KO1 d          -9.064   6.312  67.877  0.00  0.00     0.090 H 
BRANCH  55  57
ATOM     57  O7  KO1 d         -10.180   5.878  69.559  0.00  0.00    -0.391 OA
ATOM     58  H20 KO1 d          -9.456   6.330  69.977  0.00  0.00     0.210 HD
ENDBRANCH  55  57
BRANCH  55  59
ATOM     59  C8  KO1 d         -11.074   5.833  67.269  0.00  0.00     0.043 C 
ATOM     60  H21 KO1 d         -11.568   6.765  67.580  0.00  0.00     0.078 H 
ATOM     61  H22 KO1 d         -11.773   4.991  67.388  0.00  0.00     0.078 H 
BRANCH  59  62
ATOM     62  O8  KO1 d         -10.708   5.942  65.869  0.00  0.00    -0.398 OA
ATOM     63  H23 KO1 d         -10.621   5.073  65.498  0.00  0.00     0.209 HD
ENDBRANCH  59  62
ENDBRANCH  55  59
ENDBRANCH   5  55
TORSDOF 19
ENDMDL
MODEL 7
REMARK VINA RESULT:      -4.1      1.839      6.693
REMARK  19 active torsions:
REMARK  status: ('A' for Active; 'I' for Inactive)
REMARK    1  A    between atoms: C2_4  and  C1_2 
REMARK    2  A    between atoms: O2_17  and  C2_4 
REMARK    3  A    between atoms: C6_6  and  C7_7 
REMARK    4  A    between atoms: C7_7  and  C8_8 
REMARK    5  A    between atoms: C7_7  and  O7_10 
REMARK    6  A    between atoms: C8_8  and  O8_9 
REMARK    7  A    between atoms: C5_11  and  O5_12 
REMARK    8  A    between atoms: C4_13  and  O4_14 
REMARK    9  A    between atoms: C3_15  and  O3_16 
REMARK   10  A    between atoms: C4_23  and  O2_17 
REMARK   11  A    between atoms: C2_21  and  C1_18 
REMARK   12  A    between atoms: C2_21  and  O2_32 
REMARK   13  A    between atoms: C5_24  and  O5_25 
REMARK   14  A    between atoms: C6_26  and  C7_28 
REMARK   15  A    between atoms: C7_28  and  O7_29 
REMARK   16  A    between atoms: C7_28  and  C8_30 
REMARK   17  A    between atoms: C8_30  and  O8_31 
REMARK   18  A    between atoms: O2_32  and  C9_33 
REMARK   19  A    between atoms: C9_33  and  C10_34 
ROOT
ATOM      1  C2  KO1 d         -10.255   2.915  65.840  0.00  0.00     0.259 C 
ATOM      2  C3  KO1 d         -10.138   1.550  66.589  0.00  0.00     0.024 C 
ATOM      3  C4  KO1 d          -9.193   1.538  67.818  0.00  0.00     0.075 C 
ATOM      4  C5  KO1 d          -7.793   2.166  67.592  0.00  0.00     0.088 C 
ATOM      5  C6  KO1 d          -8.006   3.586  66.984  0.00  0.00     0.096 C 
ATOM      6  O6  KO1 d          -8.946   3.556  65.831  0.00  0.00    -0.336 OA
ATOM      7  H13 KO1 d          -9.770   0.802  65.872  0.00  0.00     0.045 H 
ATOM      8  H14 KO1 d         -11.144   1.266  66.933  0.00  0.00     0.045 H 
ATOM      9  H15 KO1 d          -9.703   2.100  68.614  0.00  0.00     0.087 H 
ATOM     10  H16 KO1 d          -7.301   2.282  68.568  0.00  0.00     0.091 H 
ATOM     11  H18 KO1 d          -8.494   4.189  67.764  0.00  0.00     0.091 H 
ENDROOT
BRANCH   3  12
ATOM     12  O2  KO1 d          -8.895   0.191  68.304  0.00  0.00    -0.336 OA
BRANCH  12  13
ATOM     13  C2  KO1 d          -9.651  -0.367  69.435  0.00  0.00     0.286 C 
ATOM     14  O6  KO1 d          -8.657  -1.169  70.324  0.00  0.00    -0.334 OA
ATOM     15  C6  KO1 d          -7.473  -0.297  70.670  0.00  0.00     0.096 C 
ATOM     16  C5  KO1 d          -7.950   0.859  71.551  0.00  0.00     0.090 C 
ATOM     17  H1  KO1 d          -7.019   0.126  69.761  0.00  0.00     0.091 H 
ATOM     18  C4  KO1 d          -8.973   1.708  70.750  0.00  0.00     0.093 C 
ATOM     19  H7  KO1 d          -7.092   1.484  71.843  0.00  0.00     0.091 H 
ATOM     20  C3  KO1 d         -10.181   0.891  70.198  0.00  0.00     0.127 C 
ATOM     21  H9  KO1 d          -8.447   2.151  69.891  0.00  0.00     0.091 H 
ATOM     22  H11 KO1 d         -10.777   1.537  69.537  0.00  0.00     0.096 H 
BRANCH  13  23
ATOM     23  C1  KO1 d         -10.838  -1.303  69.114  0.00  0.00     0.241 C 
ATOM     24  OA1 KO1 d         -11.272  -2.089  69.999  0.00  0.00    -0.644 OA
ATOM     25  O1B KO1 d         -11.347  -1.251  67.993  0.00  0.00    -0.644 OA
ENDBRANCH  13  23
BRANCH  15  26
ATOM     26  C7  KO1 d          -6.473  -1.294  71.329  0.00  0.00     0.083 C 
ATOM     27  H2  KO1 d          -7.043  -2.064  71.869  0.00  0.00     0.090 H 
BRANCH  26  28
ATOM     28  C8  KO1 d          -5.590  -2.036  70.305  0.00  0.00     0.043 C 
ATOM     29  H3  KO1 d          -5.520  -3.111  70.532  0.00  0.00     0.078 H 
ATOM     30  H4  KO1 d          -4.580  -1.605  70.253  0.00  0.00     0.078 H 
BRANCH  28  31
ATOM     31  O8  KO1 d          -6.336  -1.795  69.091  0.00  0.00    -0.398 OA
ATOM     32  H5  KO1 d          -6.071  -2.422  68.428  0.00  0.00     0.209 HD
ENDBRANCH  28  31
ENDBRANCH  26  28
BRANCH  26  33
ATOM     33  O7  KO1 d          -5.778  -0.503  72.281  0.00  0.00    -0.391 OA
ATOM     34  H6  KO1 d          -4.849  -0.512  72.080  0.00  0.00     0.210 HD
ENDBRANCH  26  33
ENDBRANCH  15  26
BRANCH  16  35
ATOM     35  O5  KO1 d          -8.590   0.333  72.728  0.00  0.00    -0.390 OA
ATOM     36  H8  KO1 d          -8.634   1.010  73.392  0.00  0.00     0.210 HD
ENDBRANCH  16  35
BRANCH  18  37
ATOM     37  O4  KO1 d          -9.443   2.744  71.580  0.00  0.00    -0.390 OA
ATOM     38  H10 KO1 d         -10.379   2.848  71.455  0.00  0.00     0.210 HD
ENDBRANCH  18  37
BRANCH  20  39
ATOM     39  O3  KO1 d         -11.004   0.322  71.196  0.00  0.00    -0.387 OA
ATOM     40  H12 KO1 d         -10.490  -0.279  71.723  0.00  0.00     0.210 HD
ENDBRANCH  20  39
ENDBRANCH  12  13
ENDBRANCH   3  12
BRANCH   4  41
ATOM     41  O5  KO1 d          -6.946   1.301  66.777  0.00  0.00    -0.390 OA
ATOM     42  H17 KO1 d          -7.478   0.860  66.125  0.00  0.00     0.210 HD
ENDBRANCH   4  41
BRANCH   1  43
ATOM     43  C1  KO1 d         -10.704   2.555  64.387  0.00  0.00     0.239 C 
ATOM     44  O1A KO1 d         -10.736   1.322  64.126  0.00  0.00    -0.644 OA
ATOM     45  O1B KO1 d         -10.988   3.483  63.558  0.00  0.00    -0.644 OA
ENDBRANCH   1  43
BRANCH   1  46
ATOM     46  O2  KO1 d         -11.135   3.877  66.467  0.00  0.00    -0.343 OA
BRANCH  46  47
ATOM     47  C9  KO1 d         -11.343   5.031  67.216  0.00  0.00     0.038 C 
ATOM     48  H24 KO1 d         -12.404   5.281  67.072  0.00  0.00     0.080 H 
ATOM     49  H25 KO1 d         -10.717   5.800  66.740  0.00  0.00     0.080 H 
BRANCH  47  50
ATOM     50  C10 KO1 d         -11.113   5.172  68.604  0.00  0.00    -0.089 C 
ATOM     51  C11 KO1 d         -10.133   6.018  69.148  0.00  0.00    -0.123 C 
ATOM     52  H27 KO1 d         -10.006   6.081  70.227  0.00  0.00     0.066 H 
ATOM     53  H28 KO1 d          -9.499   6.611  68.490  0.00  0.00     0.066 H 
ATOM     54  H26 KO1 d         -11.730   4.592  69.289  0.00  0.00     0.078 H 
ENDBRANCH  47  50
ENDBRANCH  46  47
ENDBRANCH   1  46
BRANCH   5  55
ATOM     55  C7  KO1 d          -6.666   4.301  66.660  0.00  0.00     0.083 C 
ATOM     56  H19 KO1 d          -6.904   5.364  66.499  0.00  0.00     0.090 H 
BRANCH  55  57
ATOM     57  O7  KO1 d          -6.088   3.792  65.436  0.00  0.00    -0.391 OA
ATOM     58  H20 KO1 d          -6.065   4.485  64.787  0.00  0.00     0.210 HD
ENDBRANCH  55  57
BRANCH  55  59
ATOM     59  C8  KO1 d          -5.616   4.237  67.808  0.00  0.00     0.043 C 
ATOM     60  H21 KO1 d          -6.129   3.966  68.742  0.00  0.00     0.078 H 
ATOM     61  H22 KO1 d          -5.151   5.228  67.919  0.00  0.00     0.078 H 
BRANCH  59  62
ATOM     62  O8  KO1 d          -4.576   3.259  67.546  0.00  0.00    -0.398 OA
ATOM     63  H23 KO1 d          -4.496   3.128  66.608  0.00  0.00     0.209 HD
ENDBRANCH  59  62
ENDBRANCH  55  59
ENDBRANCH   5  55
TORSDOF 19
ENDMDL
MODEL 8
REMARK VINA RESULT:      -3.7      1.925      7.205
REMARK  19 active torsions:
REMARK  status: ('A' for Active; 'I' for Inactive)
REMARK    1  A    between atoms: C2_4  and  C1_2 
REMARK    2  A    between atoms: O2_17  and  C2_4 
REMARK    3  A    between atoms: C6_6  and  C7_7 
REMARK    4  A    between atoms: C7_7  and  C8_8 
REMARK    5  A    between atoms: C7_7  and  O7_10 
REMARK    6  A    between atoms: C8_8  and  O8_9 
REMARK    7  A    between atoms: C5_11  and  O5_12 
REMARK    8  A    between atoms: C4_13  and  O4_14 
REMARK    9  A    between atoms: C3_15  and  O3_16 
REMARK   10  A    between atoms: C4_23  and  O2_17 
REMARK   11  A    between atoms: C2_21  and  C1_18 
REMARK   12  A    between atoms: C2_21  and  O2_32 
REMARK   13  A    between atoms: C5_24  and  O5_25 
REMARK   14  A    between atoms: C6_26  and  C7_28 
REMARK   15  A    between atoms: C7_28  and  O7_29 
REMARK   16  A    between atoms: C7_28  and  C8_30 
REMARK   17  A    between atoms: C8_30  and  O8_31 
REMARK   18  A    between atoms: O2_32  and  C9_33 
REMARK   19  A    between atoms: C9_33  and  C10_34 
ROOT
ATOM      1  C2  KO1 d          -9.719   2.036  67.042  0.00  0.00     0.259 C 
ATOM      2  C3  KO1 d          -9.531   1.081  68.262  0.00  0.00     0.024 C 
ATOM      3  C4  KO1 d          -8.502   1.544  69.325  0.00  0.00     0.075 C 
ATOM      4  C5  KO1 d          -7.130   2.008  68.770  0.00  0.00     0.088 C 
ATOM      5  C6  KO1 d          -7.405   3.072  67.663  0.00  0.00     0.096 C 
ATOM      6  O6  KO1 d          -8.423   2.601  66.687  0.00  0.00    -0.336 OA
ATOM      7  H13 KO1 d          -9.205   0.103  67.879  0.00  0.00     0.045 H 
ATOM      8  H14 KO1 d         -10.506   0.973  68.761  0.00  0.00     0.045 H 
ATOM      9  H15 KO1 d          -8.962   2.385  69.865  0.00  0.00     0.087 H 
ATOM     10  H16 KO1 d          -6.571   2.496  69.582  0.00  0.00     0.091 H 
ATOM     11  H18 KO1 d          -7.845   3.943  68.171  0.00  0.00     0.091 H 
ENDROOT
BRANCH   3  12
ATOM     12  O2  KO1 d          -8.152   0.498  70.285  0.00  0.00    -0.336 OA
BRANCH  12  13
ATOM     13  C2  KO1 d          -7.834   0.852  71.676  0.00  0.00     0.286 C 
ATOM     14  O6  KO1 d          -8.423  -0.256  72.597  0.00  0.00    -0.334 OA
ATOM     15  C6  KO1 d          -7.951  -1.610  72.122  0.00  0.00     0.096 C 
ATOM     16  C5  KO1 d          -6.435  -1.700  72.311  0.00  0.00     0.090 C 
ATOM     17  H1  KO1 d          -8.174  -1.750  71.054  0.00  0.00     0.091 H 
ATOM     18  C4  KO1 d          -5.758  -0.607  71.443  0.00  0.00     0.093 C 
ATOM     19  H7  KO1 d          -6.080  -2.696  72.004  0.00  0.00     0.091 H 
ATOM     20  C3  KO1 d          -6.271   0.838  71.727  0.00  0.00     0.127 C 
ATOM     21  H9  KO1 d          -5.966  -0.835  70.387  0.00  0.00     0.091 H 
ATOM     22  H11 KO1 d          -5.841   1.523  70.982  0.00  0.00     0.096 H 
BRANCH  13  23
ATOM     23  C1  KO1 d          -8.347   2.210  72.207  0.00  0.00     0.241 C 
ATOM     24  OA1 KO1 d          -9.463   2.273  72.791  0.00  0.00    -0.644 OA
ATOM     25  O1B KO1 d          -7.641   3.208  72.057  0.00  0.00    -0.644 OA
ENDBRANCH  13  23
BRANCH  15  26
ATOM     26  C7  KO1 d          -8.807  -2.604  72.963  0.00  0.00     0.083 C 
ATOM     27  H2  KO1 d          -8.833  -2.256  74.006  0.00  0.00     0.090 H 
BRANCH  26  28
ATOM     28  C8  KO1 d         -10.273  -2.694  72.491  0.00  0.00     0.043 C 
ATOM     29  H3  KO1 d         -10.965  -2.262  73.230  0.00  0.00     0.078 H 
ATOM     30  H4  KO1 d         -10.567  -3.731  72.276  0.00  0.00     0.078 H 
BRANCH  28  31
ATOM     31  O8  KO1 d         -10.211  -1.896  71.288  0.00  0.00    -0.398 OA
ATOM     32  H5  KO1 d          -9.315  -1.869  70.973  0.00  0.00     0.209 HD
ENDBRANCH  28  31
ENDBRANCH  26  28
BRANCH  26  33
ATOM     33  O7  KO1 d          -8.070  -3.817  72.915  0.00  0.00    -0.391 OA
ATOM     34  H6  KO1 d          -7.145  -3.620  72.820  0.00  0.00     0.210 HD
ENDBRANCH  26  33
ENDBRANCH  15  26
BRANCH  16  35
ATOM     35  O5  KO1 d          -6.111  -1.474  73.695  0.00  0.00    -0.390 OA
ATOM     36  H8  KO1 d          -6.704  -1.974  74.244  0.00  0.00     0.210 HD
ENDBRANCH  16  35
BRANCH  18  37
ATOM     37  O4  KO1 d          -4.367  -0.664  71.654  0.00  0.00    -0.390 OA
ATOM     38  H10 KO1 d          -4.054  -1.541  71.463  0.00  0.00     0.210 HD
ENDBRANCH  18  37
BRANCH  20  39
ATOM     39  O3  KO1 d          -6.002   1.305  73.034  0.00  0.00    -0.387 OA
ATOM     40  H12 KO1 d          -5.235   0.860  73.376  0.00  0.00     0.210 HD
ENDBRANCH  20  39
ENDBRANCH  12  13
ENDBRANCH   3  12
BRANCH   4  41
ATOM     41  O5  KO1 d          -6.331   0.877  68.309  0.00  0.00    -0.390 OA
ATOM     42  H17 KO1 d          -6.866   0.092  68.305  0.00  0.00     0.210 HD
ENDBRANCH   4  41
BRANCH   1  43
ATOM     43  C1  KO1 d         -10.266   1.136  65.889  0.00  0.00     0.239 C 
ATOM     44  O1A KO1 d         -11.319   1.554  65.335  0.00  0.00    -0.644 OA
ATOM     45  O1B KO1 d          -9.663   0.053  65.582  0.00  0.00    -0.644 OA
ENDBRANCH   1  43
BRANCH   1  46
ATOM     46  O2  KO1 d         -10.566   3.182  67.295  0.00  0.00    -0.343 OA
BRANCH  46  47
ATOM     47  C9  KO1 d         -11.150   4.378  66.890  0.00  0.00     0.038 C 
ATOM     48  H24 KO1 d         -12.111   4.426  67.424  0.00  0.00     0.080 H 
ATOM     49  H25 KO1 d         -11.335   4.259  65.812  0.00  0.00     0.080 H 
BRANCH  47  50
ATOM     50  C10 KO1 d         -10.585   5.667  67.029  0.00  0.00    -0.089 C 
ATOM     51  C11 KO1 d          -9.454   5.939  67.816  0.00  0.00    -0.123 C 
ATOM     52  H27 KO1 d          -9.068   6.955  67.881  0.00  0.00     0.066 H 
ATOM     53  H28 KO1 d          -8.963   5.134  68.362  0.00  0.00     0.066 H 
ATOM     54  H26 KO1 d         -11.052   6.494  66.495  0.00  0.00     0.078 H 
ENDBRANCH  47  50
ENDBRANCH  46  47
ENDBRANCH   1  46
BRANCH   5  55
ATOM     55  C7  KO1 d          -6.101   3.578  66.988  0.00  0.00     0.083 C 
ATOM     56  H19 KO1 d          -6.325   4.571  66.569  0.00  0.00     0.090 H 
BRANCH  55  57
ATOM     57  O7  KO1 d          -5.716   2.718  65.892  0.00  0.00    -0.391 OA
ATOM     58  H20 KO1 d          -4.789   2.827  65.717  0.00  0.00     0.210 HD
ENDBRANCH  55  57
BRANCH  55  59
ATOM     59  C8  KO1 d          -4.904   3.756  67.968  0.00  0.00     0.043 C 
ATOM     60  H21 KO1 d          -3.987   3.913  67.382  0.00  0.00     0.078 H 
ATOM     61  H22 KO1 d          -4.800   2.841  68.571  0.00  0.00     0.078 H 
BRANCH  59  62
ATOM     62  O8  KO1 d          -5.089   4.885  68.860  0.00  0.00    -0.398 OA
ATOM     63  H23 KO1 d          -4.740   4.670  69.717  0.00  0.00     0.209 HD
ENDBRANCH  59  62
ENDBRANCH  55  59
ENDBRANCH   5  55
TORSDOF 19
ENDMDL
MODEL 9
REMARK VINA RESULT:      -3.5      1.801      4.214
REMARK  19 active torsions:
REMARK  status: ('A' for Active; 'I' for Inactive)
REMARK    1  A    between atoms: C2_4  and  C1_2 
REMARK    2  A    between atoms: O2_17  and  C2_4 
REMARK    3  A    between atoms: C6_6  and  C7_7 
REMARK    4  A    between atoms: C7_7  and  C8_8 
REMARK    5  A    between atoms: C7_7  and  O7_10 
REMARK    6  A    between atoms: C8_8  and  O8_9 
REMARK    7  A    between atoms: C5_11  and  O5_12 
REMARK    8  A    between atoms: C4_13  and  O4_14 
REMARK    9  A    between atoms: C3_15  and  O3_16 
REMARK   10  A    between atoms: C4_23  and  O2_17 
REMARK   11  A    between atoms: C2_21  and  C1_18 
REMARK   12  A    between atoms: C2_21  and  O2_32 
REMARK   13  A    between atoms: C5_24  and  O5_25 
REMARK   14  A    between atoms: C6_26  and  C7_28 
REMARK   15  A    between atoms: C7_28  and  O7_29 
REMARK   16  A    between atoms: C7_28  and  C8_30 
REMARK   17  A    between atoms: C8_30  and  O8_31 
REMARK   18  A    between atoms: O2_32  and  C9_33 
REMARK   19  A    between atoms: C9_33  and  C10_34 
ROOT
ATOM      1  C2  KO1 d          -9.335  -0.351  72.032  0.00  0.00     0.259 C 
ATOM      2  C3  KO1 d          -9.592  -0.030  70.526  0.00  0.00     0.024 C 
ATOM      3  C4  KO1 d          -8.954   1.282  70.002  0.00  0.00     0.075 C 
ATOM      4  C5  KO1 d          -9.185   2.538  70.881  0.00  0.00     0.088 C 
ATOM      5  C6  KO1 d          -8.759   2.177  72.338  0.00  0.00     0.096 C 
ATOM      6  O6  KO1 d          -9.366   0.895  72.787  0.00  0.00    -0.336 OA
ATOM      7  H13 KO1 d         -10.679   0.040  70.376  0.00  0.00     0.045 H 
ATOM      8  H14 KO1 d          -9.192  -0.863  69.929  0.00  0.00     0.045 H 
ATOM      9  H15 KO1 d          -7.871   1.100  69.931  0.00  0.00     0.087 H 
ATOM     10  H16 KO1 d          -8.527   3.342  70.523  0.00  0.00     0.091 H 
ATOM     11  H18 KO1 d          -7.672   2.011  72.313  0.00  0.00     0.091 H 
ENDROOT
BRANCH   3  12
ATOM     12  O2  KO1 d          -9.454   1.683  68.687  0.00  0.00    -0.336 OA
BRANCH  12  13
ATOM     13  C2  KO1 d          -8.800   1.186  67.468  0.00  0.00     0.286 C 
ATOM     14  O6  KO1 d          -8.846   2.322  66.404  0.00  0.00    -0.334 OA
ATOM     15  C6  KO1 d          -8.287   3.593  67.000  0.00  0.00     0.096 C 
ATOM     16  C5  KO1 d          -6.800   3.388  67.297  0.00  0.00     0.090 C 
ATOM     17  H1  KO1 d          -8.796   3.841  67.943  0.00  0.00     0.091 H 
ATOM     18  C4  KO1 d          -6.652   2.246  68.338  0.00  0.00     0.093 C 
ATOM     19  H7  KO1 d          -6.368   4.317  67.697  0.00  0.00     0.091 H 
ATOM     20  C3  KO1 d          -7.327   0.906  67.911  0.00  0.00     0.127 C 
ATOM     21  H9  KO1 d          -7.127   2.577  69.274  0.00  0.00     0.091 H 
ATOM     22  H11 KO1 d          -7.291   0.204  68.756  0.00  0.00     0.096 H 
BRANCH  13  23
ATOM     23  C1  KO1 d          -9.381  -0.084  66.807  0.00  0.00     0.241 C 
ATOM     24  OA1 KO1 d          -9.527  -0.128  65.555  0.00  0.00    -0.644 OA
ATOM     25  O1B KO1 d          -9.678  -1.041  67.524  0.00  0.00    -0.644 OA
ENDBRANCH  13  23
BRANCH  15  26
ATOM     26  C7  KO1 d          -8.629   4.672  65.929  0.00  0.00     0.083 C 
ATOM     27  H2  KO1 d          -8.329   4.298  64.939  0.00  0.00     0.090 H 
BRANCH  26  28
ATOM     28  C8  KO1 d         -10.137   4.986  65.842  0.00  0.00     0.043 C 
ATOM     29  H3  KO1 d         -10.353   6.025  66.134  0.00  0.00     0.078 H 
ATOM     30  H4  KO1 d         -10.731   4.300  66.463  0.00  0.00     0.078 H 
BRANCH  28  31
ATOM     31  O8  KO1 d         -10.370   4.768  64.433  0.00  0.00    -0.398 OA
ATOM     32  H5  KO1 d         -11.293   4.893  64.243  0.00  0.00     0.209 HD
ENDBRANCH  28  31
ENDBRANCH  26  28
BRANCH  26  33
ATOM     33  O7  KO1 d          -7.791   5.767  66.266  0.00  0.00    -0.391 OA
ATOM     34  H6  KO1 d          -7.542   5.704  67.181  0.00  0.00     0.210 HD
ENDBRANCH  26  33
ENDBRANCH  15  26
BRANCH  16  35
ATOM     35  O5  KO1 d          -6.116   3.016  66.087  0.00  0.00    -0.390 OA
ATOM     36  H8  KO1 d          -5.818   2.116  66.157  0.00  0.00     0.210 HD
ENDBRANCH  16  35
BRANCH  18  37
ATOM     37  O4  KO1 d          -5.281   2.030  68.575  0.00  0.00    -0.390 OA
ATOM     38  H10 KO1 d          -4.788   2.790  68.289  0.00  0.00     0.210 HD
ENDBRANCH  18  37
BRANCH  20  39
ATOM     39  O3  KO1 d          -6.765   0.313  66.758  0.00  0.00    -0.387 OA
ATOM     40  H12 KO1 d          -7.452   0.143  66.124  0.00  0.00     0.210 HD
ENDBRANCH  20  39
ENDBRANCH  12  13
ENDBRANCH   3  12
BRANCH   4  41
ATOM     41  O5  KO1 d         -10.559   3.018  70.775  0.00  0.00    -0.390 OA
ATOM     42  H17 KO1 d         -10.973   2.627  70.015  0.00  0.00     0.210 HD
ENDBRANCH   4  41
BRANCH   1  43
ATOM     43  C1  KO1 d         -10.507  -1.289  72.463  0.00  0.00     0.239 C 
ATOM     44  O1A KO1 d         -11.086  -1.893  71.519  0.00  0.00    -0.644 OA
ATOM     45  O1B KO1 d         -10.829  -1.385  73.695  0.00  0.00    -0.644 OA
ENDBRANCH   1  43
BRANCH   1  46
ATOM     46  O2  KO1 d          -8.037  -0.924  72.316  0.00  0.00    -0.343 OA
BRANCH  46  47
ATOM     47  C9  KO1 d          -6.989  -1.783  72.000  0.00  0.00     0.038 C 
ATOM     48  H24 KO1 d          -7.459  -2.765  71.837  0.00  0.00     0.080 H 
ATOM     49  H25 KO1 d          -6.364  -1.820  72.904  0.00  0.00     0.080 H 
BRANCH  47  50
ATOM     50  C10 KO1 d          -6.081  -1.624  70.928  0.00  0.00    -0.089 C 
ATOM     51  C11 KO1 d          -4.691  -1.509  71.096  0.00  0.00    -0.123 C 
ATOM     52  H27 KO1 d          -4.046  -1.388  70.228  0.00  0.00     0.066 H 
ATOM     53  H28 KO1 d          -4.259  -1.539  72.096  0.00  0.00     0.066 H 
ATOM     54  H26 KO1 d          -6.481  -1.589  69.915  0.00  0.00     0.078 H 
ENDBRANCH  47  50
ENDBRANCH  46  47
ENDBRANCH   1  46
BRANCH   5  55
ATOM     55  C7  KO1 d          -8.996   3.345  73.333  0.00  0.00     0.083 C 
ATOM     56  H19 KO1 d          -8.442   3.098  74.251  0.00  0.00     0.090 H 
BRANCH  55  57
ATOM     57  O7  KO1 d         -10.395   3.454  73.683  0.00  0.00    -0.391 OA
ATOM     58  H20 KO1 d         -10.642   4.371  73.708  0.00  0.00     0.210 HD
ENDBRANCH  55  57
BRANCH  55  59
ATOM     59  C8  KO1 d          -8.465   4.723  72.836  0.00  0.00     0.043 C 
ATOM     60  H21 KO1 d          -7.745   4.552  72.023  0.00  0.00     0.078 H 
ATOM     61  H22 KO1 d          -7.961   5.231  73.672  0.00  0.00     0.078 H 
BRANCH  59  62
ATOM     62  O8  KO1 d          -9.531   5.576  72.346  0.00  0.00    -0.398 OA
ATOM     63  H23 KO1 d          -9.932   6.031  73.077  0.00  0.00     0.209 HD
ENDBRANCH  59  62
ENDBRANCH  55  59
ENDBRANCH   5  55
TORSDOF 19
ENDMDL
MODEL 10
REMARK VINA RESULT:      -3.5      2.020      6.870
REMARK  19 active torsions:
REMARK  status: ('A' for Active; 'I' for Inactive)
REMARK    1  A    between atoms: C2_4  and  C1_2 
REMARK    2  A    between atoms: O2_17  and  C2_4 
REMARK    3  A    between atoms: C6_6  and  C7_7 
REMARK    4  A    between atoms: C7_7  and  C8_8 
REMARK    5  A    between atoms: C7_7  and  O7_10 
REMARK    6  A    between atoms: C8_8  and  O8_9 
REMARK    7  A    between atoms: C5_11  and  O5_12 
REMARK    8  A    between atoms: C4_13  and  O4_14 
REMARK    9  A    between atoms: C3_15  and  O3_16 
REMARK   10  A    between atoms: C4_23  and  O2_17 
REMARK   11  A    between atoms: C2_21  and  C1_18 
REMARK   12  A    between atoms: C2_21  and  O2_32 
REMARK   13  A    between atoms: C5_24  and  O5_25 
REMARK   14  A    between atoms: C6_26  and  C7_28 
REMARK   15  A    between atoms: C7_28  and  O7_29 
REMARK   16  A    between atoms: C7_28  and  C8_30 
REMARK   17  A    between atoms: C8_30  and  O8_31 
REMARK   18  A    between atoms: O2_32  and  C9_33 
REMARK   19  A    between atoms: C9_33  and  C10_34 
ROOT
ATOM      1  C2  KO1 d          -7.845   2.950  67.191  0.00  0.00     0.259 C 
ATOM      2  C3  KO1 d          -8.432   1.812  68.084  0.00  0.00     0.024 C 
ATOM      3  C4  KO1 d          -9.448   2.262  69.164  0.00  0.00     0.075 C 
ATOM      4  C5  KO1 d          -9.013   3.474  70.029  0.00  0.00     0.088 C 
ATOM      5  C6  KO1 d          -8.588   4.617  69.057  0.00  0.00     0.096 C 
ATOM      6  O6  KO1 d          -7.641   4.133  68.017  0.00  0.00    -0.336 OA
ATOM      7  H13 KO1 d          -7.592   1.317  68.594  0.00  0.00     0.045 H 
ATOM      8  H14 KO1 d          -8.936   1.090  67.424  0.00  0.00     0.045 H 
ATOM      9  H15 KO1 d         -10.375   2.527  68.634  0.00  0.00     0.087 H 
ATOM     10  H16 KO1 d          -9.882   3.821  70.606  0.00  0.00     0.091 H 
ATOM     11  H18 KO1 d          -9.499   4.928  68.524  0.00  0.00     0.091 H 
ENDROOT
BRANCH   3  12
ATOM     12  O2  KO1 d          -9.744   1.222  70.149  0.00  0.00    -0.336 OA
BRANCH  12  13
ATOM     13  C2  KO1 d          -9.631  -0.196  69.777  0.00  0.00     0.286 C 
ATOM     14  O6  KO1 d          -8.225  -0.695  70.219  0.00  0.00    -0.334 OA
ATOM     15  C6  KO1 d          -8.006  -0.360  71.676  0.00  0.00     0.096 C 
ATOM     16  C5  KO1 d          -8.996  -1.163  72.523  0.00  0.00     0.090 C 
ATOM     17  H1  KO1 d          -8.181   0.710  71.863  0.00  0.00     0.091 H 
ATOM     18  C4  KO1 d         -10.439  -0.747  72.131  0.00  0.00     0.093 C 
ATOM     19  H7  KO1 d          -8.825  -0.958  73.591  0.00  0.00     0.091 H 
ATOM     20  C3  KO1 d         -10.752  -0.900  70.611  0.00  0.00     0.127 C 
ATOM     21  H9  KO1 d         -10.572   0.312  72.396  0.00  0.00     0.091 H 
ATOM     22  H11 KO1 d         -11.739  -0.461  70.403  0.00  0.00     0.096 H 
BRANCH  13  23
ATOM     23  C1  KO1 d          -9.801  -0.564  68.286  0.00  0.00     0.241 C 
ATOM     24  OA1 KO1 d          -8.789  -0.870  67.598  0.00  0.00    -0.644 OA
ATOM     25  O1B KO1 d         -10.933  -0.564  67.801  0.00  0.00    -0.644 OA
ENDBRANCH  13  23
BRANCH  15  26
ATOM     26  C7  KO1 d          -6.498  -0.683  71.896  0.00  0.00     0.083 C 
ATOM     27  H2  KO1 d          -6.411  -1.502  72.624  0.00  0.00     0.090 H 
BRANCH  26  28
ATOM     28  C8  KO1 d          -5.784  -1.156  70.612  0.00  0.00     0.043 C 
ATOM     29  H3  KO1 d          -4.706  -0.942  70.644  0.00  0.00     0.078 H 
ATOM     30  H4  KO1 d          -6.223  -0.700  69.713  0.00  0.00     0.078 H 
BRANCH  28  31
ATOM     31  O8  KO1 d          -6.048  -2.576  70.674  0.00  0.00    -0.398 OA
ATOM     32  H5  KO1 d          -5.462  -3.032  70.081  0.00  0.00     0.209 HD
ENDBRANCH  28  31
ENDBRANCH  26  28
BRANCH  26  33
ATOM     33  O7  KO1 d          -5.977   0.498  72.488  0.00  0.00    -0.391 OA
ATOM     34  H6  KO1 d          -5.039   0.539  72.338  0.00  0.00     0.210 HD
ENDBRANCH  26  33
ENDBRANCH  15  26
BRANCH  16  35
ATOM     35  O5  KO1 d          -8.820  -2.567  72.263  0.00  0.00    -0.390 OA
ATOM     36  H8  KO1 d          -9.370  -3.068  72.854  0.00  0.00     0.210 HD
ENDBRANCH  16  35
BRANCH  18  37
ATOM     37  O4  KO1 d         -11.348  -1.520  72.880  0.00  0.00    -0.390 OA
ATOM     38  H10 KO1 d         -11.292  -1.273  73.795  0.00  0.00     0.210 HD
ENDBRANCH  18  37
BRANCH  20  39
ATOM     39  O3  KO1 d         -10.700  -2.230  70.135  0.00  0.00    -0.387 OA
ATOM     40  H12 KO1 d         -11.476  -2.698  70.422  0.00  0.00     0.210 HD
ENDBRANCH  20  39
ENDBRANCH  12  13
ENDBRANCH   3  12
BRANCH   4  41
ATOM     41  O5  KO1 d          -7.974   3.102  70.984  0.00  0.00    -0.390 OA
ATOM     42  H17 KO1 d          -8.103   3.582  71.794  0.00  0.00     0.210 HD
ENDBRANCH   4  41
BRANCH   1  43
ATOM     43  C1  KO1 d          -6.481   2.403  66.661  0.00  0.00     0.239 C 
ATOM     44  O1A KO1 d          -5.461   2.823  67.274  0.00  0.00    -0.644 OA
ATOM     45  O1B KO1 d          -6.455   1.607  65.664  0.00  0.00    -0.644 OA
ENDBRANCH   1  43
BRANCH   1  46
ATOM     46  O2  KO1 d          -8.715   3.390  66.122  0.00  0.00    -0.343 OA
BRANCH  46  47
ATOM     47  C9  KO1 d          -9.984   3.591  65.588  0.00  0.00     0.038 C 
ATOM     48  H24 KO1 d         -10.039   4.668  65.372  0.00  0.00     0.080 H 
ATOM     49  H25 KO1 d         -10.682   3.343  66.401  0.00  0.00     0.080 H 
BRANCH  47  50
ATOM     50  C10 KO1 d         -10.512   2.955  64.441  0.00  0.00    -0.089 C 
ATOM     51  C11 KO1 d          -9.727   2.257  63.508  0.00  0.00    -0.123 C 
ATOM     52  H27 KO1 d         -10.196   1.789  62.644  0.00  0.00     0.066 H 
ATOM     53  H28 KO1 d          -8.650   2.184  63.649  0.00  0.00     0.066 H 
ATOM     54  H26 KO1 d         -11.586   3.010  64.270  0.00  0.00     0.078 H 
ENDBRANCH  47  50
ENDBRANCH  46  47
ENDBRANCH   1  46
BRANCH   5  55
ATOM     55  C7  KO1 d          -8.076   5.877  69.808  0.00  0.00     0.083 C 
ATOM     56  H19 KO1 d          -8.441   6.751  69.248  0.00  0.00     0.090 H 
BRANCH  55  57
ATOM     57  O7  KO1 d          -6.632   5.930  69.811  0.00  0.00    -0.391 OA
ATOM     58  H20 KO1 d          -6.350   6.833  69.737  0.00  0.00     0.210 HD
ENDBRANCH  55  57
BRANCH  55  59
ATOM     59  C8  KO1 d          -8.613   6.012  71.264  0.00  0.00     0.043 C 
ATOM     60  H21 KO1 d          -9.451   5.312  71.399  0.00  0.00     0.078 H 
ATOM     61  H22 KO1 d          -8.968   7.042  71.418  0.00  0.00     0.078 H 
BRANCH  59  62
ATOM     62  O8  KO1 d          -7.594   5.717  72.254  0.00  0.00    -0.398 OA
ATOM     63  H23 KO1 d          -6.934   5.153  71.868  0.00  0.00     0.209 HD
ENDBRANCH  59  62
ENDBRANCH  55  59
ENDBRANCH   5  55
TORSDOF 19
ENDMDL
