MODEL 1
REMARK VINA RESULT:      -7.4      0.000      0.000
REMARK  13 active torsions:
REMARK  status: ('A' for Active; 'I' for Inactive)
REMARK    1  A    between atoms: C7_15  and  C1_1 
REMARK    2  A    between atoms: N1_2  and  C5_11 
REMARK    3  A    between atoms: C11_21  and  N1_2 
REMARK    4  A    between atoms: C17_27  and  O1_3 
REMARK    5  A    between atoms: C3_7  and  C19_29 
REMARK    6  A    between atoms: N8_18  and  C4_9 
REMARK    7  A    between atoms: C4_9  and  C16_26 
REMARK    8  A    between atoms: N8_18  and  C13_23 
REMARK    9  A    between atoms: C15_25  and  N8_18 
REMARK   10  A    between atoms: C13_23  and  C14_24 
REMARK   11  A    between atoms: C15_25  and  C17_27 
REMARK   12  A    between atoms: C15_25  and  C18_28 
REMARK   13  A    between atoms: C15_25  and  C20_30 
ROOT
ATOM      1  S1  EML d          -2.323  32.859  81.976  0.00  0.00     0.029 SA
ATOM      2  N6  EML d          -1.447  33.960  82.654  0.00  0.00    -0.212 NA
ATOM      3  C11 EML d          -2.092  33.342  80.329  0.00  0.00     0.096 A 
ATOM      4  C12 EML d          -1.234  34.446  80.394  0.00  0.00    -0.023 A 
ATOM      5  C14 EML d          -0.898  34.760  81.712  0.00  0.00     0.071 A 
ATOM      6  H11 EML d          -0.873  34.992  79.524  0.00  0.00     0.091 H 
ENDROOT
BRANCH   5   7
ATOM      7  C13 EML d           0.018  35.882  82.143  0.00  0.00     0.124 C 
ATOM      8  H12 EML d           1.045  35.487  82.146  0.00  0.00     0.086 H 
ATOM      9  H13 EML d          -0.064  36.683  81.392  0.00  0.00     0.086 H 
BRANCH   7  10
ATOM     10  N8  EML d          -0.235  36.504  83.501  0.00  0.00    -0.056 N 
ATOM     11  H8  EML d          -0.972  35.889  83.811  0.00  0.00     0.281 HD
BRANCH  10  12
ATOM     12  C4  EML d           0.767  36.216  84.531  0.00  0.00     0.082 C 
ATOM     13  H4  EML d           0.908  37.150  85.095  0.00  0.00     0.075 H 
ATOM     14  H5  EML d           1.696  35.966  83.998  0.00  0.00     0.075 H 
BRANCH  12  15
ATOM     15  C16 EML d           0.558  35.133  85.550  0.00  0.00    -0.053 C 
ATOM     16  H14 EML d           1.443  34.479  85.576  0.00  0.00     0.029 H 
ATOM     17  H15 EML d          -0.327  34.540  85.278  0.00  0.00     0.029 H 
ATOM     18  H16 EML d           0.407  35.586  86.540  0.00  0.00     0.029 H 
ENDBRANCH  12  15
ENDBRANCH  10  12
BRANCH  10  19
ATOM     19  C15 EML d          -0.955  37.790  83.630  0.00  0.00     0.142 C 
BRANCH  19  20
ATOM     20  C17 EML d          -2.449  37.592  83.976  0.00  0.00     0.047 C 
ATOM     21  H17 EML d          -2.709  38.251  84.818  0.00  0.00     0.077 H 
ATOM     22  H18 EML d          -3.056  37.861  83.099  0.00  0.00     0.077 H 
BRANCH  20  23
ATOM     23  O1  EML d          -2.740  36.230  84.343  0.00  0.00    -0.398 OA
ATOM     24  H2  EML d          -3.367  35.865  83.730  0.00  0.00     0.209 HD
ENDBRANCH  20  23
ENDBRANCH  19  20
BRANCH  19  25
ATOM     25  C18 EML d          -1.087  38.556  82.358  0.00  0.00    -0.043 C 
ATOM     26  H19 EML d          -0.223  39.227  82.243  0.00  0.00     0.030 H 
ATOM     27  H20 EML d          -2.012  39.149  82.381  0.00  0.00     0.030 H 
ATOM     28  H21 EML d          -1.122  37.855  81.511  0.00  0.00     0.030 H 
ENDBRANCH  19  25
BRANCH  19  29
ATOM     29  C20 EML d          -0.232  38.776  84.591  0.00  0.00    -0.043 C 
ATOM     30  H25 EML d           0.285  39.549  84.003  0.00  0.00     0.030 H 
ATOM     31  H26 EML d           0.501  38.225  85.197  0.00  0.00     0.030 H 
ATOM     32  H27 EML d          -0.971  39.252  85.252  0.00  0.00     0.030 H 
ENDBRANCH  19  29
ENDBRANCH  10  19
ENDBRANCH   7  10
ENDBRANCH   5   7
BRANCH   3  33
ATOM     33  N1  EML d          -2.650  32.762  79.188  0.00  0.00    -0.331 N 
ATOM     34  H1  EML d          -2.340  33.124  78.275  0.00  0.00     0.168 HD
BRANCH  33  35
ATOM     35  C5  EML d          -3.588  31.740  79.182  0.00  0.00     0.176 A 
ATOM     36  C6  EML d          -4.058  31.189  77.988  0.00  0.00     0.181 A 
ATOM     37  N2  EML d          -3.778  31.553  76.666  0.00  0.00    -0.237 NA
ATOM     38  N3  EML d          -4.979  30.184  78.055  0.00  0.00    -0.299 N 
ATOM     39  C9  EML d          -4.563  30.706  75.969  0.00  0.00     0.032 A 
ATOM     40  C7  EML d          -5.331  29.823  76.772  0.00  0.00     0.071 A 
ATOM     41  H9  EML d          -4.604  30.700  74.880  0.00  0.00     0.118 H 
ATOM     42  C2  EML d          -5.496  29.662  79.221  0.00  0.00     0.011 A 
ATOM     43  C3  EML d          -5.057  30.212  80.402  0.00  0.00     0.049 A 
ATOM     44  H3  EML d          -6.221  28.850  79.207  0.00  0.00     0.115 H 
ATOM     45  N7  EML d          -4.138  31.251  80.351  0.00  0.00    -0.231 NA
BRANCH  40  46
ATOM     46  C1  EML d          -6.371  28.805  76.342  0.00  0.00     0.029 A 
ATOM     47  C8  EML d          -6.219  27.923  75.276  0.00  0.00     0.035 A 
ATOM     48  N5  EML d          -7.362  27.207  75.264  0.00  0.00    -0.187 NA
ATOM     49  H7  EML d          -5.367  27.831  74.603  0.00  0.00     0.118 H 
ATOM     50  N4  EML d          -8.202  27.570  76.250  0.00  0.00    -0.289 N 
ATOM     51  C10 EML d          -7.642  28.561  76.946  0.00  0.00     0.009 A 
ATOM     52  H6  EML d          -9.125  27.152  76.438  0.00  0.00     0.188 HD
ATOM     53  H10 EML d          -8.068  29.081  77.802  0.00  0.00     0.115 H 
ENDBRANCH  40  46
BRANCH  43  54
ATOM     54  C19 EML d          -5.525  29.712  81.724  0.00  0.00    -0.034 C 
ATOM     55  H22 EML d          -5.350  28.627  81.789  0.00  0.00     0.035 H 
ATOM     56  H23 EML d          -6.600  29.916  81.834  0.00  0.00     0.035 H 
ATOM     57  H24 EML d          -4.971  30.221  82.527  0.00  0.00     0.035 H 
ENDBRANCH  43  54
ENDBRANCH  33  35
ENDBRANCH   3  33
TORSDOF 13
ENDMDL
MODEL 2
REMARK VINA RESULT:      -6.6      1.491      2.079
REMARK  13 active torsions:
REMARK  status: ('A' for Active; 'I' for Inactive)
REMARK    1  A    between atoms: C7_15  and  C1_1 
REMARK    2  A    between atoms: N1_2  and  C5_11 
REMARK    3  A    between atoms: C11_21  and  N1_2 
REMARK    4  A    between atoms: C17_27  and  O1_3 
REMARK    5  A    between atoms: C3_7  and  C19_29 
REMARK    6  A    between atoms: N8_18  and  C4_9 
REMARK    7  A    between atoms: C4_9  and  C16_26 
REMARK    8  A    between atoms: N8_18  and  C13_23 
REMARK    9  A    between atoms: C15_25  and  N8_18 
REMARK   10  A    between atoms: C13_23  and  C14_24 
REMARK   11  A    between atoms: C15_25  and  C17_27 
REMARK   12  A    between atoms: C15_25  and  C18_28 
REMARK   13  A    between atoms: C15_25  and  C20_30 
ROOT
ATOM      1  S1  EML d          -3.744  33.071  82.603  0.00  0.00     0.029 SA
ATOM      2  N6  EML d          -2.874  33.975  83.534  0.00  0.00    -0.212 NA
ATOM      3  C11 EML d          -2.704  33.074  81.218  0.00  0.00     0.096 A 
ATOM      4  C12 EML d          -1.601  33.847  81.597  0.00  0.00    -0.023 A 
ATOM      5  C14 EML d          -1.736  34.333  82.898  0.00  0.00     0.071 A 
ATOM      6  H11 EML d          -0.744  34.045  80.956  0.00  0.00     0.091 H 
ENDROOT
BRANCH   5   7
ATOM      7  C13 EML d          -0.724  35.188  83.627  0.00  0.00     0.124 C 
ATOM      8  H12 EML d          -1.044  35.255  84.677  0.00  0.00     0.086 H 
ATOM      9  H13 EML d           0.246  34.673  83.570  0.00  0.00     0.086 H 
BRANCH   7  10
ATOM     10  N8  EML d          -0.518  36.603  83.124  0.00  0.00    -0.056 N 
ATOM     11  H8  EML d          -1.015  36.524  82.251  0.00  0.00     0.281 HD
BRANCH  10  12
ATOM     12  C4  EML d          -1.332  37.635  83.772  0.00  0.00     0.082 C 
ATOM     13  H4  EML d          -1.025  38.594  83.329  0.00  0.00     0.075 H 
ATOM     14  H5  EML d          -1.060  37.620  84.838  0.00  0.00     0.075 H 
BRANCH  12  15
ATOM     15  C16 EML d          -2.831  37.604  83.716  0.00  0.00    -0.053 C 
ATOM     16  H14 EML d          -3.240  38.336  84.430  0.00  0.00     0.029 H 
ATOM     17  H15 EML d          -3.187  36.597  83.980  0.00  0.00     0.029 H 
ATOM     18  H16 EML d          -3.166  37.857  82.700  0.00  0.00     0.029 H 
ENDBRANCH  12  15
ENDBRANCH  10  12
BRANCH  10  19
ATOM     19  C15 EML d           0.792  37.040  82.591  0.00  0.00     0.142 C 
BRANCH  19  20
ATOM     20  C17 EML d           1.378  36.028  81.579  0.00  0.00     0.047 C 
ATOM     21  H17 EML d           2.341  35.660  81.962  0.00  0.00     0.077 H 
ATOM     22  H18 EML d           0.679  35.186  81.473  0.00  0.00     0.077 H 
BRANCH  20  23
ATOM     23  O1  EML d           1.590  36.623  80.284  0.00  0.00    -0.398 OA
ATOM     24  H2  EML d           2.509  36.561  80.055  0.00  0.00     0.209 HD
ENDBRANCH  20  23
ENDBRANCH  19  20
BRANCH  19  25
ATOM     25  C18 EML d           1.892  37.065  83.595  0.00  0.00    -0.043 C 
ATOM     26  H19 EML d           1.538  36.622  84.538  0.00  0.00     0.030 H 
ATOM     27  H20 EML d           2.203  38.105  83.772  0.00  0.00     0.030 H 
ATOM     28  H21 EML d           2.747  36.486  83.216  0.00  0.00     0.030 H 
ENDBRANCH  19  25
BRANCH  19  29
ATOM     29  C20 EML d           0.747  38.494  82.042  0.00  0.00    -0.043 C 
ATOM     30  H25 EML d           1.311  39.158  82.716  0.00  0.00     0.030 H 
ATOM     31  H26 EML d          -0.298  38.833  81.985  0.00  0.00     0.030 H 
ATOM     32  H27 EML d           1.198  38.522  81.039  0.00  0.00     0.030 H 
ENDBRANCH  19  29
ENDBRANCH  10  19
ENDBRANCH   7  10
ENDBRANCH   5   7
BRANCH   3  33
ATOM     33  N1  EML d          -2.926  32.450  79.988  0.00  0.00    -0.331 N 
ATOM     34  H1  EML d          -2.375  32.783  79.184  0.00  0.00     0.168 HD
BRANCH  33  35
ATOM     35  C5  EML d          -3.827  31.420  79.760  0.00  0.00     0.176 A 
ATOM     36  C6  EML d          -4.189  31.042  78.466  0.00  0.00     0.181 A 
ATOM     37  N2  EML d          -3.823  31.604  77.236  0.00  0.00    -0.237 NA
ATOM     38  N3  EML d          -5.079  30.018  78.313  0.00  0.00    -0.299 N 
ATOM     39  C9  EML d          -4.526  30.852  76.364  0.00  0.00     0.032 A 
ATOM     40  C7  EML d          -5.323  29.843  76.967  0.00  0.00     0.071 A 
ATOM     41  H9  EML d          -4.486  31.006  75.287  0.00  0.00     0.118 H 
ATOM     42  C2  EML d          -5.664  29.319  79.346  0.00  0.00     0.011 A 
ATOM     43  C3  EML d          -5.332  29.697  80.625  0.00  0.00     0.049 A 
ATOM     44  H3  EML d          -6.359  28.502  79.158  0.00  0.00     0.115 H 
ATOM     45  N7  EML d          -4.447  30.752  80.798  0.00  0.00    -0.231 NA
BRANCH  40  46
ATOM     46  C1  EML d          -6.294  28.878  76.313  0.00  0.00     0.029 A 
ATOM     47  C8  EML d          -5.983  28.056  75.234  0.00  0.00     0.035 A 
ATOM     48  N5  EML d          -7.120  27.371  74.993  0.00  0.00    -0.187 NA
ATOM     49  H7  EML d          -5.035  27.982  74.703  0.00  0.00     0.118 H 
ATOM     50  N4  EML d          -8.104  27.696  75.852  0.00  0.00    -0.289 N 
ATOM     51  C10 EML d          -7.649  28.631  76.688  0.00  0.00     0.009 A 
ATOM     52  H6  EML d          -9.051  27.291  75.861  0.00  0.00     0.188 HD
ATOM     53  H10 EML d          -8.202  29.110  77.494  0.00  0.00     0.115 H 
ENDBRANCH  40  46
BRANCH  43  54
ATOM     54  C19 EML d          -5.881  28.997  81.820  0.00  0.00    -0.034 C 
ATOM     55  H22 EML d          -6.129  27.959  81.554  0.00  0.00     0.035 H 
ATOM     56  H23 EML d          -6.789  29.514  82.163  0.00  0.00     0.035 H 
ATOM     57  H24 EML d          -5.130  29.000  82.624  0.00  0.00     0.035 H 
ENDBRANCH  43  54
ENDBRANCH  33  35
ENDBRANCH   3  33
TORSDOF 13
ENDMDL
MODEL 3
REMARK VINA RESULT:      -6.2      2.366      3.931
REMARK  13 active torsions:
REMARK  status: ('A' for Active; 'I' for Inactive)
REMARK    1  A    between atoms: C7_15  and  C1_1 
REMARK    2  A    between atoms: N1_2  and  C5_11 
REMARK    3  A    between atoms: C11_21  and  N1_2 
REMARK    4  A    between atoms: C17_27  and  O1_3 
REMARK    5  A    between atoms: C3_7  and  C19_29 
REMARK    6  A    between atoms: N8_18  and  C4_9 
REMARK    7  A    between atoms: C4_9  and  C16_26 
REMARK    8  A    between atoms: N8_18  and  C13_23 
REMARK    9  A    between atoms: C15_25  and  N8_18 
REMARK   10  A    between atoms: C13_23  and  C14_24 
REMARK   11  A    between atoms: C15_25  and  C17_27 
REMARK   12  A    between atoms: C15_25  and  C18_28 
REMARK   13  A    between atoms: C15_25  and  C20_30 
ROOT
ATOM      1  S1  EML d          -2.012  32.440  85.158  0.00  0.00     0.029 SA
ATOM      2  N6  EML d          -1.071  33.686  85.135  0.00  0.00    -0.212 NA
ATOM      3  C11 EML d          -3.522  33.269  84.976  0.00  0.00     0.096 A 
ATOM      4  C12 EML d          -3.180  34.622  84.876  0.00  0.00    -0.023 A 
ATOM      5  C14 EML d          -1.801  34.814  84.971  0.00  0.00     0.071 A 
ATOM      6  H11 EML d          -3.901  35.427  84.741  0.00  0.00     0.091 H 
ENDROOT
BRANCH   5   7
ATOM      7  C13 EML d          -1.089  36.144  84.889  0.00  0.00     0.124 C 
ATOM      8  H12 EML d          -1.628  36.848  85.540  0.00  0.00     0.086 H 
ATOM      9  H13 EML d          -0.068  35.997  85.272  0.00  0.00     0.086 H 
BRANCH   7  10
ATOM     10  N8  EML d          -0.974  36.788  83.522  0.00  0.00    -0.056 N 
ATOM     11  H8  EML d          -1.563  36.151  83.007  0.00  0.00     0.281 HD
BRANCH  10  12
ATOM     12  C4  EML d          -1.735  38.025  83.332  0.00  0.00     0.082 C 
ATOM     13  H4  EML d          -2.018  38.055  82.270  0.00  0.00     0.075 H 
ATOM     14  H5  EML d          -1.042  38.852  83.551  0.00  0.00     0.075 H 
BRANCH  12  15
ATOM     15  C16 EML d          -2.987  38.306  84.112  0.00  0.00    -0.053 C 
ATOM     16  H14 EML d          -3.747  38.735  83.443  0.00  0.00     0.029 H 
ATOM     17  H15 EML d          -2.764  39.019  84.919  0.00  0.00     0.029 H 
ATOM     18  H16 EML d          -3.367  37.369  84.545  0.00  0.00     0.029 H 
ENDBRANCH  12  15
ENDBRANCH  10  12
BRANCH  10  19
ATOM     19  C15 EML d           0.258  36.646  82.713  0.00  0.00     0.142 C 
BRANCH  19  20
ATOM     20  C17 EML d           0.104  35.593  81.592  0.00  0.00     0.047 C 
ATOM     21  H17 EML d           0.812  35.827  80.784  0.00  0.00     0.077 H 
ATOM     22  H18 EML d           0.333  34.599  82.004  0.00  0.00     0.077 H 
BRANCH  20  23
ATOM     23  O1  EML d          -1.230  35.575  81.050  0.00  0.00    -0.398 OA
ATOM     24  H2  EML d          -1.498  36.462  80.840  0.00  0.00     0.209 HD
ENDBRANCH  20  23
ENDBRANCH  19  20
BRANCH  19  25
ATOM     25  C18 EML d           1.418  36.069  83.449  0.00  0.00    -0.043 C 
ATOM     26  H19 EML d           2.282  36.744  83.358  0.00  0.00     0.030 H 
ATOM     27  H20 EML d           1.673  35.089  83.021  0.00  0.00     0.030 H 
ATOM     28  H21 EML d           1.156  35.950  84.510  0.00  0.00     0.030 H 
ENDBRANCH  19  25
BRANCH  19  29
ATOM     29  C20 EML d           0.782  38.015  82.195  0.00  0.00    -0.043 C 
ATOM     30  H25 EML d           0.611  38.087  81.111  0.00  0.00     0.030 H 
ATOM     31  H26 EML d           1.859  38.098  82.403  0.00  0.00     0.030 H 
ATOM     32  H27 EML d           0.246  38.830  82.705  0.00  0.00     0.030 H 
ENDBRANCH  19  29
ENDBRANCH  10  19
ENDBRANCH   7  10
ENDBRANCH   5   7
BRANCH   3  33
ATOM     33  N1  EML d          -4.801  32.708  84.948  0.00  0.00    -0.331 N 
ATOM     34  H1  EML d          -5.479  33.045  85.646  0.00  0.00     0.168 HD
BRANCH  33  35
ATOM     35  C5  EML d          -5.232  31.735  84.059  0.00  0.00     0.176 A 
ATOM     36  C6  EML d          -4.872  31.769  82.710  0.00  0.00     0.181 A 
ATOM     37  N2  EML d          -4.135  32.730  82.007  0.00  0.00    -0.237 NA
ATOM     38  N3  EML d          -5.328  30.778  81.890  0.00  0.00    -0.299 N 
ATOM     39  C9  EML d          -4.171  32.246  80.749  0.00  0.00     0.032 A 
ATOM     40  C7  EML d          -4.891  31.031  80.607  0.00  0.00     0.071 A 
ATOM     41  H9  EML d          -3.687  32.746  79.910  0.00  0.00     0.118 H 
ATOM     42  C2  EML d          -6.134  29.733  82.287  0.00  0.00     0.011 A 
ATOM     43  C3  EML d          -6.512  29.701  83.608  0.00  0.00     0.049 A 
ATOM     44  H3  EML d          -6.455  28.965  81.585  0.00  0.00     0.115 H 
ATOM     45  N7  EML d          -6.076  30.714  84.450  0.00  0.00    -0.231 NA
BRANCH  40  46
ATOM     46  C1  EML d          -5.206  30.251  79.344  0.00  0.00     0.029 A 
ATOM     47  C8  EML d          -4.410  30.243  78.202  0.00  0.00     0.035 A 
ATOM     48  N5  EML d          -5.055  29.422  77.348  0.00  0.00    -0.187 NA
ATOM     49  H7  EML d          -3.476  30.777  78.037  0.00  0.00     0.118 H 
ATOM     50  N4  EML d          -6.180  28.912  77.880  0.00  0.00    -0.289 N 
ATOM     51  C10 EML d          -6.327  29.397  79.114  0.00  0.00     0.009 A 
ATOM     52  H6  EML d          -6.822  28.256  77.412  0.00  0.00     0.188 HD
ATOM     53  H10 EML d          -7.140  29.185  79.807  0.00  0.00     0.115 H 
ENDBRANCH  40  46
BRANCH  43  54
ATOM     54  C19 EML d          -7.359  28.605  84.157  0.00  0.00    -0.034 C 
ATOM     55  H22 EML d          -7.154  28.486  85.231  0.00  0.00     0.035 H 
ATOM     56  H23 EML d          -7.127  27.665  83.634  0.00  0.00     0.035 H 
ATOM     57  H24 EML d          -8.421  28.854  84.012  0.00  0.00     0.035 H 
ENDBRANCH  43  54
ENDBRANCH  33  35
ENDBRANCH   3  33
TORSDOF 13
ENDMDL
MODEL 4
REMARK VINA RESULT:      -6.0      2.281      3.912
REMARK  13 active torsions:
REMARK  status: ('A' for Active; 'I' for Inactive)
REMARK    1  A    between atoms: C7_15  and  C1_1 
REMARK    2  A    between atoms: N1_2  and  C5_11 
REMARK    3  A    between atoms: C11_21  and  N1_2 
REMARK    4  A    between atoms: C17_27  and  O1_3 
REMARK    5  A    between atoms: C3_7  and  C19_29 
REMARK    6  A    between atoms: N8_18  and  C4_9 
REMARK    7  A    between atoms: C4_9  and  C16_26 
REMARK    8  A    between atoms: N8_18  and  C13_23 
REMARK    9  A    between atoms: C15_25  and  N8_18 
REMARK   10  A    between atoms: C13_23  and  C14_24 
REMARK   11  A    between atoms: C15_25  and  C17_27 
REMARK   12  A    between atoms: C15_25  and  C18_28 
REMARK   13  A    between atoms: C15_25  and  C20_30 
ROOT
ATOM      1  S1  EML d          -3.536  35.773  83.951  0.00  0.00     0.029 SA
ATOM      2  N6  EML d          -2.681  37.076  83.847  0.00  0.00    -0.212 NA
ATOM      3  C11 EML d          -2.246  34.623  83.838  0.00  0.00     0.096 A 
ATOM      4  C12 EML d          -1.083  35.396  83.731  0.00  0.00    -0.023 A 
ATOM      5  C14 EML d          -1.370  36.761  83.739  0.00  0.00     0.071 A 
ATOM      6  H11 EML d          -0.079  34.982  83.653  0.00  0.00     0.091 H 
ENDROOT
BRANCH   5   7
ATOM      7  C13 EML d          -0.351  37.875  83.656  0.00  0.00     0.124 C 
ATOM      8  H12 EML d          -0.827  38.787  84.044  0.00  0.00     0.086 H 
ATOM      9  H13 EML d           0.495  37.598  84.303  0.00  0.00     0.086 H 
BRANCH   7  10
ATOM     10  N8  EML d           0.211  38.202  82.287  0.00  0.00    -0.056 N 
ATOM     11  H8  EML d          -0.275  37.498  81.754  0.00  0.00     0.281 HD
BRANCH  10  12
ATOM     12  C4  EML d          -0.328  39.404  81.647  0.00  0.00     0.082 C 
ATOM     13  H4  EML d          -0.838  39.065  80.733  0.00  0.00     0.075 H 
ATOM     14  H5  EML d           0.539  40.025  81.373  0.00  0.00     0.075 H 
BRANCH  12  15
ATOM     15  C16 EML d          -1.290  40.310  82.358  0.00  0.00    -0.053 C 
ATOM     16  H14 EML d          -0.728  41.056  82.941  0.00  0.00     0.029 H 
ATOM     17  H15 EML d          -1.921  39.716  83.035  0.00  0.00     0.029 H 
ATOM     18  H16 EML d          -1.924  40.823  81.621  0.00  0.00     0.029 H 
ENDBRANCH  12  15
ENDBRANCH  10  12
BRANCH  10  19
ATOM     19  C15 EML d           1.598  37.831  81.923  0.00  0.00     0.142 C 
BRANCH  19  20
ATOM     20  C17 EML d           1.720  36.342  81.525  0.00  0.00     0.047 C 
ATOM     21  H17 EML d           2.681  36.189  81.014  0.00  0.00     0.077 H 
ATOM     22  H18 EML d           1.687  35.727  82.436  0.00  0.00     0.077 H 
BRANCH  20  23
ATOM     23  O1  EML d           0.655  35.931  80.648  0.00  0.00    -0.398 OA
ATOM     24  H2  EML d           0.870  35.090  80.262  0.00  0.00     0.209 HD
ENDBRANCH  20  23
ENDBRANCH  19  20
BRANCH  19  25
ATOM     25  C18 EML d           2.567  37.875  83.054  0.00  0.00    -0.043 C 
ATOM     26  H19 EML d           2.043  37.651  83.995  0.00  0.00     0.030 H 
ATOM     27  H20 EML d           3.017  38.877  83.114  0.00  0.00     0.030 H 
ATOM     28  H21 EML d           3.357  37.128  82.888  0.00  0.00     0.030 H 
ENDBRANCH  19  25
BRANCH  19  29
ATOM     29  C20 EML d           2.207  38.797  80.867  0.00  0.00    -0.043 C 
ATOM     30  H25 EML d           2.442  39.761  81.344  0.00  0.00     0.030 H 
ATOM     31  H26 EML d           1.482  38.956  80.056  0.00  0.00     0.030 H 
ATOM     32  H27 EML d           3.127  38.357  80.456  0.00  0.00     0.030 H 
ENDBRANCH  19  29
ENDBRANCH  10  19
ENDBRANCH   7  10
ENDBRANCH   5   7
BRANCH   3  33
ATOM     33  N1  EML d          -2.347  33.231  83.839  0.00  0.00    -0.331 N 
ATOM     34  H1  EML d          -1.751  32.715  84.502  0.00  0.00     0.168 HD
BRANCH  33  35
ATOM     35  C5  EML d          -3.183  32.485  83.021  0.00  0.00     0.176 A 
ATOM     36  C6  EML d          -2.949  32.371  81.649  0.00  0.00     0.181 A 
ATOM     37  N2  EML d          -1.967  32.980  80.858  0.00  0.00    -0.237 NA
ATOM     38  N3  EML d          -3.809  31.620  80.903  0.00  0.00    -0.299 N 
ATOM     39  C9  EML d          -2.285  32.536  79.625  0.00  0.00     0.032 A 
ATOM     40  C7  EML d          -3.417  31.680  79.583  0.00  0.00     0.071 A 
ATOM     41  H9  EML d          -1.721  32.811  78.735  0.00  0.00     0.118 H 
ATOM     42  C2  EML d          -4.912  30.957  81.398  0.00  0.00     0.011 A 
ATOM     43  C3  EML d          -5.164  31.079  82.743  0.00  0.00     0.049 A 
ATOM     44  H3  EML d          -5.555  30.361  80.751  0.00  0.00     0.115 H 
ATOM     45  N7  EML d          -4.313  31.860  83.512  0.00  0.00    -0.231 NA
BRANCH  40  46
ATOM     46  C1  EML d          -4.105  31.067  78.377  0.00  0.00     0.029 A 
ATOM     47  C8  EML d          -4.071  31.603  77.092  0.00  0.00     0.035 A 
ATOM     48  N5  EML d          -4.793  30.740  76.348  0.00  0.00    -0.187 NA
ATOM     49  H7  EML d          -3.573  32.513  76.762  0.00  0.00     0.118 H 
ATOM     50  N4  EML d          -5.257  29.705  77.072  0.00  0.00    -0.289 N 
ATOM     51  C10 EML d          -4.866  29.860  78.338  0.00  0.00     0.009 A 
ATOM     52  H6  EML d          -5.821  28.923  76.709  0.00  0.00     0.188 HD
ATOM     53  H10 EML d          -5.084  29.198  79.175  0.00  0.00     0.115 H 
ENDBRANCH  40  46
BRANCH  43  54
ATOM     54  C19 EML d          -6.311  30.386  83.394  0.00  0.00    -0.034 C 
ATOM     55  H22 EML d          -7.098  31.118  83.626  0.00  0.00     0.035 H 
ATOM     56  H23 EML d          -5.970  29.907  84.324  0.00  0.00     0.035 H 
ATOM     57  H24 EML d          -6.712  29.621  82.713  0.00  0.00     0.035 H 
ENDBRANCH  43  54
ENDBRANCH  33  35
ENDBRANCH   3  33
TORSDOF 13
ENDMDL
MODEL 5
REMARK VINA RESULT:      -5.5      1.883      2.601
REMARK  13 active torsions:
REMARK  status: ('A' for Active; 'I' for Inactive)
REMARK    1  A    between atoms: C7_15  and  C1_1 
REMARK    2  A    between atoms: N1_2  and  C5_11 
REMARK    3  A    between atoms: C11_21  and  N1_2 
REMARK    4  A    between atoms: C17_27  and  O1_3 
REMARK    5  A    between atoms: C3_7  and  C19_29 
REMARK    6  A    between atoms: N8_18  and  C4_9 
REMARK    7  A    between atoms: C4_9  and  C16_26 
REMARK    8  A    between atoms: N8_18  and  C13_23 
REMARK    9  A    between atoms: C15_25  and  N8_18 
REMARK   10  A    between atoms: C13_23  and  C14_24 
REMARK   11  A    between atoms: C15_25  and  C17_27 
REMARK   12  A    between atoms: C15_25  and  C18_28 
REMARK   13  A    between atoms: C15_25  and  C20_30 
ROOT
ATOM      1  S1  EML d          -3.207  34.022  84.514  0.00  0.00     0.029 SA
ATOM      2  N6  EML d          -3.051  35.492  85.015  0.00  0.00    -0.212 NA
ATOM      3  C11 EML d          -2.471  34.214  82.958  0.00  0.00     0.096 A 
ATOM      4  C12 EML d          -2.080  35.556  82.908  0.00  0.00    -0.023 A 
ATOM      5  C14 EML d          -2.423  36.237  84.076  0.00  0.00     0.071 A 
ATOM      6  H11 EML d          -1.571  36.013  82.061  0.00  0.00     0.091 H 
ENDROOT
BRANCH   5   7
ATOM      7  C13 EML d          -2.137  37.693  84.363  0.00  0.00     0.124 C 
ATOM      8  H12 EML d          -2.479  38.274  83.494  0.00  0.00     0.086 H 
ATOM      9  H13 EML d          -2.725  37.977  85.249  0.00  0.00     0.086 H 
BRANCH   7  10
ATOM     10  N8  EML d          -0.697  38.079  84.630  0.00  0.00    -0.056 N 
ATOM     11  H8  EML d          -0.837  38.600  85.482  0.00  0.00     0.281 HD
BRANCH  10  12
ATOM     12  C4  EML d           0.166  37.011  85.141  0.00  0.00     0.082 C 
ATOM     13  H4  EML d           1.162  37.184  84.707  0.00  0.00     0.075 H 
ATOM     14  H5  EML d          -0.245  36.068  84.752  0.00  0.00     0.075 H 
BRANCH  12  15
ATOM     15  C16 EML d           0.376  36.807  86.613  0.00  0.00    -0.053 C 
ATOM     16  H14 EML d          -0.047  35.835  86.912  0.00  0.00     0.029 H 
ATOM     17  H15 EML d          -0.126  37.611  87.170  0.00  0.00     0.029 H 
ATOM     18  H16 EML d           1.452  36.822  86.836  0.00  0.00     0.029 H 
ENDBRANCH  12  15
ENDBRANCH  10  12
BRANCH  10  19
ATOM     19  C15 EML d          -0.030  39.137  83.836  0.00  0.00     0.142 C 
BRANCH  19  20
ATOM     20  C17 EML d          -0.874  39.570  82.615  0.00  0.00     0.047 C 
ATOM     21  H17 EML d          -1.899  39.191  82.738  0.00  0.00     0.077 H 
ATOM     22  H18 EML d          -0.893  40.669  82.569  0.00  0.00     0.077 H 
BRANCH  20  23
ATOM     23  O1  EML d          -0.334  39.062  81.381  0.00  0.00    -0.398 OA
ATOM     24  H2  EML d           0.467  39.527  81.171  0.00  0.00     0.209 HD
ENDBRANCH  20  23
ENDBRANCH  19  20
BRANCH  19  25
ATOM     25  C18 EML d           1.215  38.700  83.146  0.00  0.00    -0.043 C 
ATOM     26  H19 EML d           1.183  39.019  82.093  0.00  0.00     0.030 H 
ATOM     27  H20 EML d           1.296  37.604  83.194  0.00  0.00     0.030 H 
ATOM     28  H21 EML d           2.087  39.153  83.640  0.00  0.00     0.030 H 
ENDBRANCH  19  25
BRANCH  19  29
ATOM     29  C20 EML d           0.427  40.333  84.718  0.00  0.00    -0.043 C 
ATOM     30  H25 EML d           1.380  40.728  84.336  0.00  0.00     0.030 H 
ATOM     31  H26 EML d           0.560  39.994  85.756  0.00  0.00     0.030 H 
ATOM     32  H27 EML d          -0.336  41.125  84.686  0.00  0.00     0.030 H 
ENDBRANCH  19  29
ENDBRANCH  10  19
ENDBRANCH   7  10
ENDBRANCH   5   7
BRANCH   3  33
ATOM     33  N1  EML d          -2.315  33.242  81.967  0.00  0.00    -0.331 N 
ATOM     34  H1  EML d          -1.412  33.213  81.472  0.00  0.00     0.168 HD
BRANCH  33  35
ATOM     35  C5  EML d          -3.276  32.313  81.593  0.00  0.00     0.176 A 
ATOM     36  C6  EML d          -3.401  31.887  80.269  0.00  0.00     0.181 A 
ATOM     37  N2  EML d          -2.711  32.310  79.126  0.00  0.00    -0.237 NA
ATOM     38  N3  EML d          -4.365  30.969  79.971  0.00  0.00    -0.299 N 
ATOM     39  C9  EML d          -3.305  31.586  78.156  0.00  0.00     0.032 A 
ATOM     40  C7  EML d          -4.338  30.726  78.614  0.00  0.00     0.071 A 
ATOM     41  H9  EML d          -3.017  31.654  77.108  0.00  0.00     0.118 H 
ATOM     42  C2  EML d          -5.244  30.423  80.880  0.00  0.00     0.011 A 
ATOM     43  C3  EML d          -5.145  30.851  82.183  0.00  0.00     0.049 A 
ATOM     44  H3  EML d          -5.986  29.683  80.581  0.00  0.00     0.115 H 
ATOM     45  N7  EML d          -4.185  31.803  82.498  0.00  0.00    -0.231 NA
BRANCH  40  46
ATOM     46  C1  EML d          -5.267  29.839  77.807  0.00  0.00     0.029 A 
ATOM     47  C8  EML d          -6.231  28.998  78.356  0.00  0.00     0.035 A 
ATOM     48  N5  EML d          -6.821  28.419  77.290  0.00  0.00    -0.187 NA
ATOM     49  H7  EML d          -6.458  28.842  79.410  0.00  0.00     0.118 H 
ATOM     50  N4  EML d          -6.306  28.850  76.124  0.00  0.00    -0.289 N 
ATOM     51  C10 EML d          -5.335  29.727  76.385  0.00  0.00     0.009 A 
ATOM     52  H6  EML d          -6.610  28.552  75.186  0.00  0.00     0.188 HD
ATOM     53  H10 EML d          -4.716  30.252  75.658  0.00  0.00     0.115 H 
ENDBRANCH  40  46
BRANCH  43  54
ATOM     54  C19 EML d          -6.023  30.311  83.257  0.00  0.00    -0.034 C 
ATOM     55  H22 EML d          -6.545  31.141  83.756  0.00  0.00     0.035 H 
ATOM     56  H23 EML d          -5.412  29.768  83.993  0.00  0.00     0.035 H 
ATOM     57  H24 EML d          -6.763  29.626  82.817  0.00  0.00     0.035 H 
ENDBRANCH  43  54
ENDBRANCH  33  35
ENDBRANCH   3  33
TORSDOF 13
ENDMDL
MODEL 6
REMARK VINA RESULT:      -5.2      2.896      5.165
REMARK  13 active torsions:
REMARK  status: ('A' for Active; 'I' for Inactive)
REMARK    1  A    between atoms: C7_15  and  C1_1 
REMARK    2  A    between atoms: N1_2  and  C5_11 
REMARK    3  A    between atoms: C11_21  and  N1_2 
REMARK    4  A    between atoms: C17_27  and  O1_3 
REMARK    5  A    between atoms: C3_7  and  C19_29 
REMARK    6  A    between atoms: N8_18  and  C4_9 
REMARK    7  A    between atoms: C4_9  and  C16_26 
REMARK    8  A    between atoms: N8_18  and  C13_23 
REMARK    9  A    between atoms: C15_25  and  N8_18 
REMARK   10  A    between atoms: C13_23  and  C14_24 
REMARK   11  A    between atoms: C15_25  and  C17_27 
REMARK   12  A    between atoms: C15_25  and  C18_28 
REMARK   13  A    between atoms: C15_25  and  C20_30 
ROOT
ATOM      1  S1  EML d          -0.694  33.265  80.084  0.00  0.00     0.029 SA
ATOM      2  N6  EML d           0.204  34.149  81.005  0.00  0.00    -0.212 NA
ATOM      3  C11 EML d          -2.233  33.704  80.746  0.00  0.00     0.096 A 
ATOM      4  C12 EML d          -1.940  34.634  81.750  0.00  0.00    -0.023 A 
ATOM      5  C14 EML d          -0.567  34.855  81.864  0.00  0.00     0.071 A 
ATOM      6  H11 EML d          -2.692  35.126  82.366  0.00  0.00     0.091 H 
ENDROOT
BRANCH   5   7
ATOM      7  C13 EML d           0.094  35.807  82.834  0.00  0.00     0.124 C 
ATOM      8  H12 EML d           0.903  35.256  83.337  0.00  0.00     0.086 H 
ATOM      9  H13 EML d           0.521  36.633  82.247  0.00  0.00     0.086 H 
BRANCH   7  10
ATOM     10  N8  EML d          -0.778  36.418  83.912  0.00  0.00    -0.056 N 
ATOM     11  H8  EML d          -1.661  36.019  83.634  0.00  0.00     0.281 HD
BRANCH  10  12
ATOM     12  C4  EML d          -0.655  35.823  85.245  0.00  0.00     0.082 C 
ATOM     13  H4  EML d          -1.458  36.262  85.855  0.00  0.00     0.075 H 
ATOM     14  H5  EML d           0.321  36.144  85.639  0.00  0.00     0.075 H 
BRANCH  12  15
ATOM     15  C16 EML d          -0.728  34.339  85.454  0.00  0.00    -0.053 C 
ATOM     16  H14 EML d           0.069  33.847  84.877  0.00  0.00     0.029 H 
ATOM     17  H15 EML d          -1.707  33.969  85.115  0.00  0.00     0.029 H 
ATOM     18  H16 EML d          -0.600  34.112  86.522  0.00  0.00     0.029 H 
ENDBRANCH  12  15
ENDBRANCH  10  12
BRANCH  10  19
ATOM     19  C15 EML d          -1.161  37.847  83.865  0.00  0.00     0.142 C 
BRANCH  19  20
ATOM     20  C17 EML d          -2.619  38.077  84.323  0.00  0.00     0.047 C 
ATOM     21  H17 EML d          -2.715  37.765  85.373  0.00  0.00     0.077 H 
ATOM     22  H18 EML d          -2.854  39.149  84.237  0.00  0.00     0.077 H 
BRANCH  20  23
ATOM     23  O1  EML d          -3.558  37.330  83.527  0.00  0.00    -0.398 OA
ATOM     24  H2  EML d          -3.980  36.674  84.069  0.00  0.00     0.209 HD
ENDBRANCH  20  23
ENDBRANCH  19  20
BRANCH  19  25
ATOM     25  C18 EML d          -1.228  38.425  82.493  0.00  0.00    -0.043 C 
ATOM     26  H19 EML d          -2.133  38.059  81.986  0.00  0.00     0.030 H 
ATOM     27  H20 EML d          -0.339  38.119  81.923  0.00  0.00     0.030 H 
ATOM     28  H21 EML d          -1.262  39.522  82.559  0.00  0.00     0.030 H 
ENDBRANCH  19  25
BRANCH  19  29
ATOM     29  C20 EML d          -0.138  38.754  84.606  0.00  0.00    -0.043 C 
ATOM     30  H25 EML d          -0.203  39.779  84.212  0.00  0.00     0.030 H 
ATOM     31  H26 EML d           0.879  38.365  84.450  0.00  0.00     0.030 H 
ATOM     32  H27 EML d          -0.367  38.761  85.682  0.00  0.00     0.030 H 
ENDBRANCH  19  29
ENDBRANCH  10  19
ENDBRANCH   7  10
ENDBRANCH   5   7
BRANCH   3  33
ATOM     33  N1  EML d          -3.489  33.224  80.369  0.00  0.00    -0.331 N 
ATOM     34  H1  EML d          -3.935  33.663  79.551  0.00  0.00     0.168 HD
BRANCH  33  35
ATOM     35  C5  EML d          -4.184  32.205  81.004  0.00  0.00     0.176 A 
ATOM     36  C6  EML d          -4.691  32.364  82.295  0.00  0.00     0.181 A 
ATOM     37  N2  EML d          -4.563  33.443  83.178  0.00  0.00    -0.237 NA
ATOM     38  N3  EML d          -5.368  31.323  82.860  0.00  0.00    -0.299 N 
ATOM     39  C9  EML d          -5.208  32.989  84.272  0.00  0.00     0.032 A 
ATOM     40  C7  EML d          -5.738  31.679  84.139  0.00  0.00     0.071 A 
ATOM     41  H9  EML d          -5.313  33.578  85.182  0.00  0.00     0.118 H 
ATOM     42  C2  EML d          -5.591  30.105  82.255  0.00  0.00     0.011 A 
ATOM     43  C3  EML d          -5.078  29.929  80.992  0.00  0.00     0.049 A 
ATOM     44  H3  EML d          -6.151  29.316  82.756  0.00  0.00     0.115 H 
ATOM     45  N7  EML d          -4.366  30.970  80.413  0.00  0.00    -0.231 NA
BRANCH  40  46
ATOM     46  C1  EML d          -6.443  30.827  85.178  0.00  0.00     0.029 A 
ATOM     47  C8  EML d          -7.710  31.093  85.691  0.00  0.00     0.035 A 
ATOM     48  N5  EML d          -7.939  30.088  86.561  0.00  0.00    -0.187 NA
ATOM     49  H7  EML d          -8.367  31.924  85.444  0.00  0.00     0.118 H 
ATOM     50  N4  EML d          -6.918  29.214  86.613  0.00  0.00    -0.289 N 
ATOM     51  C10 EML d          -5.960  29.626  85.781  0.00  0.00     0.009 A 
ATOM     52  H6  EML d          -6.881  28.367  87.199  0.00  0.00     0.188 HD
ATOM     53  H10 EML d          -5.001  29.144  85.599  0.00  0.00     0.115 H 
ENDBRANCH  40  46
BRANCH  43  54
ATOM     54  C19 EML d          -5.280  28.666  80.230  0.00  0.00    -0.034 C 
ATOM     55  H22 EML d          -4.473  28.550  79.491  0.00  0.00     0.035 H 
ATOM     56  H23 EML d          -6.249  28.701  79.712  0.00  0.00     0.035 H 
ATOM     57  H24 EML d          -5.266  27.812  80.924  0.00  0.00     0.035 H 
ENDBRANCH  43  54
ENDBRANCH  33  35
ENDBRANCH   3  33
TORSDOF 13
ENDMDL
MODEL 7
REMARK VINA RESULT:      -5.2      1.930      3.093
REMARK  13 active torsions:
REMARK  status: ('A' for Active; 'I' for Inactive)
REMARK    1  A    between atoms: C7_15  and  C1_1 
REMARK    2  A    between atoms: N1_2  and  C5_11 
REMARK    3  A    between atoms: C11_21  and  N1_2 
REMARK    4  A    between atoms: C17_27  and  O1_3 
REMARK    5  A    between atoms: C3_7  and  C19_29 
REMARK    6  A    between atoms: N8_18  and  C4_9 
REMARK    7  A    between atoms: C4_9  and  C16_26 
REMARK    8  A    between atoms: N8_18  and  C13_23 
REMARK    9  A    between atoms: C15_25  and  N8_18 
REMARK   10  A    between atoms: C13_23  and  C14_24 
REMARK   11  A    between atoms: C15_25  and  C17_27 
REMARK   12  A    between atoms: C15_25  and  C18_28 
REMARK   13  A    between atoms: C15_25  and  C20_30 
ROOT
ATOM      1  S1  EML d          -3.092  33.670  84.922  0.00  0.00     0.029 SA
ATOM      2  N6  EML d          -3.127  35.166  85.368  0.00  0.00    -0.212 NA
ATOM      3  C11 EML d          -2.434  33.901  83.337  0.00  0.00     0.096 A 
ATOM      4  C12 EML d          -2.233  35.282  83.228  0.00  0.00    -0.023 A 
ATOM      5  C14 EML d          -2.635  35.953  84.384  0.00  0.00     0.071 A 
ATOM      6  H11 EML d          -1.816  35.772  82.350  0.00  0.00     0.091 H 
ENDROOT
BRANCH   5   7
ATOM      7  C13 EML d          -2.544  37.445  84.611  0.00  0.00     0.124 C 
ATOM      8  H12 EML d          -3.266  37.926  83.935  0.00  0.00     0.086 H 
ATOM      9  H13 EML d          -2.834  37.637  85.655  0.00  0.00     0.086 H 
BRANCH   7  10
ATOM     10  N8  EML d          -1.199  38.103  84.384  0.00  0.00    -0.056 N 
ATOM     11  H8  EML d          -0.916  37.584  83.567  0.00  0.00     0.281 HD
BRANCH  10  12
ATOM     12  C4  EML d          -1.236  39.451  83.812  0.00  0.00     0.082 C 
ATOM     13  H4  EML d          -0.353  39.977  84.203  0.00  0.00     0.075 H 
ATOM     14  H5  EML d          -2.149  39.927  84.200  0.00  0.00     0.075 H 
BRANCH  12  15
ATOM     15  C16 EML d          -1.240  39.675  82.327  0.00  0.00    -0.053 C 
ATOM     16  H14 EML d          -2.204  40.111  82.025  0.00  0.00     0.029 H 
ATOM     17  H15 EML d          -1.094  38.715  81.811  0.00  0.00     0.029 H 
ATOM     18  H16 EML d          -0.426  40.364  82.059  0.00  0.00     0.029 H 
ENDBRANCH  12  15
ENDBRANCH  10  12
BRANCH  10  19
ATOM     19  C15 EML d          -0.040  37.791  85.251  0.00  0.00     0.142 C 
BRANCH  19  20
ATOM     20  C17 EML d           0.822  36.640  84.684  0.00  0.00     0.047 C 
ATOM     21  H17 EML d           0.464  36.391  83.675  0.00  0.00     0.077 H 
ATOM     22  H18 EML d           1.869  36.974  84.629  0.00  0.00     0.077 H 
BRANCH  20  23
ATOM     23  O1  EML d           0.753  35.460  85.507  0.00  0.00    -0.398 OA
ATOM     24  H2  EML d           1.329  35.563  86.256  0.00  0.00     0.209 HD
ENDBRANCH  20  23
ENDBRANCH  19  20
BRANCH  19  25
ATOM     25  C18 EML d          -0.398  37.214  86.578  0.00  0.00    -0.043 C 
ATOM     26  H19 EML d          -0.535  38.027  87.306  0.00  0.00     0.030 H 
ATOM     27  H20 EML d           0.409  36.549  86.918  0.00  0.00     0.030 H 
ATOM     28  H21 EML d          -1.332  36.641  86.488  0.00  0.00     0.030 H 
ENDBRANCH  19  25
BRANCH  19  29
ATOM     29  C20 EML d           0.789  39.059  85.602  0.00  0.00    -0.043 C 
ATOM     30  H25 EML d           1.253  38.932  86.592  0.00  0.00     0.030 H 
ATOM     31  H26 EML d           0.128  39.937  85.618  0.00  0.00     0.030 H 
ATOM     32  H27 EML d           1.575  39.204  84.846  0.00  0.00     0.030 H 
ENDBRANCH  19  29
ENDBRANCH  10  19
ENDBRANCH   7  10
ENDBRANCH   5   7
BRANCH   3  33
ATOM     33  N1  EML d          -2.173  32.923  82.374  0.00  0.00    -0.331 N 
ATOM     34  H1  EML d          -1.189  32.770  82.113  0.00  0.00     0.168 HD
BRANCH  33  35
ATOM     35  C5  EML d          -3.129  32.142  81.742  0.00  0.00     0.176 A 
ATOM     36  C6  EML d          -3.102  31.933  80.361  0.00  0.00     0.181 A 
ATOM     37  N2  EML d          -2.242  32.468  79.394  0.00  0.00    -0.237 NA
ATOM     38  N3  EML d          -4.072  31.152  79.804  0.00  0.00    -0.299 N 
ATOM     39  C9  EML d          -2.745  31.950  78.255  0.00  0.00     0.032 A 
ATOM     40  C7  EML d          -3.880  31.117  78.439  0.00  0.00     0.071 A 
ATOM     41  H9  EML d          -2.316  32.153  77.275  0.00  0.00     0.118 H 
ATOM     42  C2  EML d          -5.096  30.546  80.500  0.00  0.00     0.011 A 
ATOM     43  C3  EML d          -5.145  30.762  81.857  0.00  0.00     0.049 A 
ATOM     44  H3  EML d          -5.834  29.923  79.997  0.00  0.00     0.115 H 
ATOM     45  N7  EML d          -4.180  31.575  82.436  0.00  0.00    -0.231 NA
BRANCH  40  46
ATOM     46  C1  EML d          -4.745  30.440  77.393  0.00  0.00     0.029 A 
ATOM     47  C8  EML d          -5.560  29.337  77.635  0.00  0.00     0.035 A 
ATOM     48  N5  EML d          -6.144  29.082  76.446  0.00  0.00    -0.187 NA
ATOM     49  H7  EML d          -5.696  28.802  78.573  0.00  0.00     0.118 H 
ATOM     50  N4  EML d          -5.764  29.952  75.492  0.00  0.00    -0.289 N 
ATOM     51  C10 EML d          -4.892  30.812  76.022  0.00  0.00     0.009 A 
ATOM     52  H6  EML d          -6.091  29.954  74.515  0.00  0.00     0.188 HD
ATOM     53  H10 EML d          -4.392  31.633  75.511  0.00  0.00     0.115 H 
ENDBRANCH  40  46
BRANCH  43  54
ATOM     54  C19 EML d          -6.189  30.138  82.715  0.00  0.00    -0.034 C 
ATOM     55  H22 EML d          -7.144  30.108  82.169  0.00  0.00     0.035 H 
ATOM     56  H23 EML d          -6.311  30.730  83.634  0.00  0.00     0.035 H 
ATOM     57  H24 EML d          -5.885  29.113  82.977  0.00  0.00     0.035 H 
ENDBRANCH  43  54
ENDBRANCH  33  35
ENDBRANCH   3  33
TORSDOF 13
ENDMDL
MODEL 8
REMARK VINA RESULT:      -5.1      3.333     10.058
REMARK  13 active torsions:
REMARK  status: ('A' for Active; 'I' for Inactive)
REMARK    1  A    between atoms: C7_15  and  C1_1 
REMARK    2  A    between atoms: N1_2  and  C5_11 
REMARK    3  A    between atoms: C11_21  and  N1_2 
REMARK    4  A    between atoms: C17_27  and  O1_3 
REMARK    5  A    between atoms: C3_7  and  C19_29 
REMARK    6  A    between atoms: N8_18  and  C4_9 
REMARK    7  A    between atoms: C4_9  and  C16_26 
REMARK    8  A    between atoms: N8_18  and  C13_23 
REMARK    9  A    between atoms: C15_25  and  N8_18 
REMARK   10  A    between atoms: C13_23  and  C14_24 
REMARK   11  A    between atoms: C15_25  and  C17_27 
REMARK   12  A    between atoms: C15_25  and  C18_28 
REMARK   13  A    between atoms: C15_25  and  C20_30 
ROOT
ATOM      1  S1  EML d          -2.508  32.553  80.426  0.00  0.00     0.029 SA
ATOM      2  N6  EML d          -3.925  31.919  80.249  0.00  0.00    -0.212 NA
ATOM      3  C11 EML d          -2.650  33.008  82.091  0.00  0.00     0.096 A 
ATOM      4  C12 EML d          -3.926  32.581  82.474  0.00  0.00    -0.023 A 
ATOM      5  C14 EML d          -4.607  31.978  81.416  0.00  0.00     0.071 A 
ATOM      6  H11 EML d          -4.337  32.703  83.475  0.00  0.00     0.091 H 
ENDROOT
BRANCH   5   7
ATOM      7  C13 EML d          -5.998  31.392  81.484  0.00  0.00     0.124 C 
ATOM      8  H12 EML d          -6.524  31.885  82.315  0.00  0.00     0.086 H 
ATOM      9  H13 EML d          -6.504  31.630  80.536  0.00  0.00     0.086 H 
BRANCH   7  10
ATOM     10  N8  EML d          -6.113  29.896  81.698  0.00  0.00    -0.056 N 
ATOM     11  H8  EML d          -5.131  29.669  81.686  0.00  0.00     0.281 HD
BRANCH  10  12
ATOM     12  C4  EML d          -6.442  29.469  83.060  0.00  0.00     0.082 C 
ATOM     13  H4  EML d          -5.816  28.589  83.268  0.00  0.00     0.075 H 
ATOM     14  H5  EML d          -7.501  29.171  83.044  0.00  0.00     0.075 H 
BRANCH  12  15
ATOM     15  C16 EML d          -6.280  30.391  84.234  0.00  0.00    -0.053 C 
ATOM     16  H14 EML d          -5.240  30.751  84.277  0.00  0.00     0.029 H 
ATOM     17  H15 EML d          -6.519  29.850  85.160  0.00  0.00     0.029 H 
ATOM     18  H16 EML d          -6.960  31.248  84.123  0.00  0.00     0.029 H 
ENDBRANCH  12  15
ENDBRANCH  10  12
BRANCH  10  19
ATOM     19  C15 EML d          -6.557  29.001  80.605  0.00  0.00     0.142 C 
BRANCH  19  20
ATOM     20  C17 EML d          -5.549  28.964  79.433  0.00  0.00     0.047 C 
ATOM     21  H17 EML d          -4.663  29.555  79.708  0.00  0.00     0.077 H 
ATOM     22  H18 EML d          -5.252  27.920  79.253  0.00  0.00     0.077 H 
BRANCH  20  23
ATOM     23  O1  EML d          -6.112  29.503  78.222  0.00  0.00    -0.398 OA
ATOM     24  H2  EML d          -7.049  29.612  78.331  0.00  0.00     0.209 HD
ENDBRANCH  20  23
ENDBRANCH  19  20
BRANCH  19  25
ATOM     25  C18 EML d          -7.774  29.464  79.882  0.00  0.00    -0.043 C 
ATOM     26  H19 EML d          -8.054  30.466  80.239  0.00  0.00     0.030 H 
ATOM     27  H20 EML d          -8.601  28.764  80.071  0.00  0.00     0.030 H 
ATOM     28  H21 EML d          -7.567  29.503  78.803  0.00  0.00     0.030 H 
ENDBRANCH  19  25
BRANCH  19  29
ATOM     29  C20 EML d          -6.941  27.586  81.124  0.00  0.00    -0.043 C 
ATOM     30  H25 EML d          -7.501  27.681  82.067  0.00  0.00     0.030 H 
ATOM     31  H26 EML d          -6.027  26.999  81.298  0.00  0.00     0.030 H 
ATOM     32  H27 EML d          -7.566  27.078  80.376  0.00  0.00     0.030 H 
ENDBRANCH  19  29
ENDBRANCH  10  19
ENDBRANCH   7  10
ENDBRANCH   5   7
BRANCH   3  33
ATOM     33  N1  EML d          -1.701  33.670  82.874  0.00  0.00    -0.331 N 
ATOM     34  H1  EML d          -1.152  33.099  83.532  0.00  0.00     0.168 HD
BRANCH  33  35
ATOM     35  C5  EML d          -1.437  35.031  82.838  0.00  0.00     0.176 A 
ATOM     36  C6  EML d          -0.255  35.530  82.286  0.00  0.00     0.181 A 
ATOM     37  N2  EML d           0.849  34.841  81.769  0.00  0.00    -0.237 NA
ATOM     38  N3  EML d          -0.060  36.880  82.281  0.00  0.00    -0.299 N 
ATOM     39  C9  EML d           1.684  35.850  81.448  0.00  0.00     0.032 A 
ATOM     40  C7  EML d           1.178  37.145  81.734  0.00  0.00     0.071 A 
ATOM     41  H9  EML d           2.666  35.685  81.006  0.00  0.00     0.118 H 
ATOM     42  C2  EML d          -0.944  37.808  82.787  0.00  0.00     0.011 A 
ATOM     43  C3  EML d          -2.101  37.328  83.351  0.00  0.00     0.049 A 
ATOM     44  H3  EML d          -0.735  38.876  82.741  0.00  0.00     0.115 H 
ATOM     45  N7  EML d          -2.304  35.955  83.387  0.00  0.00    -0.231 NA
BRANCH  40  46
ATOM     46  C1  EML d           1.864  38.490  81.586  0.00  0.00     0.029 A 
ATOM     47  C8  EML d           2.367  39.241  82.644  0.00  0.00     0.035 A 
ATOM     48  N5  EML d           2.891  40.339  82.061  0.00  0.00    -0.187 NA
ATOM     49  H7  EML d           2.343  38.997  83.705  0.00  0.00     0.118 H 
ATOM     50  N4  EML d           2.763  40.315  80.721  0.00  0.00    -0.289 N 
ATOM     51  C10 EML d           2.128  39.195  80.373  0.00  0.00     0.009 A 
ATOM     52  H6  EML d           3.099  41.042  80.073  0.00  0.00     0.188 HD
ATOM     53  H10 EML d           1.863  38.881  79.364  0.00  0.00     0.115 H 
ENDBRANCH  40  46
BRANCH  43  54
ATOM     54  C19 EML d          -3.142  38.238  83.906  0.00  0.00    -0.034 C 
ATOM     55  H22 EML d          -3.437  37.891  84.907  0.00  0.00     0.035 H 
ATOM     56  H23 EML d          -4.021  38.236  83.244  0.00  0.00     0.035 H 
ATOM     57  H24 EML d          -2.738  39.258  83.976  0.00  0.00     0.035 H 
ENDBRANCH  43  54
ENDBRANCH  33  35
ENDBRANCH   3  33
TORSDOF 13
ENDMDL
MODEL 9
REMARK VINA RESULT:      -5.1      3.239      9.270
REMARK  13 active torsions:
REMARK  status: ('A' for Active; 'I' for Inactive)
REMARK    1  A    between atoms: C7_15  and  C1_1 
REMARK    2  A    between atoms: N1_2  and  C5_11 
REMARK    3  A    between atoms: C11_21  and  N1_2 
REMARK    4  A    between atoms: C17_27  and  O1_3 
REMARK    5  A    between atoms: C3_7  and  C19_29 
REMARK    6  A    between atoms: N8_18  and  C4_9 
REMARK    7  A    between atoms: C4_9  and  C16_26 
REMARK    8  A    between atoms: N8_18  and  C13_23 
REMARK    9  A    between atoms: C15_25  and  N8_18 
REMARK   10  A    between atoms: C13_23  and  C14_24 
REMARK   11  A    between atoms: C15_25  and  C17_27 
REMARK   12  A    between atoms: C15_25  and  C18_28 
REMARK   13  A    between atoms: C15_25  and  C20_30 
ROOT
ATOM      1  S1  EML d          -8.103  28.744  81.128  0.00  0.00     0.029 SA
ATOM      2  N6  EML d          -8.214  28.820  79.572  0.00  0.00    -0.212 NA
ATOM      3  C11 EML d          -6.470  29.299  81.284  0.00  0.00     0.096 A 
ATOM      4  C12 EML d          -6.053  29.564  79.975  0.00  0.00    -0.023 A 
ATOM      5  C14 EML d          -7.056  29.282  79.048  0.00  0.00     0.071 A 
ATOM      6  H11 EML d          -5.066  29.944  79.713  0.00  0.00     0.091 H 
ENDROOT
BRANCH   5   7
ATOM      7  C13 EML d          -6.949  29.467  77.551  0.00  0.00     0.124 C 
ATOM      8  H12 EML d          -7.588  28.707  77.078  0.00  0.00     0.086 H 
ATOM      9  H13 EML d          -7.335  30.470  77.314  0.00  0.00     0.086 H 
BRANCH   7  10
ATOM     10  N8  EML d          -5.571  29.351  76.933  0.00  0.00    -0.056 N 
ATOM     11  H8  EML d          -5.073  29.010  77.741  0.00  0.00     0.281 HD
BRANCH  10  12
ATOM     12  C4  EML d          -5.370  28.217  76.029  0.00  0.00     0.082 C 
ATOM     13  H4  EML d          -4.725  27.505  76.565  0.00  0.00     0.075 H 
ATOM     14  H5  EML d          -4.834  28.609  75.152  0.00  0.00     0.075 H 
BRANCH  12  15
ATOM     15  C16 EML d          -6.526  27.422  75.496  0.00  0.00    -0.053 C 
ATOM     16  H14 EML d          -6.148  26.553  74.936  0.00  0.00     0.029 H 
ATOM     17  H15 EML d          -7.129  28.054  74.827  0.00  0.00     0.029 H 
ATOM     18  H16 EML d          -7.150  27.075  76.332  0.00  0.00     0.029 H 
ENDBRANCH  12  15
ENDBRANCH  10  12
BRANCH  10  19
ATOM     19  C15 EML d          -4.751  30.555  76.666  0.00  0.00     0.142 C 
BRANCH  19  20
ATOM     20  C17 EML d          -4.597  31.448  77.919  0.00  0.00     0.047 C 
ATOM     21  H17 EML d          -5.469  32.115  77.988  0.00  0.00     0.077 H 
ATOM     22  H18 EML d          -4.556  30.805  78.810  0.00  0.00     0.077 H 
BRANCH  20  23
ATOM     23  O1  EML d          -3.401  32.248  77.866  0.00  0.00    -0.398 OA
ATOM     24  H2  EML d          -2.844  32.032  78.605  0.00  0.00     0.209 HD
ENDBRANCH  20  23
ENDBRANCH  19  20
BRANCH  19  25
ATOM     25  C18 EML d          -5.373  31.532  75.729  0.00  0.00    -0.043 C 
ATOM     26  H19 EML d          -6.115  31.017  75.101  0.00  0.00     0.030 H 
ATOM     27  H20 EML d          -4.595  31.974  75.090  0.00  0.00     0.030 H 
ATOM     28  H21 EML d          -5.869  32.327  76.305  0.00  0.00     0.030 H 
ENDBRANCH  19  25
BRANCH  19  29
ATOM     29  C20 EML d          -3.392  30.204  75.997  0.00  0.00    -0.043 C 
ATOM     30  H25 EML d          -2.801  31.122  75.861  0.00  0.00     0.030 H 
ATOM     31  H26 EML d          -3.575  29.737  75.018  0.00  0.00     0.030 H 
ATOM     32  H27 EML d          -2.837  29.504  76.639  0.00  0.00     0.030 H 
ENDBRANCH  19  29
ENDBRANCH  10  19
ENDBRANCH   7  10
ENDBRANCH   5   7
BRANCH   3  33
ATOM     33  N1  EML d          -5.729  29.440  82.460  0.00  0.00    -0.331 N 
ATOM     34  H1  EML d          -5.181  28.626  82.772  0.00  0.00     0.168 HD
BRANCH  33  35
ATOM     35  C5  EML d          -5.671  30.585  83.241  0.00  0.00     0.176 A 
ATOM     36  C6  EML d          -4.755  31.604  82.973  0.00  0.00     0.181 A 
ATOM     37  N2  EML d          -3.744  31.664  82.006  0.00  0.00    -0.237 NA
ATOM     38  N3  EML d          -4.753  32.704  83.780  0.00  0.00    -0.299 N 
ATOM     39  C9  EML d          -3.167  32.853  82.276  0.00  0.00     0.032 A 
ATOM     40  C7  EML d          -3.751  33.555  83.363  0.00  0.00     0.071 A 
ATOM     41  H9  EML d          -2.324  33.243  81.707  0.00  0.00     0.118 H 
ATOM     42  C2  EML d          -5.589  32.895  84.858  0.00  0.00     0.011 A 
ATOM     43  C3  EML d          -6.481  31.889  85.145  0.00  0.00     0.049 A 
ATOM     44  H3  EML d          -5.546  33.804  85.457  0.00  0.00     0.115 H 
ATOM     45  N7  EML d          -6.479  30.752  84.349  0.00  0.00    -0.231 NA
BRANCH  40  46
ATOM     46  C1  EML d          -3.318  34.865  83.994  0.00  0.00     0.029 A 
ATOM     47  C8  EML d          -2.415  34.974  85.049  0.00  0.00     0.035 A 
ATOM     48  N5  EML d          -2.318  36.300  85.275  0.00  0.00    -0.187 NA
ATOM     49  H7  EML d          -1.903  34.168  85.574  0.00  0.00     0.118 H 
ATOM     50  N4  EML d          -3.079  37.019  84.430  0.00  0.00    -0.289 N 
ATOM     51  C10 EML d          -3.726  36.181  83.618  0.00  0.00     0.009 A 
ATOM     52  H6  EML d          -3.151  38.047  84.413  0.00  0.00     0.188 HD
ATOM     53  H10 EML d          -4.425  36.447  82.828  0.00  0.00     0.115 H 
ENDBRANCH  40  46
BRANCH  43  54
ATOM     54  C19 EML d          -7.451  31.995  86.270  0.00  0.00    -0.034 C 
ATOM     55  H22 EML d          -8.249  31.249  86.137  0.00  0.00     0.035 H 
ATOM     56  H23 EML d          -7.891  33.003  86.281  0.00  0.00     0.035 H 
ATOM     57  H24 EML d          -6.932  31.810  87.222  0.00  0.00     0.035 H 
ENDBRANCH  43  54
ENDBRANCH  33  35
ENDBRANCH   3  33
TORSDOF 13
ENDMDL
MODEL 10
REMARK VINA RESULT:      -5.0      4.488      9.650
REMARK  13 active torsions:
REMARK  status: ('A' for Active; 'I' for Inactive)
REMARK    1  A    between atoms: C7_15  and  C1_1 
REMARK    2  A    between atoms: N1_2  and  C5_11 
REMARK    3  A    between atoms: C11_21  and  N1_2 
REMARK    4  A    between atoms: C17_27  and  O1_3 
REMARK    5  A    between atoms: C3_7  and  C19_29 
REMARK    6  A    between atoms: N8_18  and  C4_9 
REMARK    7  A    between atoms: C4_9  and  C16_26 
REMARK    8  A    between atoms: N8_18  and  C13_23 
REMARK    9  A    between atoms: C15_25  and  N8_18 
REMARK   10  A    between atoms: C13_23  and  C14_24 
REMARK   11  A    between atoms: C15_25  and  C17_27 
REMARK   12  A    between atoms: C15_25  and  C18_28 
REMARK   13  A    between atoms: C15_25  and  C20_30 
ROOT
ATOM      1  S1  EML d          -3.588  31.402  86.160  0.00  0.00     0.029 SA
ATOM      2  N6  EML d          -4.721  30.333  86.273  0.00  0.00    -0.212 NA
ATOM      3  C11 EML d          -4.438  32.558  85.191  0.00  0.00     0.096 A 
ATOM      4  C12 EML d          -5.708  32.002  84.997  0.00  0.00    -0.023 A 
ATOM      5  C14 EML d          -5.825  30.757  85.617  0.00  0.00     0.071 A 
ATOM      6  H11 EML d          -6.506  32.482  84.433  0.00  0.00     0.091 H 
ENDROOT
BRANCH   5   7
ATOM      7  C13 EML d          -7.062  29.889  85.621  0.00  0.00     0.124 C 
ATOM      8  H12 EML d          -7.254  29.592  86.663  0.00  0.00     0.086 H 
ATOM      9  H13 EML d          -7.898  30.503  85.254  0.00  0.00     0.086 H 
BRANCH   7  10
ATOM     10  N8  EML d          -7.026  28.624  84.788  0.00  0.00    -0.056 N 
ATOM     11  H8  EML d          -6.028  28.555  84.664  0.00  0.00     0.281 HD
BRANCH  10  12
ATOM     12  C4  EML d          -7.264  27.374  85.514  0.00  0.00     0.082 C 
ATOM     13  H4  EML d          -6.301  27.087  85.960  0.00  0.00     0.075 H 
ATOM     14  H5  EML d          -7.557  26.628  84.760  0.00  0.00     0.075 H 
BRANCH  12  15
ATOM     15  C16 EML d          -8.283  27.285  86.613  0.00  0.00    -0.053 C 
ATOM     16  H14 EML d          -7.869  26.702  87.450  0.00  0.00     0.029 H 
ATOM     17  H15 EML d          -9.189  26.791  86.234  0.00  0.00     0.029 H 
ATOM     18  H16 EML d          -8.536  28.297  86.961  0.00  0.00     0.029 H 
ENDBRANCH  12  15
ENDBRANCH  10  12
BRANCH  10  19
ATOM     19  C15 EML d          -7.422  28.638  83.361  0.00  0.00     0.142 C 
BRANCH  19  20
ATOM     20  C17 EML d          -6.234  28.968  82.428  0.00  0.00     0.047 C 
ATOM     21  H17 EML d          -6.390  29.967  81.994  0.00  0.00     0.077 H 
ATOM     22  H18 EML d          -5.306  28.967  83.019  0.00  0.00     0.077 H 
BRANCH  20  23
ATOM     23  O1  EML d          -6.107  28.011  81.360  0.00  0.00    -0.398 OA
ATOM     24  H2  EML d          -5.498  27.329  81.618  0.00  0.00     0.209 HD
ENDBRANCH  20  23
ENDBRANCH  19  20
BRANCH  19  25
ATOM     25  C18 EML d          -8.354  29.739  82.989  0.00  0.00    -0.043 C 
ATOM     26  H19 EML d          -7.894  30.708  83.232  0.00  0.00     0.030 H 
ATOM     27  H20 EML d          -9.294  29.629  83.550  0.00  0.00     0.030 H 
ATOM     28  H21 EML d          -8.564  29.693  81.910  0.00  0.00     0.030 H 
ENDBRANCH  19  25
BRANCH  19  29
ATOM     29  C20 EML d          -8.181  27.345  82.948  0.00  0.00    -0.043 C 
ATOM     30  H25 EML d          -9.185  27.349  83.398  0.00  0.00     0.030 H 
ATOM     31  H26 EML d          -7.624  26.465  83.302  0.00  0.00     0.030 H 
ATOM     32  H27 EML d          -8.271  27.306  81.853  0.00  0.00     0.030 H 
ENDBRANCH  19  29
ENDBRANCH  10  19
ENDBRANCH   7  10
ENDBRANCH   5   7
BRANCH   3  33
ATOM     33  N1  EML d          -3.956  33.774  84.700  0.00  0.00    -0.331 N 
ATOM     34  H1  EML d          -4.282  34.633  85.165  0.00  0.00     0.168 HD
BRANCH  33  35
ATOM     35  C5  EML d          -3.076  33.919  83.638  0.00  0.00     0.176 A 
ATOM     36  C6  EML d          -1.998  34.805  83.701  0.00  0.00     0.181 A 
ATOM     37  N2  EML d          -1.642  35.707  84.711  0.00  0.00    -0.237 NA
ATOM     38  N3  EML d          -1.168  34.896  82.621  0.00  0.00    -0.299 N 
ATOM     39  C9  EML d          -0.561  36.313  84.177  0.00  0.00     0.032 A 
ATOM     40  C7  EML d          -0.209  35.851  82.882  0.00  0.00     0.071 A 
ATOM     41  H9  EML d          -0.005  37.092  84.697  0.00  0.00     0.118 H 
ATOM     42  C2  EML d          -1.310  34.180  81.453  0.00  0.00     0.011 A 
ATOM     43  C3  EML d          -2.380  33.320  81.371  0.00  0.00     0.049 A 
ATOM     44  H3  EML d          -0.606  34.289  80.630  0.00  0.00     0.115 H 
ATOM     45  N7  EML d          -3.247  33.233  82.451  0.00  0.00    -0.231 NA
BRANCH  40  46
ATOM     46  C1  EML d           0.883  36.354  81.956  0.00  0.00     0.029 A 
ATOM     47  C8  EML d           1.706  35.535  81.188  0.00  0.00     0.035 A 
ATOM     48  N5  EML d           2.507  36.391  80.521  0.00  0.00    -0.187 NA
ATOM     49  H7  EML d           1.704  34.447  81.137  0.00  0.00     0.118 H 
ATOM     50  N4  EML d           2.231  37.677  80.807  0.00  0.00    -0.289 N 
ATOM     51  C10 EML d           1.237  37.712  81.696  0.00  0.00     0.009 A 
ATOM     52  H6  EML d           2.708  38.497  80.406  0.00  0.00     0.188 HD
ATOM     53  H10 EML d           0.785  38.600  82.136  0.00  0.00     0.115 H 
ENDBRANCH  40  46
BRANCH  43  54
ATOM     54  C19 EML d          -2.620  32.475  80.168  0.00  0.00    -0.034 C 
ATOM     55  H22 EML d          -2.869  31.451  80.483  0.00  0.00     0.035 H 
ATOM     56  H23 EML d          -1.713  32.456  79.547  0.00  0.00     0.035 H 
ATOM     57  H24 EML d          -3.455  32.893  79.586  0.00  0.00     0.035 H 
ENDBRANCH  43  54
ENDBRANCH  33  35
ENDBRANCH   3  33
TORSDOF 13
ENDMDL
