MODEL 1
REMARK VINA RESULT:      -8.4      0.000      0.000
REMARK  3 active torsions:
REMARK  status: ('A' for Active; 'I' for Inactive)
REMARK    1  A    between atoms: C13_2  and  C15_3 
REMARK       I    between atoms: C13_2  and  N12_12 
REMARK    2  A    between atoms: N12_12  and  C8_13 
REMARK    3  A    between atoms: C6_18  and  C2_19 
ROOT
ATOM      1  O14 MOL d          -8.859  55.247  13.376  0.00  0.00    -0.267 OA
ATOM      2  C13 MOL d          -8.915  55.400  12.145  0.00  0.00     0.256 C 
ATOM      3  N12 MOL d          -8.237  54.598  11.314  0.00  0.00    -0.323 N 
ATOM      4  H6  MOL d          -8.324  54.764  10.332  0.00  0.00     0.169 HD
ENDROOT
BRANCH   3   5
ATOM      5  C8  MOL d          -7.413  53.543  11.726  0.00  0.00     0.035 A 
ATOM      6  C7  MOL d          -6.061  53.816  11.910  0.00  0.00    -0.043 A 
ATOM      7  C6  MOL d          -5.219  52.790  12.348  0.00  0.00     0.014 A 
ATOM      8  H7  MOL d          -5.668  54.807  11.717  0.00  0.00     0.088 H 
ATOM      9  C11 MOL d          -5.677  51.510  12.609  0.00  0.00    -0.069 A 
ATOM     10  C10 MOL d          -7.030  51.259  12.389  0.00  0.00    -0.080 A 
ATOM     11  H10 MOL d          -5.010  50.735  12.971  0.00  0.00     0.085 H 
ATOM     12  C9  MOL d          -7.902  52.240  11.922  0.00  0.00    -0.057 A 
ATOM     13  H9  MOL d          -7.417  50.267  12.588  0.00  0.00     0.083 H 
ATOM     14  H8  MOL d          -8.940  52.002  11.714  0.00  0.00     0.086 H 
BRANCH   7  15
ATOM     15  C2  MOL d          -3.796  53.078  12.564  0.00  0.00     0.168 A 
ATOM     16  N3  MOL d          -2.829  52.947  11.640  0.00  0.00    -0.268 N 
ATOM     17  N4  MOL d          -1.643  53.258  12.271  0.00  0.00    -0.005 NA
ATOM     18  H11 MOL d          -2.950  52.668  10.655  0.00  0.00     0.185 HD
ATOM     19  N5  MOL d          -1.915  53.568  13.563  0.00  0.00     0.018 NA
ATOM     20  N1  MOL d          -3.252  53.474  13.729  0.00  0.00    -0.142 NA
ENDBRANCH   7  15
ENDBRANCH   3   5
BRANCH   2  21
ATOM     21  C15 MOL d          -9.721  56.525  11.569  0.00  0.00     0.033 A 
ATOM     22  C20 MOL d         -10.863  56.930  12.271  0.00  0.00    -0.054 A 
ATOM     23  C19 MOL d         -11.585  58.015  11.805  0.00  0.00     0.012 A 
ATOM     24  H1  MOL d         -11.176  56.402  13.165  0.00  0.00     0.086 H 
ATOM     25  C23 MOL d         -12.786  58.621  12.314  0.00  0.00     0.008 A 
ATOM     26  C18 MOL d         -11.183  58.678  10.656  0.00  0.00     0.088 A 
ATOM     27  N22 MOL d         -13.057  59.637  11.467  0.00  0.00    -0.288 N 
ATOM     28  H2  MOL d         -13.355  58.325  13.195  0.00  0.00     0.115 H 
ATOM     29  N21 MOL d         -12.089  59.673  10.460  0.00  0.00    -0.175 NA
ATOM     30  H3  MOL d         -13.854  60.284  11.549  0.00  0.00     0.188 HD
ATOM     31  C17 MOL d         -10.052  58.293   9.945  0.00  0.00    -0.052 A 
ATOM     32  C16 MOL d          -9.301  57.223  10.414  0.00  0.00    -0.065 A 
ATOM     33  H4  MOL d          -9.762  58.817   9.041  0.00  0.00     0.087 H 
ATOM     34  H5  MOL d          -8.396  56.926   9.896  0.00  0.00     0.085 H 
ENDBRANCH   2  21
TORSDOF 3
ENDMDL
MODEL 2
REMARK VINA RESULT:      -7.2      1.477      1.723
REMARK  3 active torsions:
REMARK  status: ('A' for Active; 'I' for Inactive)
REMARK    1  A    between atoms: C13_2  and  C15_3 
REMARK       I    between atoms: C13_2  and  N12_12 
REMARK    2  A    between atoms: N12_12  and  C8_13 
REMARK    3  A    between atoms: C6_18  and  C2_19 
ROOT
ATOM      1  O14 MOL d          -9.254  53.392  11.378  0.00  0.00    -0.267 OA
ATOM      2  C13 MOL d          -9.087  54.599  11.615  0.00  0.00     0.256 C 
ATOM      3  N12 MOL d          -8.095  55.019  12.412  0.00  0.00    -0.323 N 
ATOM      4  H6  MOL d          -8.005  56.004  12.562  0.00  0.00     0.169 HD
ENDROOT
BRANCH   3   5
ATOM      5  C8  MOL d          -7.178  54.175  13.049  0.00  0.00     0.035 A 
ATOM      6  C7  MOL d          -5.893  54.106  12.520  0.00  0.00    -0.043 A 
ATOM      7  C6  MOL d          -4.947  53.293  13.151  0.00  0.00     0.014 A 
ATOM      8  H7  MOL d          -5.630  54.673  11.635  0.00  0.00     0.088 H 
ATOM      9  C11 MOL d          -5.236  52.554  14.285  0.00  0.00    -0.069 A 
ATOM     10  C10 MOL d          -6.538  52.621  14.775  0.00  0.00    -0.080 A 
ATOM     11  H10 MOL d          -4.480  51.949  14.772  0.00  0.00     0.085 H 
ATOM     12  C9  MOL d          -7.525  53.391  14.163  0.00  0.00    -0.057 A 
ATOM     13  H9  MOL d          -6.793  52.055  15.663  0.00  0.00     0.083 H 
ATOM     14  H8  MOL d          -8.542  53.385  14.538  0.00  0.00     0.086 H 
BRANCH   7  15
ATOM     15  C2  MOL d          -3.583  53.233  12.610  0.00  0.00     0.168 A 
ATOM     16  N3  MOL d          -2.458  53.426  13.319  0.00  0.00    -0.268 N 
ATOM     17  N4  MOL d          -1.414  53.343  12.422  0.00  0.00    -0.005 NA
ATOM     18  H11 MOL d          -2.389  53.601  14.332  0.00  0.00     0.185 HD
ATOM     19  N5  MOL d          -1.927  53.107  11.190  0.00  0.00     0.018 NA
ATOM     20  N1  MOL d          -3.269  53.020  11.319  0.00  0.00    -0.142 NA
ENDBRANCH   7  15
ENDBRANCH   3   5
BRANCH   2  21
ATOM     21  C15 MOL d         -10.030  55.610  11.037  0.00  0.00     0.033 A 
ATOM     22  C20 MOL d         -10.219  56.800  11.751  0.00  0.00    -0.054 A 
ATOM     23  C19 MOL d         -11.025  57.786  11.206  0.00  0.00     0.012 A 
ATOM     24  H1  MOL d          -9.744  56.947  12.713  0.00  0.00     0.086 H 
ATOM     25  C23 MOL d         -11.398  59.075  11.724  0.00  0.00     0.008 A 
ATOM     26  C18 MOL d         -11.637  57.585   9.978  0.00  0.00     0.088 A 
ATOM     27  N22 MOL d         -12.207  59.613  10.787  0.00  0.00    -0.288 N 
ATOM     28  H2  MOL d         -11.093  59.521  12.670  0.00  0.00     0.115 H 
ATOM     29  N21 MOL d         -12.356  58.713   9.729  0.00  0.00    -0.175 NA
ATOM     30  H3  MOL d         -12.646  60.543  10.843  0.00  0.00     0.188 HD
ATOM     31  C17 MOL d         -11.461  56.412   9.253  0.00  0.00    -0.052 A 
ATOM     32  C16 MOL d         -10.635  55.425   9.773  0.00  0.00    -0.065 A 
ATOM     33  H4  MOL d         -11.960  56.270   8.301  0.00  0.00     0.087 H 
ATOM     34  H5  MOL d         -10.455  54.516   9.211  0.00  0.00     0.085 H 
ENDBRANCH   2  21
TORSDOF 3
ENDMDL
MODEL 3
REMARK VINA RESULT:      -7.2      1.606      8.304
REMARK  3 active torsions:
REMARK  status: ('A' for Active; 'I' for Inactive)
REMARK    1  A    between atoms: C13_2  and  C15_3 
REMARK       I    between atoms: C13_2  and  N12_12 
REMARK    2  A    between atoms: N12_12  and  C8_13 
REMARK    3  A    between atoms: C6_18  and  C2_19 
ROOT
ATOM      1  O14 MOL d          -8.713  53.735  13.409  0.00  0.00    -0.267 OA
ATOM      2  C13 MOL d          -7.971  53.609  12.422  0.00  0.00     0.256 C 
ATOM      3  N12 MOL d          -8.390  53.936  11.192  0.00  0.00    -0.323 N 
ATOM      4  H6  MOL d          -7.747  53.819  10.434  0.00  0.00     0.169 HD
ENDROOT
BRANCH   3   5
ATOM      5  C8  MOL d          -9.667  54.429  10.894  0.00  0.00     0.035 A 
ATOM      6  C7  MOL d          -9.886  55.791  11.069  0.00  0.00    -0.043 A 
ATOM      7  C6  MOL d         -11.142  56.318  10.753  0.00  0.00     0.014 A 
ATOM      8  H7  MOL d          -9.097  56.433  11.443  0.00  0.00     0.088 H 
ATOM      9  C11 MOL d         -12.178  55.538  10.269  0.00  0.00    -0.069 A 
ATOM     10  C10 MOL d         -11.936  54.172  10.131  0.00  0.00    -0.080 A 
ATOM     11  H10 MOL d         -13.136  55.971  10.008  0.00  0.00     0.085 H 
ATOM     12  C9  MOL d         -10.713  53.595  10.463  0.00  0.00    -0.057 A 
ATOM     13  H9  MOL d         -12.729  53.537   9.752  0.00  0.00     0.083 H 
ATOM     14  H8  MOL d         -10.570  52.522  10.392  0.00  0.00     0.086 H 
BRANCH   7  15
ATOM     15  C2  MOL d         -11.373  57.758  10.915  0.00  0.00     0.168 A 
ATOM     16  N3  MOL d         -11.119  58.464  12.031  0.00  0.00    -0.268 N 
ATOM     17  N4  MOL d         -11.535  59.754  11.777  0.00  0.00    -0.005 NA
ATOM     18  H11 MOL d         -10.698  58.111  12.902  0.00  0.00     0.185 HD
ATOM     19  N5  MOL d         -12.034  59.803  10.518  0.00  0.00     0.018 NA
ATOM     20  N1  MOL d         -11.911  58.568   9.985  0.00  0.00    -0.142 NA
ENDBRANCH   7  15
ENDBRANCH   3   5
BRANCH   2  21
ATOM     21  C15 MOL d          -6.593  53.044  12.591  0.00  0.00     0.033 A 
ATOM     22  C20 MOL d          -5.532  53.950  12.711  0.00  0.00    -0.054 A 
ATOM     23  C19 MOL d          -4.258  53.460  12.944  0.00  0.00     0.012 A 
ATOM     24  H1  MOL d          -5.705  55.016  12.623  0.00  0.00     0.086 H 
ATOM     25  C23 MOL d          -3.006  54.155  13.090  0.00  0.00     0.008 A 
ATOM     26  C18 MOL d          -4.044  52.094  13.046  0.00  0.00     0.088 A 
ATOM     27  N22 MOL d          -2.086  53.187  13.290  0.00  0.00    -0.288 N 
ATOM     28  H2  MOL d          -2.838  55.230  13.047  0.00  0.00     0.115 H 
ATOM     29  N21 MOL d          -2.710  51.938  13.261  0.00  0.00    -0.175 NA
ATOM     30  H3  MOL d          -1.079  53.346  13.439  0.00  0.00     0.188 HD
ATOM     31  C17 MOL d          -5.084  51.179  12.930  0.00  0.00    -0.052 A 
ATOM     32  C16 MOL d          -6.372  51.654  12.723  0.00  0.00    -0.065 A 
ATOM     33  H4  MOL d          -4.893  50.114  13.000  0.00  0.00     0.087 H 
ATOM     34  H5  MOL d          -7.204  50.962  12.664  0.00  0.00     0.085 H 
ENDBRANCH   2  21
TORSDOF 3
ENDMDL
MODEL 4
REMARK VINA RESULT:      -6.3      2.774      8.667
REMARK  3 active torsions:
REMARK  status: ('A' for Active; 'I' for Inactive)
REMARK    1  A    between atoms: C13_2  and  C15_3 
REMARK       I    between atoms: C13_2  and  N12_12 
REMARK    2  A    between atoms: N12_12  and  C8_13 
REMARK    3  A    between atoms: C6_18  and  C2_19 
ROOT
ATOM      1  O14 MOL d          -7.604  54.747  13.395  0.00  0.00    -0.267 OA
ATOM      2  C13 MOL d          -7.068  54.211  12.412  0.00  0.00     0.256 C 
ATOM      3  N12 MOL d          -7.562  54.374  11.177  0.00  0.00    -0.323 N 
ATOM      4  H6  MOL d          -7.085  53.924  10.422  0.00  0.00     0.169 HD
ENDROOT
BRANCH   3   5
ATOM      5  C8  MOL d          -8.699  55.131  10.871  0.00  0.00     0.035 A 
ATOM      6  C7  MOL d          -9.872  54.442  10.582  0.00  0.00    -0.043 A 
ATOM      7  C6  MOL d         -11.031  55.170  10.300  0.00  0.00     0.014 A 
ATOM      8  H7  MOL d          -9.887  53.358  10.576  0.00  0.00     0.088 H 
ATOM      9  C11 MOL d         -11.060  56.554  10.300  0.00  0.00    -0.069 A 
ATOM     10  C10 MOL d          -9.864  57.217  10.565  0.00  0.00    -0.080 A 
ATOM     11  H10 MOL d         -11.976  57.099  10.101  0.00  0.00     0.085 H 
ATOM     12  C9  MOL d          -8.676  56.536  10.820  0.00  0.00    -0.057 A 
ATOM     13  H9  MOL d          -9.858  58.301  10.574  0.00  0.00     0.083 H 
ATOM     14  H8  MOL d          -7.750  57.079  10.975  0.00  0.00     0.086 H 
BRANCH   7  15
ATOM     15  C2  MOL d         -12.277  54.447  10.015  0.00  0.00     0.168 A 
ATOM     16  N3  MOL d         -12.840  54.322   8.801  0.00  0.00    -0.268 N 
ATOM     17  N4  MOL d         -14.018  53.629   8.990  0.00  0.00    -0.005 NA
ATOM     18  H11 MOL d         -12.468  54.675   7.908  0.00  0.00     0.185 HD
ATOM     19  N5  MOL d         -14.145  53.353  10.311  0.00  0.00     0.018 NA
ATOM     20  N1  MOL d         -13.053  53.845  10.934  0.00  0.00    -0.142 NA
ENDBRANCH   7  15
ENDBRANCH   3   5
BRANCH   2  21
ATOM     21  C15 MOL d          -5.870  53.330  12.603  0.00  0.00     0.033 A 
ATOM     22  C20 MOL d          -4.611  53.944  12.614  0.00  0.00    -0.054 A 
ATOM     23  C19 MOL d          -3.492  53.168  12.863  0.00  0.00     0.012 A 
ATOM     24  H1  MOL d          -4.515  55.007  12.429  0.00  0.00     0.086 H 
ATOM     25  C23 MOL d          -2.101  53.531  12.914  0.00  0.00     0.008 A 
ATOM     26  C18 MOL d          -3.624  51.806  13.088  0.00  0.00     0.088 A 
ATOM     27  N22 MOL d          -1.445  52.381  13.184  0.00  0.00    -0.288 N 
ATOM     28  H2  MOL d          -1.669  54.520  12.767  0.00  0.00     0.115 H 
ATOM     29  N21 MOL d          -2.364  51.334  13.287  0.00  0.00    -0.175 NA
ATOM     30  H3  MOL d          -0.425  52.291  13.295  0.00  0.00     0.188 HD
ATOM     31  C17 MOL d          -4.865  51.179  13.082  0.00  0.00    -0.052 A 
ATOM     32  C16 MOL d          -6.000  51.947  12.861  0.00  0.00    -0.065 A 
ATOM     33  H4  MOL d          -4.945  50.110  13.248  0.00  0.00     0.087 H 
ATOM     34  H5  MOL d          -6.981  51.487  12.885  0.00  0.00     0.085 H 
ENDBRANCH   2  21
TORSDOF 3
ENDMDL
MODEL 5
REMARK VINA RESULT:      -6.2      2.314      8.624
REMARK  3 active torsions:
REMARK  status: ('A' for Active; 'I' for Inactive)
REMARK    1  A    between atoms: C13_2  and  C15_3 
REMARK       I    between atoms: C13_2  and  N12_12 
REMARK    2  A    between atoms: N12_12  and  C8_13 
REMARK    3  A    between atoms: C6_18  and  C2_19 
ROOT
ATOM      1  O14 MOL d          -7.212  55.319  12.724  0.00  0.00    -0.267 OA
ATOM      2  C13 MOL d          -6.867  54.445  11.913  0.00  0.00     0.256 C 
ATOM      3  N12 MOL d          -7.486  54.309  10.733  0.00  0.00    -0.323 N 
ATOM      4  H6  MOL d          -7.163  53.591  10.117  0.00  0.00     0.169 HD
ENDROOT
BRANCH   3   5
ATOM      5  C8  MOL d          -8.556  55.104  10.302  0.00  0.00     0.035 A 
ATOM      6  C7  MOL d          -9.804  54.864  10.867  0.00  0.00    -0.043 A 
ATOM      7  C6  MOL d         -10.885  55.660  10.478  0.00  0.00     0.014 A 
ATOM      8  H7  MOL d          -9.936  54.074  11.597  0.00  0.00     0.088 H 
ATOM      9  C11 MOL d         -10.763  56.682   9.552  0.00  0.00    -0.069 A 
ATOM     10  C10 MOL d          -9.507  56.880   8.982  0.00  0.00    -0.080 A 
ATOM     11  H10 MOL d         -11.610  57.303   9.282  0.00  0.00     0.085 H 
ATOM     12  C9  MOL d          -8.407  56.092   9.313  0.00  0.00    -0.057 A 
ATOM     13  H9  MOL d          -9.382  57.675   8.256  0.00  0.00     0.083 H 
ATOM     14  H8  MOL d          -7.454  56.238   8.817  0.00  0.00     0.086 H 
BRANCH   7  15
ATOM     15  C2  MOL d         -12.200  55.426  11.087  0.00  0.00     0.168 A 
ATOM     16  N3  MOL d         -13.018  54.401  10.794  0.00  0.00    -0.268 N 
ATOM     17  N4  MOL d         -14.163  54.592  11.540  0.00  0.00    -0.005 NA
ATOM     18  H11 MOL d         -12.829  53.626  10.142  0.00  0.00     0.185 HD
ATOM     19  N5  MOL d         -14.016  55.729  12.264  0.00  0.00     0.018 NA
ATOM     20  N1  MOL d         -12.790  56.226  11.993  0.00  0.00    -0.142 NA
ENDBRANCH   7  15
ENDBRANCH   3   5
BRANCH   2  21
ATOM     21  C15 MOL d          -5.767  53.490  12.268  0.00  0.00     0.033 A 
ATOM     22  C20 MOL d          -4.468  54.005  12.360  0.00  0.00    -0.054 A 
ATOM     23  C19 MOL d          -3.443  53.165  12.760  0.00  0.00     0.012 A 
ATOM     24  H1  MOL d          -4.269  55.043  12.122  0.00  0.00     0.086 H 
ATOM     25  C23 MOL d          -2.037  53.423  12.919  0.00  0.00     0.008 A 
ATOM     26  C18 MOL d          -3.706  51.835  13.052  0.00  0.00     0.088 A 
ATOM     27  N22 MOL d          -1.504  52.248  13.317  0.00  0.00    -0.288 N 
ATOM     28  H2  MOL d          -1.514  54.364  12.754  0.00  0.00     0.115 H 
ATOM     29  N21 MOL d          -2.511  51.284  13.397  0.00  0.00    -0.175 NA
ATOM     30  H3  MOL d          -0.509  52.088  13.529  0.00  0.00     0.188 HD
ATOM     31  C17 MOL d          -4.988  51.305  12.968  0.00  0.00    -0.052 A 
ATOM     32  C16 MOL d          -6.032  52.141  12.595  0.00  0.00    -0.065 A 
ATOM     33  H4  MOL d          -5.170  50.259  13.189  0.00  0.00     0.087 H 
ATOM     34  H5  MOL d          -7.046  51.760  12.555  0.00  0.00     0.085 H 
ENDBRANCH   2  21
TORSDOF 3
ENDMDL
MODEL 6
REMARK VINA RESULT:      -6.0      1.485      1.782
REMARK  3 active torsions:
REMARK  status: ('A' for Active; 'I' for Inactive)
REMARK    1  A    between atoms: C13_2  and  C15_3 
REMARK       I    between atoms: C13_2  and  N12_12 
REMARK    2  A    between atoms: N12_12  and  C8_13 
REMARK    3  A    between atoms: C6_18  and  C2_19 
ROOT
ATOM      1  O14 MOL d          -8.442  56.062  12.685  0.00  0.00    -0.267 OA
ATOM      2  C13 MOL d          -9.280  55.635  11.874  0.00  0.00     0.256 C 
ATOM      3  N12 MOL d          -9.243  54.369  11.439  0.00  0.00    -0.323 N 
ATOM      4  H6  MOL d          -9.946  54.078  10.790  0.00  0.00     0.169 HD
ENDROOT
BRANCH   3   5
ATOM      5  C8  MOL d          -8.286  53.423  11.829  0.00  0.00     0.035 A 
ATOM      6  C7  MOL d          -7.008  53.886  12.123  0.00  0.00    -0.043 A 
ATOM      7  C6  MOL d          -6.039  52.970  12.543  0.00  0.00     0.014 A 
ATOM      8  H7  MOL d          -6.767  54.938  12.029  0.00  0.00     0.088 H 
ATOM      9  C11 MOL d          -6.301  51.618  12.681  0.00  0.00    -0.069 A 
ATOM     10  C10 MOL d          -7.582  51.180  12.352  0.00  0.00    -0.080 A 
ATOM     11  H10 MOL d          -5.541  50.928  13.030  0.00  0.00     0.085 H 
ATOM     12  C9  MOL d          -8.572  52.049  11.898  0.00  0.00    -0.057 A 
ATOM     13  H9  MOL d          -7.817  50.127  12.453  0.00  0.00     0.083 H 
ATOM     14  H8  MOL d          -9.545  51.672  11.603  0.00  0.00     0.086 H 
BRANCH   7  15
ATOM     15  C2  MOL d          -4.694  53.456  12.875  0.00  0.00     0.168 A 
ATOM     16  N3  MOL d          -4.221  54.682  12.593  0.00  0.00    -0.268 N 
ATOM     17  N4  MOL d          -2.909  54.699  13.018  0.00  0.00    -0.005 NA
ATOM     18  H11 MOL d          -4.735  55.455  12.147  0.00  0.00     0.185 HD
ATOM     19  N5  MOL d          -2.614  53.485  13.544  0.00  0.00     0.018 NA
ATOM     20  N1  MOL d          -3.731  52.729  13.470  0.00  0.00    -0.142 NA
ENDBRANCH   7  15
ENDBRANCH   3   5
BRANCH   2  21
ATOM     21  C15 MOL d         -10.331  56.556  11.334  0.00  0.00     0.033 A 
ATOM     22  C20 MOL d         -11.095  56.102  10.251  0.00  0.00    -0.054 A 
ATOM     23  C19 MOL d         -12.125  56.898   9.778  0.00  0.00     0.012 A 
ATOM     24  H1  MOL d         -10.884  55.143   9.792  0.00  0.00     0.086 H 
ATOM     25  C23 MOL d         -13.039  56.687   8.688  0.00  0.00     0.008 A 
ATOM     26  C18 MOL d         -12.381  58.128  10.366  0.00  0.00     0.088 A 
ATOM     27  N22 MOL d         -13.824  57.785   8.666  0.00  0.00    -0.288 N 
ATOM     28  H2  MOL d         -13.087  55.826   8.023  0.00  0.00     0.115 H 
ATOM     29  N21 MOL d         -13.427  58.661   9.680  0.00  0.00    -0.175 NA
ATOM     30  H3  MOL d         -14.595  57.952   8.005  0.00  0.00     0.188 HD
ATOM     31  C17 MOL d         -11.635  58.596  11.442  0.00  0.00    -0.052 A 
ATOM     32  C16 MOL d         -10.617  57.798  11.946  0.00  0.00    -0.065 A 
ATOM     33  H4  MOL d         -11.844  59.566  11.879  0.00  0.00     0.087 H 
ATOM     34  H5  MOL d         -10.043  58.126  12.805  0.00  0.00     0.085 H 
ENDBRANCH   2  21
TORSDOF 3
ENDMDL
MODEL 7
REMARK VINA RESULT:      -5.4      2.267      8.519
REMARK  3 active torsions:
REMARK  status: ('A' for Active; 'I' for Inactive)
REMARK    1  A    between atoms: C13_2  and  C15_3 
REMARK       I    between atoms: C13_2  and  N12_12 
REMARK    2  A    between atoms: N12_12  and  C8_13 
REMARK    3  A    between atoms: C6_18  and  C2_19 
ROOT
ATOM      1  O14 MOL d          -8.481  55.395   9.934  0.00  0.00    -0.267 OA
ATOM      2  C13 MOL d          -8.800  54.421  10.635  0.00  0.00     0.256 C 
ATOM      3  N12 MOL d         -10.084  54.089  10.820  0.00  0.00    -0.323 N 
ATOM      4  H6  MOL d         -10.282  53.291  11.390  0.00  0.00     0.169 HD
ENDROOT
BRANCH   3   5
ATOM      5  C8  MOL d         -11.170  54.783  10.271  0.00  0.00     0.035 A 
ATOM      6  C7  MOL d         -11.580  55.947  10.913  0.00  0.00    -0.043 A 
ATOM      7  C6  MOL d         -12.643  56.677  10.373  0.00  0.00     0.014 A 
ATOM      8  H7  MOL d         -11.084  56.283  11.816  0.00  0.00     0.088 H 
ATOM      9  C11 MOL d         -13.304  56.289   9.221  0.00  0.00    -0.069 A 
ATOM     10  C10 MOL d         -12.890  55.104   8.616  0.00  0.00    -0.080 A 
ATOM     11  H10 MOL d         -14.111  56.882   8.806  0.00  0.00     0.085 H 
ATOM     12  C9  MOL d         -11.858  54.325   9.134  0.00  0.00    -0.057 A 
ATOM     13  H9  MOL d         -13.388  54.777   7.710  0.00  0.00     0.083 H 
ATOM     14  H8  MOL d         -11.589  53.383   8.669  0.00  0.00     0.086 H 
BRANCH   7  15
ATOM     15  C2  MOL d         -13.066  57.917  11.034  0.00  0.00     0.168 A 
ATOM     16  N3  MOL d         -12.626  58.348  12.229  0.00  0.00    -0.268 N 
ATOM     17  N4  MOL d         -13.317  59.510  12.501  0.00  0.00    -0.005 NA
ATOM     18  H11 MOL d         -11.913  57.900  12.823  0.00  0.00     0.185 HD
ATOM     19  N5  MOL d         -14.163  59.756  11.471  0.00  0.00     0.018 NA
ATOM     20  N1  MOL d         -13.986  58.776  10.558  0.00  0.00    -0.142 NA
ENDBRANCH   7  15
ENDBRANCH   3   5
BRANCH   2  21
ATOM     21  C15 MOL d          -7.738  53.619  11.325  0.00  0.00     0.033 A 
ATOM     22  C20 MOL d          -7.409  53.975  12.639  0.00  0.00    -0.054 A 
ATOM     23  C19 MOL d          -6.488  53.206  13.329  0.00  0.00     0.012 A 
ATOM     24  H1  MOL d          -7.869  54.838  13.107  0.00  0.00     0.086 H 
ATOM     25  C23 MOL d          -5.964  53.355  14.661  0.00  0.00     0.008 A 
ATOM     26  C18 MOL d          -5.897  52.110  12.718  0.00  0.00     0.088 A 
ATOM     27  N22 MOL d          -5.091  52.336  14.813  0.00  0.00    -0.288 N 
ATOM     28  H2  MOL d          -6.217  54.123  15.390  0.00  0.00     0.115 H 
ATOM     29  N21 MOL d          -5.046  51.582  13.638  0.00  0.00    -0.175 NA
ATOM     30  H3  MOL d          -4.542  52.145  15.664  0.00  0.00     0.188 HD
ATOM     31  C17 MOL d          -6.210  51.740  11.416  0.00  0.00    -0.052 A 
ATOM     32  C16 MOL d          -7.153  52.484  10.718  0.00  0.00    -0.065 A 
ATOM     33  H4  MOL d          -5.728  50.887  10.952  0.00  0.00     0.087 H 
ATOM     34  H5  MOL d          -7.439  52.195   9.714  0.00  0.00     0.085 H 
ENDBRANCH   2  21
TORSDOF 3
ENDMDL
