MODEL 1
REMARK VINA RESULT:      -6.7      0.000      0.000
REMARK  8 active torsions:
REMARK  status: ('A' for Active; 'I' for Inactive)
REMARK    1  A    between atoms: N1_1  and  C4_2 
REMARK    2  A    between atoms: C4_2  and  C6_3 
REMARK    3  A    between atoms: C4_2  and  C34_18 
REMARK    4  A    between atoms: C6_3  and  C9_4 
REMARK    5  A    between atoms: C14_7  and  O19_10 
REMARK    6  A    between atoms: O19_10  and  C20_11 
REMARK    7  A    between atoms: C20_11  and  C23_12 
REMARK       I    between atoms: C34_18  and  N36_20 
REMARK    8  A    between atoms: N36_20  and  C38_21 
ROOT
ATOM      1  C9  MS7 d          -9.051  -2.684 -31.063  0.00  0.00    -0.056 A 
ATOM      2  C10 MS7 d          -8.608  -3.869 -30.447  0.00  0.00    -0.074 A 
ATOM      3  C12 MS7 d          -7.237  -4.157 -30.289  0.00  0.00    -0.050 A 
ATOM      4  C14 MS7 d          -6.280  -3.236 -30.768  0.00  0.00     0.069 A 
ATOM      5  C15 MS7 d          -6.708  -2.056 -31.392  0.00  0.00    -0.050 A 
ATOM      6  C17 MS7 d          -8.087  -1.778 -31.542  0.00  0.00    -0.074 A 
ATOM      7  H7  MS7 d          -9.340  -4.579 -30.084  0.00  0.00     0.084 H 
ATOM      8  H8  MS7 d          -6.921  -5.075 -29.806  0.00  0.00     0.087 H 
ATOM      9  H9  MS7 d          -5.975  -1.349 -31.763  0.00  0.00     0.087 H 
ATOM     10  H10 MS7 d          -8.402  -0.862 -32.029  0.00  0.00     0.084 H 
ENDROOT
BRANCH   1  11
ATOM     11  C6  MS7 d         -10.562  -2.387 -31.218  0.00  0.00    -0.006 C 
ATOM     12  H5  MS7 d         -10.780  -2.189 -32.278  0.00  0.00     0.043 H 
ATOM     13  H6  MS7 d         -11.133  -3.266 -30.885  0.00  0.00     0.043 H 
BRANCH  11  14
ATOM     14  C4  MS7 d         -11.001  -1.147 -30.371  0.00  0.00     0.179 C 
ATOM     15  H4  MS7 d         -10.510  -0.249 -30.773  0.00  0.00     0.099 H 
BRANCH  14  16
ATOM     16  N1  MS7 d         -10.572  -1.340 -28.978  0.00  0.00    -0.066 N 
ATOM     17  H1  MS7 d         -11.383  -1.409 -28.384  0.00  0.00     0.275 HD
ATOM     18  H2  MS7 d         -10.008  -0.556 -28.688  0.00  0.00     0.275 HD
ATOM     19  H3  MS7 d         -10.031  -2.187 -28.908  0.00  0.00     0.275 HD
ENDBRANCH  14  16
BRANCH  14  20
ATOM     20  C34 MS7 d         -12.499  -0.951 -30.445  0.00  0.00     0.248 C 
ATOM     21  O35 MS7 d         -12.950  -0.879 -31.582  0.00  0.00    -0.271 OA
ATOM     22  N36 MS7 d         -13.279  -0.851 -29.309  0.00  0.00    -0.364 N 
ATOM     23  H18 MS7 d         -12.839  -0.918 -28.414  0.00  0.00     0.161 HD
BRANCH  22  24
ATOM     24  C38 MS7 d         -14.740  -0.649 -29.371  0.00  0.00    -0.018 C 
ATOM     25  H19 MS7 d         -15.127  -1.053 -30.318  0.00  0.00     0.056 H 
ATOM     26  H20 MS7 d         -14.964   0.427 -29.313  0.00  0.00     0.056 H 
ATOM     27  H21 MS7 d         -15.218  -1.169 -28.528  0.00  0.00     0.056 H 
ENDBRANCH  22  24
ENDBRANCH  14  20
ENDBRANCH  11  14
ENDBRANCH   1  11
BRANCH   4  28
ATOM     28  O19 MS7 d          -4.902  -3.479 -30.670  0.00  0.00    -0.347 OA
BRANCH  28  29
ATOM     29  C20 MS7 d          -4.322  -4.763 -30.353  0.00  0.00     0.050 C 
ATOM     30  H11 MS7 d          -4.595  -5.504 -31.119  0.00  0.00     0.082 H 
ATOM     31  H12 MS7 d          -4.674  -5.107 -29.369  0.00  0.00     0.082 H 
BRANCH  29  32
ATOM     32  C23 MS7 d          -2.829  -4.559 -30.332  0.00  0.00    -0.034 A 
ATOM     33  C24 MS7 d          -2.280  -3.306 -30.065  0.00  0.00    -0.075 A 
ATOM     34  C26 MS7 d          -0.893  -3.153 -30.031  0.00  0.00    -0.082 A 
ATOM     35  H13 MS7 d          -2.927  -2.454 -29.885  0.00  0.00     0.084 H 
ATOM     36  C28 MS7 d          -0.069  -4.260 -30.347  0.00  0.00    -0.083 A 
ATOM     37  H14 MS7 d          -0.452  -2.199 -29.765  0.00  0.00     0.083 H 
ATOM     38  C30 MS7 d          -0.652  -5.481 -30.673  0.00  0.00    -0.082 A 
ATOM     39  H15 MS7 d           1.009  -4.157 -30.336  0.00  0.00     0.083 H 
ATOM     40  C32 MS7 d          -2.024  -5.657 -30.655  0.00  0.00    -0.075 A 
ATOM     41  H16 MS7 d          -0.016  -6.314 -30.948  0.00  0.00     0.083 H 
ATOM     42  H17 MS7 d          -2.465  -6.621 -30.885  0.00  0.00     0.084 H 
ENDBRANCH  29  32
ENDBRANCH  28  29
ENDBRANCH   4  28
TORSDOF 8
ENDMDL
MODEL 2
REMARK VINA RESULT:      -6.6      1.499      1.910
REMARK  8 active torsions:
REMARK  status: ('A' for Active; 'I' for Inactive)
REMARK    1  A    between atoms: N1_1  and  C4_2 
REMARK    2  A    between atoms: C4_2  and  C6_3 
REMARK    3  A    between atoms: C4_2  and  C34_18 
REMARK    4  A    between atoms: C6_3  and  C9_4 
REMARK    5  A    between atoms: C14_7  and  O19_10 
REMARK    6  A    between atoms: O19_10  and  C20_11 
REMARK    7  A    between atoms: C20_11  and  C23_12 
REMARK       I    between atoms: C34_18  and  N36_20 
REMARK    8  A    between atoms: N36_20  and  C38_21 
ROOT
ATOM      1  C9  MS7 d          -8.642  -2.746 -31.607  0.00  0.00    -0.056 A 
ATOM      2  C10 MS7 d          -8.647  -4.006 -30.983  0.00  0.00    -0.074 A 
ATOM      3  C12 MS7 d          -7.476  -4.570 -30.436  0.00  0.00    -0.050 A 
ATOM      4  C14 MS7 d          -6.262  -3.854 -30.521  0.00  0.00     0.069 A 
ATOM      5  C15 MS7 d          -6.242  -2.600 -31.148  0.00  0.00    -0.050 A 
ATOM      6  C17 MS7 d          -7.425  -2.045 -31.691  0.00  0.00    -0.074 A 
ATOM      7  H7  MS7 d          -9.576  -4.560 -30.922  0.00  0.00     0.084 H 
ATOM      8  H8  MS7 d          -7.508  -5.541 -29.955  0.00  0.00     0.087 H 
ATOM      9  H9  MS7 d          -5.311  -2.050 -31.216  0.00  0.00     0.087 H 
ATOM     10  H10 MS7 d          -7.392  -1.076 -32.174  0.00  0.00     0.084 H 
ENDROOT
BRANCH   1  11
ATOM     11  C6  MS7 d          -9.942  -2.145 -32.193  0.00  0.00    -0.006 C 
ATOM     12  H5  MS7 d          -9.677  -1.364 -32.922  0.00  0.00     0.043 H 
ATOM     13  H6  MS7 d         -10.505  -2.942 -32.700  0.00  0.00     0.043 H 
BRANCH  11  14
ATOM     14  C4  MS7 d         -10.846  -1.514 -31.082  0.00  0.00     0.179 C 
ATOM     15  H4  MS7 d         -11.525  -0.784 -31.547  0.00  0.00     0.099 H 
BRANCH  14  16
ATOM     16  N1  MS7 d          -9.993  -0.818 -30.108  0.00  0.00    -0.066 N 
ATOM     17  H1  MS7 d          -9.384  -0.178 -30.592  0.00  0.00     0.275 HD
ATOM     18  H2  MS7 d          -9.440  -1.492 -29.603  0.00  0.00     0.275 HD
ATOM     19  H3  MS7 d         -10.572  -0.306 -29.460  0.00  0.00     0.275 HD
ENDBRANCH  14  16
BRANCH  14  20
ATOM     20  C34 MS7 d         -11.676  -2.578 -30.400  0.00  0.00     0.248 C 
ATOM     21  O35 MS7 d         -11.754  -2.464 -29.183  0.00  0.00    -0.271 OA
ATOM     22  N36 MS7 d         -12.281  -3.598 -31.109  0.00  0.00    -0.364 N 
ATOM     23  H18 MS7 d         -12.171  -3.625 -32.103  0.00  0.00     0.161 HD
BRANCH  22  24
ATOM     24  C38 MS7 d         -13.085  -4.647 -30.453  0.00  0.00    -0.018 C 
ATOM     25  H19 MS7 d         -13.021  -5.577 -31.037  0.00  0.00     0.056 H 
ATOM     26  H20 MS7 d         -14.135  -4.322 -30.394  0.00  0.00     0.056 H 
ATOM     27  H21 MS7 d         -12.699  -4.823 -29.438  0.00  0.00     0.056 H 
ENDBRANCH  22  24
ENDBRANCH  14  20
ENDBRANCH  11  14
ENDBRANCH   1  11
BRANCH   4  28
ATOM     28  O19 MS7 d          -5.058  -4.373 -30.025  0.00  0.00    -0.347 OA
BRANCH  28  29
ATOM     29  C20 MS7 d          -4.226  -5.318 -30.733  0.00  0.00     0.050 C 
ATOM     30  H11 MS7 d          -4.481  -5.323 -31.803  0.00  0.00     0.082 H 
ATOM     31  H12 MS7 d          -4.360  -6.329 -30.319  0.00  0.00     0.082 H 
BRANCH  29  32
ATOM     32  C23 MS7 d          -2.803  -4.858 -30.537  0.00  0.00    -0.034 A 
ATOM     33  C24 MS7 d          -1.737  -5.745 -30.679  0.00  0.00    -0.075 A 
ATOM     34  C26 MS7 d          -0.431  -5.283 -30.513  0.00  0.00    -0.082 A 
ATOM     35  H13 MS7 d          -1.922  -6.786 -30.916  0.00  0.00     0.084 H 
ATOM     36  C28 MS7 d          -0.217  -3.939 -30.124  0.00  0.00    -0.083 A 
ATOM     37  H14 MS7 d           0.411  -5.946 -30.679  0.00  0.00     0.083 H 
ATOM     38  C30 MS7 d          -1.309  -3.098 -29.928  0.00  0.00    -0.082 A 
ATOM     39  H15 MS7 d           0.790  -3.566 -29.981  0.00  0.00     0.083 H 
ATOM     40  C32 MS7 d          -2.605  -3.530 -30.145  0.00  0.00    -0.075 A 
ATOM     41  H16 MS7 d          -1.139  -2.080 -29.597  0.00  0.00     0.083 H 
ATOM     42  H17 MS7 d          -3.445  -2.856 -30.015  0.00  0.00     0.084 H 
ENDBRANCH  29  32
ENDBRANCH  28  29
ENDBRANCH   4  28
TORSDOF 8
ENDMDL
MODEL 3
REMARK VINA RESULT:      -6.6      1.363      1.407
REMARK  8 active torsions:
REMARK  status: ('A' for Active; 'I' for Inactive)
REMARK    1  A    between atoms: N1_1  and  C4_2 
REMARK    2  A    between atoms: C4_2  and  C6_3 
REMARK    3  A    between atoms: C4_2  and  C34_18 
REMARK    4  A    between atoms: C6_3  and  C9_4 
REMARK    5  A    between atoms: C14_7  and  O19_10 
REMARK    6  A    between atoms: O19_10  and  C20_11 
REMARK    7  A    between atoms: C20_11  and  C23_12 
REMARK       I    between atoms: C34_18  and  N36_20 
REMARK    8  A    between atoms: N36_20  and  C38_21 
ROOT
ATOM      1  C9  MS7 d          -8.980  -2.485 -30.546  0.00  0.00    -0.056 A 
ATOM      2  C10 MS7 d          -8.515  -3.673 -29.954  0.00  0.00    -0.074 A 
ATOM      3  C12 MS7 d          -7.173  -4.087 -30.072  0.00  0.00    -0.050 A 
ATOM      4  C14 MS7 d          -6.269  -3.293 -30.810  0.00  0.00     0.069 A 
ATOM      5  C15 MS7 d          -6.722  -2.111 -31.413  0.00  0.00    -0.050 A 
ATOM      6  C17 MS7 d          -8.071  -1.705 -31.285  0.00  0.00    -0.074 A 
ATOM      7  H7  MS7 d          -9.208  -4.287 -29.391  0.00  0.00     0.084 H 
ATOM      8  H8  MS7 d          -6.839  -5.005 -29.601  0.00  0.00     0.087 H 
ATOM      9  H9  MS7 d          -6.030  -1.501 -31.983  0.00  0.00     0.087 H 
ATOM     10  H10 MS7 d          -8.406  -0.790 -31.759  0.00  0.00     0.084 H 
ENDROOT
BRANCH   1  11
ATOM     11  C6  MS7 d         -10.457  -2.047 -30.396  0.00  0.00    -0.006 C 
ATOM     12  H5  MS7 d         -10.580  -1.531 -29.432  0.00  0.00     0.043 H 
ATOM     13  H6  MS7 d         -10.709  -1.357 -31.215  0.00  0.00     0.043 H 
BRANCH  11  14
ATOM     14  C4  MS7 d         -11.434  -3.269 -30.444  0.00  0.00     0.179 C 
ATOM     15  H4  MS7 d         -10.965  -4.120 -29.929  0.00  0.00     0.099 H 
BRANCH  14  16
ATOM     16  N1  MS7 d         -11.676  -3.636 -31.847  0.00  0.00    -0.066 N 
ATOM     17  H1  MS7 d         -12.123  -2.868 -32.322  0.00  0.00     0.275 HD
ATOM     18  H2  MS7 d         -12.272  -4.448 -31.884  0.00  0.00     0.275 HD
ATOM     19  H3  MS7 d         -10.798  -3.844 -32.296  0.00  0.00     0.275 HD
ENDBRANCH  14  16
BRANCH  14  20
ATOM     20  C34 MS7 d         -12.736  -2.941 -29.747  0.00  0.00     0.248 C 
ATOM     21  O35 MS7 d         -13.352  -3.914 -29.330  0.00  0.00    -0.271 OA
ATOM     22  N36 MS7 d         -13.184  -1.641 -29.611  0.00  0.00    -0.364 N 
ATOM     23  H18 MS7 d         -12.625  -0.898 -29.979  0.00  0.00     0.161 HD
BRANCH  22  24
ATOM     24  C38 MS7 d         -14.457  -1.312 -28.942  0.00  0.00    -0.018 C 
ATOM     25  H19 MS7 d         -14.862  -2.214 -28.458  0.00  0.00     0.056 H 
ATOM     26  H20 MS7 d         -15.177  -0.940 -29.686  0.00  0.00     0.056 H 
ATOM     27  H21 MS7 d         -14.282  -0.536 -28.182  0.00  0.00     0.056 H 
ENDBRANCH  22  24
ENDBRANCH  14  20
ENDBRANCH  11  14
ENDBRANCH   1  11
BRANCH   4  28
ATOM     28  O19 MS7 d          -4.930  -3.665 -30.992  0.00  0.00    -0.347 OA
BRANCH  28  29
ATOM     29  C20 MS7 d          -4.344  -4.878 -30.469  0.00  0.00     0.050 C 
ATOM     30  H11 MS7 d          -4.533  -5.718 -31.155  0.00  0.00     0.082 H 
ATOM     31  H12 MS7 d          -4.767  -5.110 -29.480  0.00  0.00     0.082 H 
BRANCH  29  32
ATOM     32  C23 MS7 d          -2.864  -4.618 -30.356  0.00  0.00    -0.034 A 
ATOM     33  C24 MS7 d          -2.380  -3.343 -30.070  0.00  0.00    -0.075 A 
ATOM     34  C26 MS7 d          -1.004  -3.139 -29.950  0.00  0.00    -0.082 A 
ATOM     35  H13 MS7 d          -3.067  -2.515 -29.942  0.00  0.00     0.084 H 
ATOM     36  C28 MS7 d          -0.122  -4.217 -30.200  0.00  0.00    -0.083 A 
ATOM     37  H14 MS7 d          -0.616  -2.166 -29.668  0.00  0.00     0.083 H 
ATOM     38  C30 MS7 d          -0.638  -5.462 -30.548  0.00  0.00    -0.082 A 
ATOM     39  H15 MS7 d           0.949  -4.074 -30.122  0.00  0.00     0.083 H 
ATOM     40  C32 MS7 d          -2.001  -5.689 -30.614  0.00  0.00    -0.075 A 
ATOM     41  H16 MS7 d           0.045  -6.273 -30.772  0.00  0.00     0.083 H 
ATOM     42  H17 MS7 d          -2.390  -6.671 -30.860  0.00  0.00     0.084 H 
ENDBRANCH  29  32
ENDBRANCH  28  29
ENDBRANCH   4  28
TORSDOF 8
ENDMDL
MODEL 4
REMARK VINA RESULT:      -5.8      1.785      2.546
REMARK  8 active torsions:
REMARK  status: ('A' for Active; 'I' for Inactive)
REMARK    1  A    between atoms: N1_1  and  C4_2 
REMARK    2  A    between atoms: C4_2  and  C6_3 
REMARK    3  A    between atoms: C4_2  and  C34_18 
REMARK    4  A    between atoms: C6_3  and  C9_4 
REMARK    5  A    between atoms: C14_7  and  O19_10 
REMARK    6  A    between atoms: O19_10  and  C20_11 
REMARK    7  A    between atoms: C20_11  and  C23_12 
REMARK       I    between atoms: C34_18  and  N36_20 
REMARK    8  A    between atoms: N36_20  and  C38_21 
ROOT
ATOM      1  C9  MS7 d          -9.815  -4.724 -29.811  0.00  0.00    -0.056 A 
ATOM      2  C10 MS7 d          -9.368  -5.442 -30.935  0.00  0.00    -0.074 A 
ATOM      3  C12 MS7 d          -7.999  -5.544 -31.256  0.00  0.00    -0.050 A 
ATOM      4  C14 MS7 d          -7.049  -4.901 -30.432  0.00  0.00     0.069 A 
ATOM      5  C15 MS7 d          -7.483  -4.174 -29.314  0.00  0.00    -0.050 A 
ATOM      6  C17 MS7 d          -8.860  -4.083 -29.002  0.00  0.00    -0.074 A 
ATOM      7  H7  MS7 d         -10.095  -5.932 -31.571  0.00  0.00     0.084 H 
ATOM      8  H8  MS7 d          -7.679  -6.108 -32.124  0.00  0.00     0.087 H 
ATOM      9  H9  MS7 d          -6.755  -3.678 -28.682  0.00  0.00     0.087 H 
ATOM     10  H10 MS7 d          -9.179  -3.515 -28.136  0.00  0.00     0.084 H 
ENDROOT
BRANCH   1  11
ATOM     11  C6  MS7 d         -11.324  -4.634 -29.476  0.00  0.00    -0.006 C 
ATOM     12  H5  MS7 d         -11.897  -5.124 -30.277  0.00  0.00     0.043 H 
ATOM     13  H6  MS7 d         -11.508  -5.153 -28.524  0.00  0.00     0.043 H 
BRANCH  11  14
ATOM     14  C4  MS7 d         -11.804  -3.150 -29.344  0.00  0.00     0.179 C 
ATOM     15  H4  MS7 d         -11.215  -2.654 -28.559  0.00  0.00     0.099 H 
BRANCH  14  16
ATOM     16  N1  MS7 d         -13.221  -3.136 -28.956  0.00  0.00    -0.066 N 
ATOM     17  H1  MS7 d         -13.348  -3.697 -28.128  0.00  0.00     0.275 HD
ATOM     18  H2  MS7 d         -13.779  -3.512 -29.706  0.00  0.00     0.275 HD
ATOM     19  H3  MS7 d         -13.509  -2.189 -28.767  0.00  0.00     0.275 HD
ENDBRANCH  14  16
BRANCH  14  20
ATOM     20  C34 MS7 d         -11.600  -2.405 -30.644  0.00  0.00     0.248 C 
ATOM     21  O35 MS7 d         -12.298  -2.793 -31.572  0.00  0.00    -0.271 OA
ATOM     22  N36 MS7 d         -10.684  -1.376 -30.760  0.00  0.00    -0.364 N 
ATOM     23  H18 MS7 d         -10.147  -1.116 -29.957  0.00  0.00     0.161 HD
BRANCH  22  24
ATOM     24  C38 MS7 d         -10.469  -0.650 -32.026  0.00  0.00    -0.018 C 
ATOM     25  H19 MS7 d         -10.538   0.433 -31.843  0.00  0.00     0.056 H 
ATOM     26  H20 MS7 d         -11.237  -0.947 -32.755  0.00  0.00     0.056 H 
ATOM     27  H21 MS7 d          -9.472  -0.892 -32.424  0.00  0.00     0.056 H 
ENDBRANCH  22  24
ENDBRANCH  14  20
ENDBRANCH  11  14
ENDBRANCH   1  11
BRANCH   4  28
ATOM     28  O19 MS7 d          -5.676  -4.937 -30.714  0.00  0.00    -0.347 OA
BRANCH  28  29
ATOM     29  C20 MS7 d          -4.770  -3.833 -30.494  0.00  0.00     0.050 C 
ATOM     30  H11 MS7 d          -4.981  -3.355 -29.526  0.00  0.00     0.082 H 
ATOM     31  H12 MS7 d          -4.872  -3.090 -31.300  0.00  0.00     0.082 H 
BRANCH  29  32
ATOM     32  C23 MS7 d          -3.382  -4.419 -30.496  0.00  0.00    -0.034 A 
ATOM     33  C24 MS7 d          -3.170  -5.760 -30.811  0.00  0.00    -0.075 A 
ATOM     34  C26 MS7 d          -1.870  -6.267 -30.826  0.00  0.00    -0.082 A 
ATOM     35  H13 MS7 d          -4.009  -6.405 -31.043  0.00  0.00     0.084 H 
ATOM     36  C28 MS7 d          -0.796  -5.427 -30.442  0.00  0.00    -0.083 A 
ATOM     37  H14 MS7 d          -1.684  -7.292 -31.128  0.00  0.00     0.083 H 
ATOM     38  C30 MS7 d          -1.052  -4.111 -30.070  0.00  0.00    -0.082 A 
ATOM     39  H15 MS7 d           0.218  -5.808 -30.438  0.00  0.00     0.083 H 
ATOM     40  C32 MS7 d          -2.329  -3.582 -30.107  0.00  0.00    -0.075 A 
ATOM     41  H16 MS7 d          -0.230  -3.485 -29.745  0.00  0.00     0.083 H 
ATOM     42  H17 MS7 d          -2.511  -2.547 -29.841  0.00  0.00     0.084 H 
ENDBRANCH  29  32
ENDBRANCH  28  29
ENDBRANCH   4  28
TORSDOF 8
ENDMDL
MODEL 5
REMARK VINA RESULT:      -5.5      3.470      9.144
REMARK  8 active torsions:
REMARK  status: ('A' for Active; 'I' for Inactive)
REMARK    1  A    between atoms: N1_1  and  C4_2 
REMARK    2  A    between atoms: C4_2  and  C6_3 
REMARK    3  A    between atoms: C4_2  and  C34_18 
REMARK    4  A    between atoms: C6_3  and  C9_4 
REMARK    5  A    between atoms: C14_7  and  O19_10 
REMARK    6  A    between atoms: O19_10  and  C20_11 
REMARK    7  A    between atoms: C20_11  and  C23_12 
REMARK       I    between atoms: C34_18  and  N36_20 
REMARK    8  A    between atoms: N36_20  and  C38_21 
ROOT
ATOM      1  C9  MS7 d          -5.544  -3.769 -30.635  0.00  0.00    -0.056 A 
ATOM      2  C10 MS7 d          -6.591  -4.689 -30.444  0.00  0.00    -0.074 A 
ATOM      3  C12 MS7 d          -7.922  -4.384 -30.792  0.00  0.00    -0.050 A 
ATOM      4  C14 MS7 d          -8.217  -3.116 -31.340  0.00  0.00     0.069 A 
ATOM      5  C15 MS7 d          -7.184  -2.187 -31.526  0.00  0.00    -0.050 A 
ATOM      6  C17 MS7 d          -5.852  -2.507 -31.175  0.00  0.00    -0.074 A 
ATOM      7  H7  MS7 d          -6.367  -5.661 -30.019  0.00  0.00     0.084 H 
ATOM      8  H8  MS7 d          -8.710  -5.113 -30.640  0.00  0.00     0.087 H 
ATOM      9  H9  MS7 d          -7.409  -1.212 -31.943  0.00  0.00     0.087 H 
ATOM     10  H10 MS7 d          -5.065  -1.777 -31.323  0.00  0.00     0.084 H 
ENDROOT
BRANCH   1  11
ATOM     11  C6  MS7 d          -4.088  -4.132 -30.253  0.00  0.00    -0.006 C 
ATOM     12  H5  MS7 d          -3.426  -3.304 -30.545  0.00  0.00     0.043 H 
ATOM     13  H6  MS7 d          -4.032  -4.278 -29.164  0.00  0.00     0.043 H 
BRANCH  11  14
ATOM     14  C4  MS7 d          -3.608  -5.440 -30.965  0.00  0.00     0.179 C 
ATOM     15  H4  MS7 d          -4.171  -5.562 -31.902  0.00  0.00     0.099 H 
BRANCH  14  16
ATOM     16  N1  MS7 d          -3.881  -6.591 -30.093  0.00  0.00    -0.066 N 
ATOM     17  H1  MS7 d          -3.468  -6.431 -29.187  0.00  0.00     0.275 HD
ATOM     18  H2  MS7 d          -3.486  -7.423 -30.501  0.00  0.00     0.275 HD
ATOM     19  H3  MS7 d          -4.877  -6.707 -29.992  0.00  0.00     0.275 HD
ENDBRANCH  14  16
BRANCH  14  20
ATOM     20  C34 MS7 d          -2.134  -5.359 -31.296  0.00  0.00     0.248 C 
ATOM     21  O35 MS7 d          -1.804  -5.957 -32.311  0.00  0.00    -0.271 OA
ATOM     22  N36 MS7 d          -1.244  -4.669 -30.495  0.00  0.00    -0.364 N 
ATOM     23  H18 MS7 d          -1.588  -4.205 -29.679  0.00  0.00     0.161 HD
BRANCH  22  24
ATOM     24  C38 MS7 d           0.198  -4.592 -30.803  0.00  0.00    -0.018 C 
ATOM     25  H19 MS7 d           0.363  -3.858 -31.606  0.00  0.00     0.056 H 
ATOM     26  H20 MS7 d           0.556  -5.580 -31.130  0.00  0.00     0.056 H 
ATOM     27  H21 MS7 d           0.749  -4.282 -29.903  0.00  0.00     0.056 H 
ENDBRANCH  22  24
ENDBRANCH  14  20
ENDBRANCH  11  14
ENDBRANCH   1  11
BRANCH   4  28
ATOM     28  O19 MS7 d          -9.525  -2.738 -31.676  0.00  0.00    -0.347 OA
BRANCH  28  29
ATOM     29  C20 MS7 d         -10.675  -3.608 -31.575  0.00  0.00     0.050 C 
ATOM     30  H11 MS7 d         -10.380  -4.581 -31.157  0.00  0.00     0.082 H 
ATOM     31  H12 MS7 d         -11.127  -3.756 -32.567  0.00  0.00     0.082 H 
BRANCH  29  32
ATOM     32  C23 MS7 d         -11.648  -2.916 -30.655  0.00  0.00    -0.034 A 
ATOM     33  C24 MS7 d         -11.335  -1.690 -30.071  0.00  0.00    -0.075 A 
ATOM     34  C26 MS7 d         -12.266  -1.064 -29.241  0.00  0.00    -0.082 A 
ATOM     35  H13 MS7 d         -10.374  -1.225 -30.260  0.00  0.00     0.084 H 
ATOM     36  C28 MS7 d         -13.482  -1.727 -28.945  0.00  0.00    -0.083 A 
ATOM     37  H14 MS7 d         -12.062  -0.082 -28.829  0.00  0.00     0.083 H 
ATOM     38  C30 MS7 d         -13.734  -2.981 -29.493  0.00  0.00    -0.082 A 
ATOM     39  H15 MS7 d         -14.212  -1.260 -28.294  0.00  0.00     0.083 H 
ATOM     40  C32 MS7 d         -12.842  -3.584 -30.362  0.00  0.00    -0.075 A 
ATOM     41  H16 MS7 d         -14.650  -3.497 -29.234  0.00  0.00     0.083 H 
ATOM     42  H17 MS7 d         -13.063  -4.549 -30.804  0.00  0.00     0.084 H 
ENDBRANCH  29  32
ENDBRANCH  28  29
ENDBRANCH   4  28
TORSDOF 8
ENDMDL
MODEL 6
REMARK VINA RESULT:      -5.4      3.731      8.940
REMARK  8 active torsions:
REMARK  status: ('A' for Active; 'I' for Inactive)
REMARK    1  A    between atoms: N1_1  and  C4_2 
REMARK    2  A    between atoms: C4_2  and  C6_3 
REMARK    3  A    between atoms: C4_2  and  C34_18 
REMARK    4  A    between atoms: C6_3  and  C9_4 
REMARK    5  A    between atoms: C14_7  and  O19_10 
REMARK    6  A    between atoms: O19_10  and  C20_11 
REMARK    7  A    between atoms: C20_11  and  C23_12 
REMARK       I    between atoms: C34_18  and  N36_20 
REMARK    8  A    between atoms: N36_20  and  C38_21 
ROOT
ATOM      1  C9  MS7 d          -5.511  -3.764 -30.547  0.00  0.00    -0.056 A 
ATOM      2  C10 MS7 d          -6.583  -4.657 -30.367  0.00  0.00    -0.074 A 
ATOM      3  C12 MS7 d          -7.907  -4.305 -30.696  0.00  0.00    -0.050 A 
ATOM      4  C14 MS7 d          -8.169  -3.018 -31.215  0.00  0.00     0.069 A 
ATOM      5  C15 MS7 d          -7.110  -2.116 -31.391  0.00  0.00    -0.050 A 
ATOM      6  C17 MS7 d          -5.785  -2.483 -31.058  0.00  0.00    -0.074 A 
ATOM      7  H7  MS7 d          -6.385  -5.643 -29.964  0.00  0.00     0.084 H 
ATOM      8  H8  MS7 d          -8.715  -5.013 -30.553  0.00  0.00     0.087 H 
ATOM      9  H9  MS7 d          -7.310  -1.126 -31.786  0.00  0.00     0.087 H 
ATOM     10  H10 MS7 d          -4.978  -1.773 -31.198  0.00  0.00     0.084 H 
ENDROOT
BRANCH   1  11
ATOM     11  C6  MS7 d          -4.063  -4.178 -30.185  0.00  0.00    -0.006 C 
ATOM     12  H5  MS7 d          -3.385  -3.346 -30.424  0.00  0.00     0.043 H 
ATOM     13  H6  MS7 d          -4.014  -4.391 -29.107  0.00  0.00     0.043 H 
BRANCH  11  14
ATOM     14  C4  MS7 d          -3.606  -5.448 -30.975  0.00  0.00     0.179 C 
ATOM     15  H4  MS7 d          -4.150  -5.489 -31.930  0.00  0.00     0.099 H 
BRANCH  14  16
ATOM     16  N1  MS7 d          -3.934  -6.647 -30.190  0.00  0.00    -0.066 N 
ATOM     17  H1  MS7 d          -3.083  -7.083 -29.871  0.00  0.00     0.275 HD
ATOM     18  H2  MS7 d          -4.450  -7.294 -30.765  0.00  0.00     0.275 HD
ATOM     19  H3  MS7 d          -4.495  -6.384 -29.395  0.00  0.00     0.275 HD
ENDBRANCH  14  16
BRANCH  14  20
ATOM     20  C34 MS7 d          -2.123  -5.392 -31.267  0.00  0.00     0.248 C 
ATOM     21  O35 MS7 d          -1.768  -6.045 -32.240  0.00  0.00    -0.271 OA
ATOM     22  N36 MS7 d          -1.251  -4.665 -30.479  0.00  0.00    -0.364 N 
ATOM     23  H18 MS7 d          -1.616  -4.157 -29.699  0.00  0.00     0.161 HD
BRANCH  22  24
ATOM     24  C38 MS7 d           0.199  -4.611 -30.749  0.00  0.00    -0.018 C 
ATOM     25  H19 MS7 d           0.422  -3.739 -31.382  0.00  0.00     0.056 H 
ATOM     26  H20 MS7 d           0.509  -5.530 -31.269  0.00  0.00     0.056 H 
ATOM     27  H21 MS7 d           0.746  -4.525 -29.799  0.00  0.00     0.056 H 
ENDBRANCH  22  24
ENDBRANCH  14  20
ENDBRANCH  11  14
ENDBRANCH   1  11
BRANCH   4  28
ATOM     28  O19 MS7 d          -9.468  -2.595 -31.532  0.00  0.00    -0.347 OA
BRANCH  28  29
ATOM     29  C20 MS7 d         -10.150  -2.915 -32.765  0.00  0.00     0.050 C 
ATOM     30  H11 MS7 d          -9.420  -3.140 -33.556  0.00  0.00     0.082 H 
ATOM     31  H12 MS7 d         -10.784  -2.072 -33.079  0.00  0.00     0.082 H 
BRANCH  29  32
ATOM     32  C23 MS7 d         -10.998  -4.127 -32.476  0.00  0.00    -0.034 A 
ATOM     33  C24 MS7 d         -10.714  -5.358 -33.066  0.00  0.00    -0.075 A 
ATOM     34  C26 MS7 d         -11.505  -6.467 -32.761  0.00  0.00    -0.082 A 
ATOM     35  H13 MS7 d          -9.885  -5.453 -33.758  0.00  0.00     0.084 H 
ATOM     36  C28 MS7 d         -12.630  -6.302 -31.917  0.00  0.00    -0.083 A 
ATOM     37  H14 MS7 d         -11.260  -7.443 -33.164  0.00  0.00     0.083 H 
ATOM     38  C30 MS7 d         -12.922  -5.044 -31.397  0.00  0.00    -0.082 A 
ATOM     39  H15 MS7 d         -13.261  -7.150 -31.678  0.00  0.00     0.083 H 
ATOM     40  C32 MS7 d         -12.112  -3.951 -31.648  0.00  0.00    -0.075 A 
ATOM     41  H16 MS7 d         -13.804  -4.919 -30.781  0.00  0.00     0.083 H 
ATOM     42  H17 MS7 d         -12.335  -2.982 -31.214  0.00  0.00     0.084 H 
ENDBRANCH  29  32
ENDBRANCH  28  29
ENDBRANCH   4  28
TORSDOF 8
ENDMDL
MODEL 7
REMARK VINA RESULT:      -5.2      2.717      2.998
REMARK  8 active torsions:
REMARK  status: ('A' for Active; 'I' for Inactive)
REMARK    1  A    between atoms: N1_1  and  C4_2 
REMARK    2  A    between atoms: C4_2  and  C6_3 
REMARK    3  A    between atoms: C4_2  and  C34_18 
REMARK    4  A    between atoms: C6_3  and  C9_4 
REMARK    5  A    between atoms: C14_7  and  O19_10 
REMARK    6  A    between atoms: O19_10  and  C20_11 
REMARK    7  A    between atoms: C20_11  and  C23_12 
REMARK       I    between atoms: C34_18  and  N36_20 
REMARK    8  A    between atoms: N36_20  and  C38_21 
ROOT
ATOM      1  C9  MS7 d          -9.896  -3.915 -30.116  0.00  0.00    -0.056 A 
ATOM      2  C10 MS7 d          -9.041  -4.254 -29.052  0.00  0.00    -0.074 A 
ATOM      3  C12 MS7 d          -7.638  -4.218 -29.185  0.00  0.00    -0.050 A 
ATOM      4  C14 MS7 d          -7.073  -3.838 -30.422  0.00  0.00     0.069 A 
ATOM      5  C15 MS7 d          -7.915  -3.507 -31.493  0.00  0.00    -0.050 A 
ATOM      6  C17 MS7 d          -9.321  -3.545 -31.345  0.00  0.00    -0.074 A 
ATOM      7  H7  MS7 d          -9.472  -4.550 -28.103  0.00  0.00     0.084 H 
ATOM      8  H8  MS7 d          -7.001  -4.478 -28.347  0.00  0.00     0.087 H 
ATOM      9  H9  MS7 d          -7.483  -3.217 -32.444  0.00  0.00     0.087 H 
ATOM     10  H10 MS7 d          -9.958  -3.287 -32.184  0.00  0.00     0.084 H 
ENDROOT
BRANCH   1  11
ATOM     11  C6  MS7 d         -11.434  -3.954 -29.942  0.00  0.00    -0.006 C 
ATOM     12  H5  MS7 d         -11.683  -3.687 -28.905  0.00  0.00     0.043 H 
ATOM     13  H6  MS7 d         -11.888  -3.224 -30.628  0.00  0.00     0.043 H 
BRANCH  11  14
ATOM     14  C4  MS7 d         -12.019  -5.373 -30.253  0.00  0.00     0.179 C 
ATOM     15  H4  MS7 d         -12.585  -5.724 -29.377  0.00  0.00     0.099 H 
BRANCH  14  16
ATOM     16  N1  MS7 d         -10.911  -6.304 -30.508  0.00  0.00    -0.066 N 
ATOM     17  H1  MS7 d         -10.708  -6.823 -29.668  0.00  0.00     0.275 HD
ATOM     18  H2  MS7 d         -10.093  -5.785 -30.788  0.00  0.00     0.275 HD
ATOM     19  H3  MS7 d         -11.171  -6.942 -31.243  0.00  0.00     0.275 HD
ENDBRANCH  14  16
BRANCH  14  20
ATOM     20  C34 MS7 d         -12.954  -5.318 -31.440  0.00  0.00     0.248 C 
ATOM     21  O35 MS7 d         -13.081  -4.207 -31.941  0.00  0.00    -0.271 OA
ATOM     22  N36 MS7 d         -13.613  -6.441 -31.903  0.00  0.00    -0.364 N 
ATOM     23  H18 MS7 d         -13.460  -7.314 -31.441  0.00  0.00     0.161 HD
BRANCH  22  24
ATOM     24  C38 MS7 d         -14.535  -6.396 -33.054  0.00  0.00    -0.018 C 
ATOM     25  H19 MS7 d         -14.998  -7.385 -33.192  0.00  0.00     0.056 H 
ATOM     26  H20 MS7 d         -13.977  -6.123 -33.961  0.00  0.00     0.056 H 
ATOM     27  H21 MS7 d         -15.319  -5.647 -32.867  0.00  0.00     0.056 H 
ENDBRANCH  22  24
ENDBRANCH  14  20
ENDBRANCH  11  14
ENDBRANCH   1  11
BRANCH   4  28
ATOM     28  O19 MS7 d          -5.686  -3.813 -30.629  0.00  0.00    -0.347 OA
BRANCH  28  29
ATOM     29  C20 MS7 d          -4.831  -4.975 -30.555  0.00  0.00     0.050 C 
ATOM     30  H11 MS7 d          -4.909  -5.563 -31.482  0.00  0.00     0.082 H 
ATOM     31  H12 MS7 d          -5.115  -5.603 -29.697  0.00  0.00     0.082 H 
BRANCH  29  32
ATOM     32  C23 MS7 d          -3.427  -4.456 -30.382  0.00  0.00    -0.034 A 
ATOM     33  C24 MS7 d          -3.180  -3.092 -30.237  0.00  0.00    -0.075 A 
ATOM     34  C26 MS7 d          -1.870  -2.644 -30.056  0.00  0.00    -0.082 A 
ATOM     35  H13 MS7 d          -3.999  -2.383 -30.266  0.00  0.00     0.084 H 
ATOM     36  C28 MS7 d          -0.808  -3.580 -30.102  0.00  0.00    -0.083 A 
ATOM     37  H14 MS7 d          -1.668  -1.593 -29.882  0.00  0.00     0.083 H 
ATOM     38  C30 MS7 d          -1.086  -4.927 -30.313  0.00  0.00    -0.082 A 
ATOM     39  H15 MS7 d           0.216  -3.248 -29.973  0.00  0.00     0.083 H 
ATOM     40  C32 MS7 d          -2.385  -5.388 -30.437  0.00  0.00    -0.075 A 
ATOM     41  H16 MS7 d          -0.267  -5.632 -30.382  0.00  0.00     0.083 H 
ATOM     42  H17 MS7 d          -2.589  -6.444 -30.574  0.00  0.00     0.084 H 
ENDBRANCH  29  32
ENDBRANCH  28  29
ENDBRANCH   4  28
TORSDOF 8
ENDMDL
MODEL 8
REMARK VINA RESULT:      -3.9      2.962      9.364
REMARK  8 active torsions:
REMARK  status: ('A' for Active; 'I' for Inactive)
REMARK    1  A    between atoms: N1_1  and  C4_2 
REMARK    2  A    between atoms: C4_2  and  C6_3 
REMARK    3  A    between atoms: C4_2  and  C34_18 
REMARK    4  A    between atoms: C6_3  and  C9_4 
REMARK    5  A    between atoms: C14_7  and  O19_10 
REMARK    6  A    between atoms: O19_10  and  C20_11 
REMARK    7  A    between atoms: C20_11  and  C23_12 
REMARK       I    between atoms: C34_18  and  N36_20 
REMARK    8  A    between atoms: N36_20  and  C38_21 
ROOT
ATOM      1  C9  MS7 d          -7.051  -4.066 -30.384  0.00  0.00    -0.056 A 
ATOM      2  C10 MS7 d          -7.922  -4.397 -29.330  0.00  0.00    -0.074 A 
ATOM      3  C12 MS7 d          -9.139  -3.714 -29.129  0.00  0.00    -0.050 A 
ATOM      4  C14 MS7 d          -9.492  -2.664 -30.004  0.00  0.00     0.069 A 
ATOM      5  C15 MS7 d          -8.628  -2.318 -31.053  0.00  0.00    -0.050 A 
ATOM      6  C17 MS7 d          -7.411  -3.013 -31.245  0.00  0.00    -0.074 A 
ATOM      7  H7  MS7 d          -7.651  -5.199 -28.655  0.00  0.00     0.084 H 
ATOM      8  H8  MS7 d          -9.796  -3.992 -28.313  0.00  0.00     0.087 H 
ATOM      9  H9  MS7 d          -8.896  -1.510 -31.724  0.00  0.00     0.087 H 
ATOM     10  H10 MS7 d          -6.752  -2.732 -32.059  0.00  0.00     0.084 H 
ENDROOT
BRANCH   1  11
ATOM     11  C6  MS7 d          -5.723  -4.836 -30.589  0.00  0.00    -0.006 C 
ATOM     12  H5  MS7 d          -5.769  -5.780 -30.026  0.00  0.00     0.043 H 
ATOM     13  H6  MS7 d          -5.600  -5.054 -31.660  0.00  0.00     0.043 H 
BRANCH  11  14
ATOM     14  C4  MS7 d          -4.489  -4.011 -30.094  0.00  0.00     0.179 C 
ATOM     15  H4  MS7 d          -4.604  -3.810 -29.018  0.00  0.00     0.099 H 
BRANCH  14  16
ATOM     16  N1  MS7 d          -4.446  -2.731 -30.815  0.00  0.00    -0.066 N 
ATOM     17  H1  MS7 d          -5.035  -2.786 -31.630  0.00  0.00     0.275 HD
ATOM     18  H2  MS7 d          -3.498  -2.536 -31.097  0.00  0.00     0.275 HD
ATOM     19  H3  MS7 d          -4.775  -1.994 -30.211  0.00  0.00     0.275 HD
ENDBRANCH  14  16
BRANCH  14  20
ATOM     20  C34 MS7 d          -3.208  -4.786 -30.305  0.00  0.00     0.248 C 
ATOM     21  O35 MS7 d          -2.239  -4.350 -29.696  0.00  0.00    -0.271 OA
ATOM     22  N36 MS7 d          -3.151  -5.890 -31.134  0.00  0.00    -0.364 N 
ATOM     23  H18 MS7 d          -3.984  -6.187 -31.600  0.00  0.00     0.161 HD
BRANCH  22  24
ATOM     24  C38 MS7 d          -1.904  -6.647 -31.355  0.00  0.00    -0.018 C 
ATOM     25  H19 MS7 d          -1.894  -7.046 -32.381  0.00  0.00     0.056 H 
ATOM     26  H20 MS7 d          -1.847  -7.480 -30.638  0.00  0.00     0.056 H 
ATOM     27  H21 MS7 d          -1.040  -5.981 -31.213  0.00  0.00     0.056 H 
ENDBRANCH  22  24
ENDBRANCH  14  20
ENDBRANCH  11  14
ENDBRANCH   1  11
BRANCH   4  28
ATOM     28  O19 MS7 d         -10.672  -1.925 -29.839  0.00  0.00    -0.347 OA
BRANCH  28  29
ATOM     29  C20 MS7 d         -11.129  -0.904 -30.754  0.00  0.00     0.050 C 
ATOM     30  H11 MS7 d         -10.563  -0.958 -31.697  0.00  0.00     0.082 H 
ATOM     31  H12 MS7 d         -11.003   0.093 -30.307  0.00  0.00     0.082 H 
BRANCH  29  32
ATOM     32  C23 MS7 d         -12.589  -1.184 -31.004  0.00  0.00    -0.034 A 
ATOM     33  C24 MS7 d         -13.239  -0.657 -32.119  0.00  0.00    -0.075 A 
ATOM     34  C26 MS7 d         -14.586  -0.953 -32.334  0.00  0.00    -0.082 A 
ATOM     35  H13 MS7 d         -12.702  -0.022 -32.814  0.00  0.00     0.084 H 
ATOM     36  C28 MS7 d         -15.287  -1.718 -31.371  0.00  0.00    -0.083 A 
ATOM     37  H14 MS7 d         -15.090  -0.600 -33.227  0.00  0.00     0.083 H 
ATOM     38  C30 MS7 d         -14.622  -2.174 -30.237  0.00  0.00    -0.082 A 
ATOM     39  H15 MS7 d         -16.336  -1.948 -31.517  0.00  0.00     0.083 H 
ATOM     40  C32 MS7 d         -13.274  -1.934 -30.042  0.00  0.00    -0.075 A 
ATOM     41  H16 MS7 d         -15.174  -2.729 -29.488  0.00  0.00     0.083 H 
ATOM     42  H17 MS7 d         -12.761  -2.318 -29.167  0.00  0.00     0.084 H 
ENDBRANCH  29  32
ENDBRANCH  28  29
ENDBRANCH   4  28
TORSDOF 8
ENDMDL
MODEL 9
REMARK VINA RESULT:      -3.8      1.927      2.997
REMARK  8 active torsions:
REMARK  status: ('A' for Active; 'I' for Inactive)
REMARK    1  A    between atoms: N1_1  and  C4_2 
REMARK    2  A    between atoms: C4_2  and  C6_3 
REMARK    3  A    between atoms: C4_2  and  C34_18 
REMARK    4  A    between atoms: C6_3  and  C9_4 
REMARK    5  A    between atoms: C14_7  and  O19_10 
REMARK    6  A    between atoms: O19_10  and  C20_11 
REMARK    7  A    between atoms: C20_11  and  C23_12 
REMARK       I    between atoms: C34_18  and  N36_20 
REMARK    8  A    between atoms: N36_20  and  C38_21 
ROOT
ATOM      1  C9  MS7 d         -11.092  -3.685 -32.146  0.00  0.00    -0.056 A 
ATOM      2  C10 MS7 d         -10.393  -2.475 -31.994  0.00  0.00    -0.074 A 
ATOM      3  C12 MS7 d          -9.026  -2.444 -31.648  0.00  0.00    -0.050 A 
ATOM      4  C14 MS7 d          -8.341  -3.661 -31.442  0.00  0.00     0.069 A 
ATOM      5  C15 MS7 d          -9.029  -4.874 -31.582  0.00  0.00    -0.050 A 
ATOM      6  C17 MS7 d         -10.400  -4.891 -31.931  0.00  0.00    -0.074 A 
ATOM      7  H7  MS7 d         -10.918  -1.539 -32.146  0.00  0.00     0.084 H 
ATOM      8  H8  MS7 d          -8.508  -1.497 -31.542  0.00  0.00     0.087 H 
ATOM      9  H9  MS7 d          -8.505  -5.809 -31.421  0.00  0.00     0.087 H 
ATOM     10  H10 MS7 d         -10.918  -5.837 -32.034  0.00  0.00     0.084 H 
ENDROOT
BRANCH   1  11
ATOM     11  C6  MS7 d         -12.591  -3.693 -32.534  0.00  0.00    -0.006 C 
ATOM     12  H5  MS7 d         -12.839  -2.737 -33.019  0.00  0.00     0.043 H 
ATOM     13  H6  MS7 d         -12.772  -4.518 -33.238  0.00  0.00     0.043 H 
BRANCH  11  14
ATOM     14  C4  MS7 d         -13.515  -3.881 -31.285  0.00  0.00     0.179 C 
ATOM     15  H4  MS7 d         -12.937  -4.365 -30.484  0.00  0.00     0.099 H 
BRANCH  14  16
ATOM     16  N1  MS7 d         -14.644  -4.749 -31.648  0.00  0.00    -0.066 N 
ATOM     17  H1  MS7 d         -15.146  -4.341 -32.421  0.00  0.00     0.275 HD
ATOM     18  H2  MS7 d         -15.262  -4.846 -30.858  0.00  0.00     0.275 HD
ATOM     19  H3  MS7 d         -14.297  -5.657 -31.915  0.00  0.00     0.275 HD
ENDBRANCH  14  16
BRANCH  14  20
ATOM     20  C34 MS7 d         -14.011  -2.545 -30.780  0.00  0.00     0.248 C 
ATOM     21  O35 MS7 d         -14.822  -1.990 -31.511  0.00  0.00    -0.271 OA
ATOM     22  N36 MS7 d         -13.564  -2.002 -29.590  0.00  0.00    -0.364 N 
ATOM     23  H18 MS7 d         -12.899  -2.514 -29.046  0.00  0.00     0.161 HD
BRANCH  22  24
ATOM     24  C38 MS7 d         -14.033  -0.695 -29.093  0.00  0.00    -0.018 C 
ATOM     25  H19 MS7 d         -14.639  -0.842 -28.187  0.00  0.00     0.056 H 
ATOM     26  H20 MS7 d         -14.644  -0.206 -29.867  0.00  0.00     0.056 H 
ATOM     27  H21 MS7 d         -13.167  -0.060 -28.855  0.00  0.00     0.056 H 
ENDBRANCH  22  24
ENDBRANCH  14  20
ENDBRANCH  11  14
ENDBRANCH   1  11
BRANCH   4  28
ATOM     28  O19 MS7 d          -6.990  -3.698 -31.065  0.00  0.00    -0.347 OA
BRANCH  28  29
ATOM     29  C20 MS7 d          -6.444  -4.603 -30.080  0.00  0.00     0.050 C 
ATOM     30  H11 MS7 d          -6.967  -5.569 -30.120  0.00  0.00     0.082 H 
ATOM     31  H12 MS7 d          -6.544  -4.173 -29.072  0.00  0.00     0.082 H 
BRANCH  29  32
ATOM     32  C23 MS7 d          -4.989  -4.780 -30.431  0.00  0.00    -0.034 A 
ATOM     33  C24 MS7 d          -4.475  -6.038 -30.742  0.00  0.00    -0.075 A 
ATOM     34  C26 MS7 d          -3.128  -6.166 -31.084  0.00  0.00    -0.082 A 
ATOM     35  H13 MS7 d          -5.117  -6.911 -30.717  0.00  0.00     0.084 H 
ATOM     36  C28 MS7 d          -2.290  -5.026 -31.031  0.00  0.00    -0.083 A 
ATOM     37  H14 MS7 d          -2.727  -7.128 -31.386  0.00  0.00     0.083 H 
ATOM     38  C30 MS7 d          -2.824  -3.797 -30.654  0.00  0.00    -0.082 A 
ATOM     39  H15 MS7 d          -1.240  -5.110 -31.284  0.00  0.00     0.083 H 
ATOM     40  C32 MS7 d          -4.169  -3.648 -30.368  0.00  0.00    -0.075 A 
ATOM     41  H16 MS7 d          -2.170  -2.937 -30.582  0.00  0.00     0.083 H 
ATOM     42  H17 MS7 d          -4.577  -2.680 -30.101  0.00  0.00     0.084 H 
ENDBRANCH  29  32
ENDBRANCH  28  29
ENDBRANCH   4  28
TORSDOF 8
ENDMDL
