MODEL 1
REMARK VINA RESULT:      -7.4      0.000      0.000
REMARK  4 active torsions:
REMARK  status: ('A' for Active; 'I' for Inactive)
REMARK    1  A    between atoms: CG_4  and  CD_1 
REMARK    2  A    between atoms: CA_8  and  C_5 
REMARK    3  A    between atoms: CA_8  and  N_9 
REMARK    4  A    between atoms: CA_8  and  CB_10 
ROOT
ATOM      1  CG  G8M d           6.294  27.223  20.590  0.00  0.00     0.036 C 
ATOM      2  CB  G8M d           7.626  27.130  19.801  0.00  0.00    -0.004 C 
ATOM      3  C6  G8M d           8.336  27.794  20.998  0.00  0.00    -0.058 C 
ATOM      4  C7  G8M d           6.966  28.246  21.532  0.00  0.00    -0.052 C 
ATOM      5  H1  G8M d           5.437  27.605  20.016  0.00  0.00     0.057 H 
ATOM      6  H6  G8M d           7.621  27.796  18.925  0.00  0.00     0.045 H 
ATOM      7  H7  G8M d           9.010  28.619  20.724  0.00  0.00     0.033 H 
ATOM      8  H8  G8M d           8.868  27.090  21.655  0.00  0.00     0.033 H 
ATOM      9  H9  G8M d           6.809  28.049  22.603  0.00  0.00     0.034 H 
ATOM     10  H10 G8M d           6.718  29.296  21.313  0.00  0.00     0.034 H 
ENDROOT
BRANCH   2  11
ATOM     11  CA  G8M d           8.095  25.748  19.266  0.00  0.00     0.186 C 
ATOM     12  H2  G8M d           7.712  24.982  19.957  0.00  0.00     0.102 H 
BRANCH  11  13
ATOM     13  C   G8M d           7.530  25.452  17.858  0.00  0.00     0.204 C 
ATOM     14  OXT G8M d           6.372  25.802  17.570  0.00  0.00    -0.646 OA
ATOM     15  O   G8M d           8.245  24.863  17.023  0.00  0.00    -0.646 OA
ENDBRANCH  11  13
BRANCH  11  16
ATOM     16  N   G8M d           9.568  25.626  19.219  0.00  0.00    -0.065 N 
ATOM     17  H3  G8M d           9.826  24.931  18.536  0.00  0.00     0.275 HD
ATOM     18  H4  G8M d           9.912  25.350  20.126  0.00  0.00     0.275 HD
ATOM     19  H5  G8M d           9.971  26.514  18.963  0.00  0.00     0.275 HD
ENDBRANCH  11  16
ENDBRANCH   2  11
BRANCH   1  20
ATOM     20  CD  G8M d           5.920  25.910  21.311  0.00  0.00     0.177 C 
ATOM     21  OE1 G8M d           5.074  25.154  20.781  0.00  0.00    -0.648 OA
ATOM     22  OE2 G8M d           6.470  25.613  22.395  0.00  0.00    -0.648 OA
ENDBRANCH   1  20
TORSDOF 4
ENDMDL
MODEL 2
REMARK VINA RESULT:      -5.7      2.164      2.828
REMARK  4 active torsions:
REMARK  status: ('A' for Active; 'I' for Inactive)
REMARK    1  A    between atoms: CG_4  and  CD_1 
REMARK    2  A    between atoms: CA_8  and  C_5 
REMARK    3  A    between atoms: CA_8  and  N_9 
REMARK    4  A    between atoms: CA_8  and  CB_10 
ROOT
ATOM      1  CG  G8M d           7.134  26.516  21.846  0.00  0.00     0.036 C 
ATOM      2  CB  G8M d           6.389  25.945  20.613  0.00  0.00    -0.004 C 
ATOM      3  C6  G8M d           5.056  26.265  21.318  0.00  0.00    -0.058 C 
ATOM      4  C7  G8M d           5.818  26.404  22.647  0.00  0.00    -0.052 C 
ATOM      5  H1  G8M d           7.965  25.898  22.218  0.00  0.00     0.057 H 
ATOM      6  H6  G8M d           6.538  24.859  20.522  0.00  0.00     0.045 H 
ATOM      7  H7  G8M d           4.325  25.442  21.300  0.00  0.00     0.033 H 
ATOM      8  H8  G8M d           4.573  27.192  20.974  0.00  0.00     0.033 H 
ATOM      9  H9  G8M d           5.560  27.305  23.225  0.00  0.00     0.034 H 
ATOM     10  H10 G8M d           5.758  25.521  23.300  0.00  0.00     0.034 H 
ENDROOT
BRANCH   2  11
ATOM     11  CA  G8M d           6.701  26.524  19.204  0.00  0.00     0.186 C 
ATOM     12  H2  G8M d           7.199  27.493  19.352  0.00  0.00     0.102 H 
BRANCH  11  13
ATOM     13  C   G8M d           7.654  25.609  18.402  0.00  0.00     0.204 C 
ATOM     14  OXT G8M d           8.830  25.462  18.777  0.00  0.00    -0.646 OA
ATOM     15  O   G8M d           7.231  25.027  17.384  0.00  0.00    -0.646 OA
ENDBRANCH  11  13
BRANCH  11  16
ATOM     16  N   G8M d           5.481  26.754  18.400  0.00  0.00    -0.065 N 
ATOM     17  H3  G8M d           4.806  26.032  18.599  0.00  0.00     0.275 HD
ATOM     18  H4  G8M d           5.715  26.735  17.420  0.00  0.00     0.275 HD
ATOM     19  H5  G8M d           5.089  27.653  18.634  0.00  0.00     0.275 HD
ENDBRANCH  11  16
ENDBRANCH   2  11
BRANCH   1  20
ATOM     20  CD  G8M d           7.592  27.979  21.659  0.00  0.00     0.177 C 
ATOM     21  OE1 G8M d           6.936  28.889  22.215  0.00  0.00    -0.648 OA
ATOM     22  OE2 G8M d           8.608  28.234  20.974  0.00  0.00    -0.648 OA
ENDBRANCH   1  20
TORSDOF 4
ENDMDL
MODEL 3
REMARK VINA RESULT:      -5.1      1.415      1.739
REMARK  4 active torsions:
REMARK  status: ('A' for Active; 'I' for Inactive)
REMARK    1  A    between atoms: CG_4  and  CD_1 
REMARK    2  A    between atoms: CA_8  and  C_5 
REMARK    3  A    between atoms: CA_8  and  N_9 
REMARK    4  A    between atoms: CA_8  and  CB_10 
ROOT
ATOM      1  CG  G8M d           6.674  27.708  21.421  0.00  0.00     0.036 C 
ATOM      2  CB  G8M d           7.204  27.276  20.029  0.00  0.00    -0.004 C 
ATOM      3  C6  G8M d           8.638  27.365  20.591  0.00  0.00    -0.058 C 
ATOM      4  C7  G8M d           8.100  28.187  21.774  0.00  0.00    -0.052 C 
ATOM      5  H1  G8M d           5.905  28.494  21.403  0.00  0.00     0.057 H 
ATOM      6  H6  G8M d           7.027  28.054  19.273  0.00  0.00     0.045 H 
ATOM      7  H7  G8M d           9.344  27.908  19.946  0.00  0.00     0.033 H 
ATOM      8  H8  G8M d           9.073  26.395  20.875  0.00  0.00     0.033 H 
ATOM      9  H9  G8M d           8.459  27.854  22.759  0.00  0.00     0.034 H 
ATOM     10  H10 G8M d           8.250  29.273  21.677  0.00  0.00     0.034 H 
ENDROOT
BRANCH   2  11
ATOM     11  CA  G8M d           6.680  25.956  19.395  0.00  0.00     0.186 C 
ATOM     12  H2  G8M d           5.661  26.150  19.031  0.00  0.00     0.102 H 
BRANCH  11  13
ATOM     13  C   G8M d           7.545  25.510  18.194  0.00  0.00     0.204 C 
ATOM     14  OXT G8M d           8.744  25.231  18.366  0.00  0.00    -0.646 OA
ATOM     15  O   G8M d           7.028  25.435  17.062  0.00  0.00    -0.646 OA
ENDBRANCH  11  13
BRANCH  11  16
ATOM     16  N   G8M d           6.614  24.844  20.369  0.00  0.00    -0.065 N 
ATOM     17  H3  G8M d           6.233  25.182  21.238  0.00  0.00     0.275 HD
ATOM     18  H4  G8M d           7.541  24.480  20.527  0.00  0.00     0.275 HD
ATOM     19  H5  G8M d           6.024  24.113  20.003  0.00  0.00     0.275 HD
ENDBRANCH  11  16
ENDBRANCH   2  11
BRANCH   1  20
ATOM     20  CD  G8M d           6.214  26.521  22.294  0.00  0.00     0.177 C 
ATOM     21  OE1 G8M d           7.063  25.670  22.646  0.00  0.00    -0.648 OA
ATOM     22  OE2 G8M d           5.017  26.431  22.647  0.00  0.00    -0.648 OA
ENDBRANCH   1  20
TORSDOF 4
ENDMDL
