MODEL 1
REMARK VINA RESULT:      -9.8      0.000      0.000
REMARK  11 active torsions:
REMARK  status: ('A' for Active; 'I' for Inactive)
REMARK    1  A    between atoms: N10_10  and  C1_1 
REMARK    2  A    between atoms: C2_2  and  O3_3 
REMARK    3  A    between atoms: C4_4  and  O5_5 
REMARK    4  A    between atoms: C6_6  and  C14_14 
REMARK    5  A    between atoms: C35_35  and  C7_7 
REMARK    6  A    between atoms: C15_15  and  C16_16 
REMARK    7  A    between atoms: C16_16  and  N17_17 
REMARK       I    between atoms: N17_17  and  C18_18 
REMARK    8  A    between atoms: C18_18  and  C20_20 
REMARK    9  A    between atoms: C22_22  and  C24_24 
REMARK   10  A    between atoms: C31_31  and  O32_32 
REMARK   11  A    between atoms: C33_33  and  O34_34 
ROOT
ATOM      1  C14 MOL d          -3.274  18.101  14.317  0.00  0.00    -0.075 C 
ATOM      2  C15 MOL d          -2.462  17.259  13.731  0.00  0.00    -0.087 C 
ATOM      3  H11 MOL d          -4.260  17.783  14.653  0.00  0.00     0.080 H 
ATOM      4  H12 MOL d          -1.467  17.592  13.439  0.00  0.00     0.079 H 
ENDROOT
BRANCH   2   5
ATOM      5  C16 MOL d          -2.870  15.863  13.457  0.00  0.00     0.010 C 
ATOM      6  H13 MOL d          -2.224  15.398  12.698  0.00  0.00     0.070 H 
ATOM      7  H14 MOL d          -3.919  15.808  13.129  0.00  0.00     0.070 H 
BRANCH   5   8
ATOM      8  N17 MOL d          -2.687  15.242  14.767  0.00  0.00    -0.353 N 
ATOM      9  C18 MOL d          -2.710  13.876  14.736  0.00  0.00     0.254 C 
ATOM     10  O19 MOL d          -2.955  13.275  13.686  0.00  0.00    -0.268 OA
ATOM     11  H15 MOL d          -2.557  15.768  15.608  0.00  0.00     0.163 HD
BRANCH   9  12
ATOM     12  C20 MOL d          -2.624  13.178  16.021  0.00  0.00     0.068 A 
ATOM     13  C21 MOL d          -1.589  12.235  16.173  0.00  0.00    -0.054 A 
ATOM     14  C22 MOL d          -1.416  11.556  17.379  0.00  0.00    -0.022 A 
ATOM     15  H16 MOL d          -0.920  12.035  15.344  0.00  0.00     0.086 H 
ATOM     16  C23 MOL d          -2.271  11.770  18.478  0.00  0.00    -0.037 A 
ATOM     17  C33 MOL d          -3.292  12.711  18.297  0.00  0.00     0.100 A 
ATOM     18  H17 MOL d          -2.145  11.236  19.413  0.00  0.00     0.089 H 
ATOM     19  C31 MOL d          -3.440  13.442  17.118  0.00  0.00     0.114 A 
BRANCH  14  20
ATOM     20  C24 MOL d          -0.303  10.562  17.461  0.00  0.00    -0.026 A 
ATOM     21  C25 MOL d           0.530  10.424  16.370  0.00  0.00    -0.069 A 
ATOM     22  C26 MOL d           1.544   9.475  16.469  0.00  0.00    -0.045 A 
ATOM     23  H18 MOL d           0.402  11.026  15.478  0.00  0.00     0.085 H 
ATOM     24  C29 MOL d           1.638   8.767  17.666  0.00  0.00     0.116 A 
ATOM     25  H19 MOL d           2.230   9.294  15.650  0.00  0.00     0.088 H 
ATOM     26  C28 MOL d           0.798   8.866  18.746  0.00  0.00    -0.045 A 
ATOM     27  F30 MOL d           2.608   7.778  17.846  0.00  0.00    -0.206 F 
ATOM     28  C27 MOL d          -0.198   9.845  18.633  0.00  0.00    -0.069 A 
ATOM     29  H21 MOL d           0.898   8.235  19.621  0.00  0.00     0.088 H 
ATOM     30  H20 MOL d          -0.876  10.036  19.456  0.00  0.00     0.085 H 
ENDBRANCH  14  20
BRANCH  17  31
ATOM     31  O34 MOL d          -4.152  12.940  19.376  0.00  0.00    -0.358 OA
ATOM     32  H23 MOL d          -4.120  13.859  19.615  0.00  0.00     0.217 HD
ENDBRANCH  17  31
BRANCH  19  33
ATOM     33  O32 MOL d          -4.485  14.310  17.064  0.00  0.00    -0.357 OA
ATOM     34  H22 MOL d          -4.746  14.432  16.158  0.00  0.00     0.217 HD
ENDBRANCH  19  33
ENDBRANCH   9  12
ENDBRANCH   5   8
ENDBRANCH   2   5
BRANCH   1  35
ATOM     35  C6  MOL d          -2.815  19.519  14.515  0.00  0.00     0.084 C 
ATOM     36  C4  MOL d          -3.459  20.023  15.797  0.00  0.00     0.092 C 
ATOM     37  C2  MOL d          -4.792  20.498  15.214  0.00  0.00     0.105 C 
ATOM     38  H4  MOL d          -3.584  19.253  16.572  0.00  0.00     0.091 H 
ATOM     39  C1  MOL d          -4.350  21.139  13.889  0.00  0.00     0.140 C 
ATOM     40  H2  MOL d          -5.476  19.652  15.055  0.00  0.00     0.093 H 
ATOM     41  O13 MOL d          -3.259  20.357  13.395  0.00  0.00    -0.352 OA
ATOM     42  H1  MOL d          -4.025  22.174  14.070  0.00  0.00     0.123 H 
ATOM     43  H6  MOL d          -1.719  19.555  14.596  0.00  0.00     0.093 H 
BRANCH  36  44
ATOM     44  O5  MOL d          -2.637  21.102  16.266  0.00  0.00    -0.390 OA
ATOM     45  H5  MOL d          -2.637  21.801  15.622  0.00  0.00     0.210 HD
ENDBRANCH  36  44
BRANCH  37  46
ATOM     46  O3  MOL d          -5.438  21.498  16.016  0.00  0.00    -0.388 OA
ATOM     47  H3  MOL d          -5.829  21.087  16.779  0.00  0.00     0.210 HD
ENDBRANCH  37  46
BRANCH  39  48
ATOM     48  N10 MOL d          -5.433  21.138  12.887  0.00  0.00    -0.294 N 
ATOM     49  C9  MOL d          -6.228  20.027  12.508  0.00  0.00     0.070 A 
ATOM     50  N8  MOL d          -7.023  20.325  11.532  0.00  0.00    -0.238 NA
ATOM     51  H10 MOL d          -6.175  19.046  12.979  0.00  0.00     0.144 H 
ATOM     52  C12 MOL d          -6.764  21.612  11.206  0.00  0.00     0.128 A 
ATOM     53  C11 MOL d          -5.805  22.162  12.037  0.00  0.00     0.165 A 
ATOM     54  C35 MOL d          -7.350  22.461  10.249  0.00  0.00     0.064 A 
ATOM     55  N40 MOL d          -5.320  23.415  11.959  0.00  0.00    -0.222 NA
ATOM     56  C39 MOL d          -5.902  24.169  11.026  0.00  0.00     0.089 A 
ATOM     57  N38 MOL d          -6.888  23.718  10.183  0.00  0.00    -0.244 NA
ATOM     58  H24 MOL d          -5.580  25.198  10.929  0.00  0.00     0.146 H 
BRANCH  54  59
ATOM     59  C7  MOL d          -8.482  22.041   9.334  0.00  0.00    -0.033 C 
ATOM     60  H7  MOL d          -9.187  21.406   9.890  0.00  0.00     0.035 H 
ATOM     61  H8  MOL d          -8.074  21.476   8.482  0.00  0.00     0.035 H 
ATOM     62  H9  MOL d          -9.006  22.935   8.964  0.00  0.00     0.035 H 
ENDBRANCH  54  59
ENDBRANCH  39  48
ENDBRANCH   1  35
TORSDOF 11
ENDMDL
MODEL 2
REMARK VINA RESULT:      -8.5      5.257     10.187
REMARK  11 active torsions:
REMARK  status: ('A' for Active; 'I' for Inactive)
REMARK    1  A    between atoms: N10_10  and  C1_1 
REMARK    2  A    between atoms: C2_2  and  O3_3 
REMARK    3  A    between atoms: C4_4  and  O5_5 
REMARK    4  A    between atoms: C6_6  and  C14_14 
REMARK    5  A    between atoms: C35_35  and  C7_7 
REMARK    6  A    between atoms: C15_15  and  C16_16 
REMARK    7  A    between atoms: C16_16  and  N17_17 
REMARK       I    between atoms: N17_17  and  C18_18 
REMARK    8  A    between atoms: C18_18  and  C20_20 
REMARK    9  A    between atoms: C22_22  and  C24_24 
REMARK   10  A    between atoms: C31_31  and  O32_32 
REMARK   11  A    between atoms: C33_33  and  O34_34 
ROOT
ATOM      1  C14 MOL d          -3.900  13.577  13.139  0.00  0.00    -0.075 C 
ATOM      2  C15 MOL d          -3.101  13.950  14.106  0.00  0.00    -0.087 C 
ATOM      3  H11 MOL d          -4.026  14.193  12.251  0.00  0.00     0.080 H 
ATOM      4  H12 MOL d          -2.962  13.296  14.966  0.00  0.00     0.079 H 
ENDROOT
BRANCH   2   5
ATOM      5  C16 MOL d          -2.384  15.243  14.054  0.00  0.00     0.010 C 
ATOM      6  H13 MOL d          -1.927  15.409  13.067  0.00  0.00     0.070 H 
ATOM      7  H14 MOL d          -1.608  15.304  14.832  0.00  0.00     0.070 H 
BRANCH   5   8
ATOM      8  N17 MOL d          -3.468  16.191  14.306  0.00  0.00    -0.353 N 
ATOM      9  C18 MOL d          -3.069  17.497  14.299  0.00  0.00     0.254 C 
ATOM     10  O19 MOL d          -1.877  17.790  14.174  0.00  0.00    -0.268 OA
ATOM     11  H15 MOL d          -4.414  15.908  14.470  0.00  0.00     0.163 HD
BRANCH   9  12
ATOM     12  C20 MOL d          -4.078  18.505  14.634  0.00  0.00     0.068 A 
ATOM     13  C21 MOL d          -4.480  19.379  13.606  0.00  0.00    -0.054 A 
ATOM     14  C22 MOL d          -5.463  20.342  13.833  0.00  0.00    -0.022 A 
ATOM     15  H16 MOL d          -4.019  19.304  12.627  0.00  0.00     0.086 H 
ATOM     16  C23 MOL d          -6.078  20.489  15.092  0.00  0.00    -0.037 A 
ATOM     17  C33 MOL d          -5.658  19.607  16.095  0.00  0.00     0.100 A 
ATOM     18  H17 MOL d          -6.836  21.243  15.275  0.00  0.00     0.089 H 
ATOM     19  C31 MOL d          -4.720  18.600  15.866  0.00  0.00     0.114 A 
BRANCH  14  20
ATOM     20  C24 MOL d          -5.829  21.242  12.697  0.00  0.00    -0.026 A 
ATOM     21  C25 MOL d          -6.728  20.776  11.759  0.00  0.00    -0.069 A 
ATOM     22  C26 MOL d          -7.032  21.628  10.701  0.00  0.00    -0.045 A 
ATOM     23  H18 MOL d          -7.177  19.793  11.843  0.00  0.00     0.085 H 
ATOM     24  C29 MOL d          -6.418  22.880  10.697  0.00  0.00     0.116 A 
ATOM     25  H19 MOL d          -7.716  21.331   9.915  0.00  0.00     0.088 H 
ATOM     26  C28 MOL d          -5.497  23.345  11.600  0.00  0.00    -0.045 A 
ATOM     27  F30 MOL d          -6.644  23.791   9.662  0.00  0.00    -0.206 F 
ATOM     28  C27 MOL d          -5.227  22.480  12.669  0.00  0.00    -0.069 A 
ATOM     29  H21 MOL d          -5.014  24.310  11.495  0.00  0.00     0.088 H 
ATOM     30  H20 MOL d          -4.553  22.781  13.462  0.00  0.00     0.085 H 
ENDBRANCH  14  20
BRANCH  17  31
ATOM     31  O34 MOL d          -6.256  19.734  17.353  0.00  0.00    -0.358 OA
ATOM     32  H23 MOL d          -5.580  19.794  18.018  0.00  0.00     0.217 HD
ENDBRANCH  17  31
BRANCH  19  33
ATOM     33  O32 MOL d          -4.383  17.824  16.930  0.00  0.00    -0.357 OA
ATOM     34  H22 MOL d          -4.595  16.918  16.739  0.00  0.00     0.217 HD
ENDBRANCH  19  33
ENDBRANCH   9  12
ENDBRANCH   5   8
ENDBRANCH   2   5
BRANCH   1  35
ATOM     35  C6  MOL d          -4.639  12.276  13.283  0.00  0.00     0.084 C 
ATOM     36  C4  MOL d          -5.729  12.260  12.223  0.00  0.00     0.092 C 
ATOM     37  C2  MOL d          -6.817  13.005  12.999  0.00  0.00     0.105 C 
ATOM     38  H4  MOL d          -5.453  12.765  11.285  0.00  0.00     0.091 H 
ATOM     39  C1  MOL d          -6.659  12.420  14.410  0.00  0.00     0.140 C 
ATOM     40  H2  MOL d          -6.640  14.091  12.981  0.00  0.00     0.093 H 
ATOM     41  O13 MOL d          -5.261  12.190  14.609  0.00  0.00    -0.352 OA
ATOM     42  H1  MOL d          -7.214  11.473  14.482  0.00  0.00     0.123 H 
ATOM     43  H6  MOL d          -3.951  11.430  13.139  0.00  0.00     0.093 H 
BRANCH  36  44
ATOM     44  O5  MOL d          -6.051  10.880  11.993  0.00  0.00    -0.390 OA
ATOM     45  H5  MOL d          -6.082  10.715  11.058  0.00  0.00     0.210 HD
ENDBRANCH  36  44
BRANCH  37  46
ATOM     46  O3  MOL d          -8.144  12.724  12.529  0.00  0.00    -0.388 OA
ATOM     47  H3  MOL d          -8.769  13.244  13.020  0.00  0.00     0.210 HD
ENDBRANCH  37  46
BRANCH  39  48
ATOM     48  N10 MOL d          -7.145  13.346  15.451  0.00  0.00    -0.294 N 
ATOM     49  C9  MOL d          -8.445  13.905  15.539  0.00  0.00     0.070 A 
ATOM     50  N8  MOL d          -8.529  14.759  16.506  0.00  0.00    -0.238 NA
ATOM     51  H10 MOL d          -9.270  13.647  14.875  0.00  0.00     0.144 H 
ATOM     52  C12 MOL d          -7.298  14.828  17.064  0.00  0.00     0.128 A 
ATOM     53  C11 MOL d          -6.418  13.950  16.458  0.00  0.00     0.165 A 
ATOM     54  C35 MOL d          -6.820  15.562  18.166  0.00  0.00     0.064 A 
ATOM     55  N40 MOL d          -5.119  13.796  16.773  0.00  0.00    -0.222 NA
ATOM     56  C39 MOL d          -4.719  14.524  17.815  0.00  0.00     0.089 A 
ATOM     57  N38 MOL d          -5.533  15.392  18.500  0.00  0.00    -0.244 NA
ATOM     58  H24 MOL d          -3.690  14.426  18.141  0.00  0.00     0.146 H 
BRANCH  54  59
ATOM     59  C7  MOL d          -7.685  16.486  18.999  0.00  0.00    -0.033 C 
ATOM     60  H7  MOL d          -7.691  16.141  20.043  0.00  0.00     0.035 H 
ATOM     61  H8  MOL d          -8.712  16.481  18.605  0.00  0.00     0.035 H 
ATOM     62  H9  MOL d          -7.279  17.508  18.953  0.00  0.00     0.035 H 
ENDBRANCH  54  59
ENDBRANCH  39  48
ENDBRANCH   1  35
TORSDOF 11
ENDMDL
MODEL 3
REMARK VINA RESULT:      -8.4      4.432     11.595
REMARK  11 active torsions:
REMARK  status: ('A' for Active; 'I' for Inactive)
REMARK    1  A    between atoms: N10_10  and  C1_1 
REMARK    2  A    between atoms: C2_2  and  O3_3 
REMARK    3  A    between atoms: C4_4  and  O5_5 
REMARK    4  A    between atoms: C6_6  and  C14_14 
REMARK    5  A    between atoms: C35_35  and  C7_7 
REMARK    6  A    between atoms: C15_15  and  C16_16 
REMARK    7  A    between atoms: C16_16  and  N17_17 
REMARK       I    between atoms: N17_17  and  C18_18 
REMARK    8  A    between atoms: C18_18  and  C20_20 
REMARK    9  A    between atoms: C22_22  and  C24_24 
REMARK   10  A    between atoms: C31_31  and  O32_32 
REMARK   11  A    between atoms: C33_33  and  O34_34 
ROOT
ATOM      1  C14 MOL d          -3.994  14.294  13.319  0.00  0.00    -0.075 C 
ATOM      2  C15 MOL d          -2.725  14.353  13.630  0.00  0.00    -0.087 C 
ATOM      3  H11 MOL d          -4.604  15.196  13.290  0.00  0.00     0.080 H 
ATOM      4  H12 MOL d          -2.128  13.442  13.613  0.00  0.00     0.079 H 
ENDROOT
BRANCH   2   5
ATOM      5  C16 MOL d          -2.084  15.634  14.003  0.00  0.00     0.010 C 
ATOM      6  H13 MOL d          -1.433  16.006  13.199  0.00  0.00     0.070 H 
ATOM      7  H14 MOL d          -1.501  15.536  14.931  0.00  0.00     0.070 H 
BRANCH   5   8
ATOM      8  N17 MOL d          -3.247  16.499  14.193  0.00  0.00    -0.353 N 
ATOM      9  C18 MOL d          -2.932  17.821  14.333  0.00  0.00     0.254 C 
ATOM     10  O19 MOL d          -1.753  18.185  14.376  0.00  0.00    -0.268 OA
ATOM     11  H15 MOL d          -4.186  16.155  14.219  0.00  0.00     0.163 HD
BRANCH   9  12
ATOM     12  C20 MOL d          -4.034  18.743  14.617  0.00  0.00     0.068 A 
ATOM     13  C21 MOL d          -4.431  19.610  13.581  0.00  0.00    -0.054 A 
ATOM     14  C22 MOL d          -5.497  20.492  13.760  0.00  0.00    -0.022 A 
ATOM     15  H16 MOL d          -3.903  19.593  12.635  0.00  0.00     0.086 H 
ATOM     16  C23 MOL d          -6.203  20.563  14.977  0.00  0.00    -0.037 A 
ATOM     17  C33 MOL d          -5.784  19.691  15.989  0.00  0.00     0.100 A 
ATOM     18  H17 MOL d          -7.025  21.255  15.122  0.00  0.00     0.089 H 
ATOM     19  C31 MOL d          -4.760  18.762  15.805  0.00  0.00     0.114 A 
BRANCH  14  20
ATOM     20  C24 MOL d          -5.853  21.390  12.619  0.00  0.00    -0.026 A 
ATOM     21  C25 MOL d          -6.755  20.927  11.682  0.00  0.00    -0.069 A 
ATOM     22  C26 MOL d          -7.050  21.777  10.620  0.00  0.00    -0.045 A 
ATOM     23  H18 MOL d          -7.213  19.949  11.770  0.00  0.00     0.085 H 
ATOM     24  C29 MOL d          -6.425  23.022  10.610  0.00  0.00     0.116 A 
ATOM     25  H19 MOL d          -7.736  21.482   9.834  0.00  0.00     0.088 H 
ATOM     26  C28 MOL d          -5.501  23.485  11.512  0.00  0.00    -0.045 A 
ATOM     27  F30 MOL d          -6.642  23.930   9.571  0.00  0.00    -0.206 F 
ATOM     28  C27 MOL d          -5.240  22.623  12.585  0.00  0.00    -0.069 A 
ATOM     29  H21 MOL d          -5.010  24.445  11.403  0.00  0.00     0.088 H 
ATOM     30  H20 MOL d          -4.565  22.922  13.378  0.00  0.00     0.085 H 
ENDBRANCH  14  20
BRANCH  17  31
ATOM     31  O34 MOL d          -6.472  19.744  17.206  0.00  0.00    -0.358 OA
ATOM     32  H23 MOL d          -5.942  19.342  17.885  0.00  0.00     0.217 HD
ENDBRANCH  17  31
BRANCH  19  33
ATOM     33  O32 MOL d          -4.437  17.988  16.875  0.00  0.00    -0.357 OA
ATOM     34  H22 MOL d          -3.492  17.897  16.924  0.00  0.00     0.217 HD
ENDBRANCH  19  33
ENDBRANCH   9  12
ENDBRANCH   5   8
ENDBRANCH   2   5
BRANCH   1  35
ATOM     35  C6  MOL d          -4.592  12.952  13.003  0.00  0.00     0.084 C 
ATOM     36  C4  MOL d          -5.974  12.916  13.637  0.00  0.00     0.092 C 
ATOM     37  C2  MOL d          -5.574  12.449  15.038  0.00  0.00     0.105 C 
ATOM     38  H4  MOL d          -6.492  13.887  13.644  0.00  0.00     0.091 H 
ATOM     39  C1  MOL d          -4.489  11.406  14.728  0.00  0.00     0.140 C 
ATOM     40  H2  MOL d          -5.183  13.285  15.635  0.00  0.00     0.093 H 
ATOM     41  O13 MOL d          -3.772  11.882  13.584  0.00  0.00    -0.352 OA
ATOM     42  H1  MOL d          -4.960  10.437  14.505  0.00  0.00     0.123 H 
ATOM     43  H6  MOL d          -4.665  12.815  11.915  0.00  0.00     0.093 H 
BRANCH  36  44
ATOM     44  O5  MOL d          -6.727  11.933  12.912  0.00  0.00    -0.390 OA
ATOM     45  H5  MOL d          -7.014  11.253  13.510  0.00  0.00     0.210 HD
ENDBRANCH  36  44
BRANCH  37  46
ATOM     46  O3  MOL d          -6.642  11.804  15.748  0.00  0.00    -0.388 OA
ATOM     47  H3  MOL d          -7.420  11.791  15.203  0.00  0.00     0.210 HD
ENDBRANCH  37  46
BRANCH  39  48
ATOM     48  N10 MOL d          -3.545  11.241  15.849  0.00  0.00    -0.294 N 
ATOM     49  C9  MOL d          -2.915  12.280  16.580  0.00  0.00     0.070 A 
ATOM     50  N8  MOL d          -2.065  11.811  17.434  0.00  0.00    -0.238 NA
ATOM     51  H10 MOL d          -3.122  13.341  16.439  0.00  0.00     0.144 H 
ATOM     52  C12 MOL d          -2.070  10.466  17.281  0.00  0.00     0.128 A 
ATOM     53  C11 MOL d          -2.991  10.069  16.328  0.00  0.00     0.165 A 
ATOM     54  C35 MOL d          -1.373   9.453  17.965  0.00  0.00     0.064 A 
ATOM     55  N40 MOL d          -3.220   8.803  15.935  0.00  0.00    -0.222 NA
ATOM     56  C39 MOL d          -2.523   7.887  16.608  0.00  0.00     0.089 A 
ATOM     57  N38 MOL d          -1.616   8.188  17.595  0.00  0.00    -0.244 NA
ATOM     58  H24 MOL d          -2.681   6.844  16.363  0.00  0.00     0.146 H 
BRANCH  54  59
ATOM     59  C7  MOL d          -0.408   9.719  19.103  0.00  0.00    -0.033 C 
ATOM     60  H7  MOL d          -0.118   8.765  19.568  0.00  0.00     0.035 H 
ATOM     61  H8  MOL d          -0.894  10.360  19.853  0.00  0.00     0.035 H 
ATOM     62  H9  MOL d           0.488  10.224  18.713  0.00  0.00     0.035 H 
ENDBRANCH  54  59
ENDBRANCH  39  48
ENDBRANCH   1  35
TORSDOF 11
ENDMDL
MODEL 4
REMARK VINA RESULT:      -7.9      4.560     10.427
REMARK  11 active torsions:
REMARK  status: ('A' for Active; 'I' for Inactive)
REMARK    1  A    between atoms: N10_10  and  C1_1 
REMARK    2  A    between atoms: C2_2  and  O3_3 
REMARK    3  A    between atoms: C4_4  and  O5_5 
REMARK    4  A    between atoms: C6_6  and  C14_14 
REMARK    5  A    between atoms: C35_35  and  C7_7 
REMARK    6  A    between atoms: C15_15  and  C16_16 
REMARK    7  A    between atoms: C16_16  and  N17_17 
REMARK       I    between atoms: N17_17  and  C18_18 
REMARK    8  A    between atoms: C18_18  and  C20_20 
REMARK    9  A    between atoms: C22_22  and  C24_24 
REMARK   10  A    between atoms: C31_31  and  O32_32 
REMARK   11  A    between atoms: C33_33  and  O34_34 
ROOT
ATOM      1  C14 MOL d          -2.242  13.272  15.420  0.00  0.00    -0.075 C 
ATOM      2  C15 MOL d          -2.938  14.367  15.255  0.00  0.00    -0.087 C 
ATOM      3  H11 MOL d          -1.432  13.019  14.738  0.00  0.00     0.080 H 
ATOM      4  H12 MOL d          -3.717  14.618  15.974  0.00  0.00     0.079 H 
ENDROOT
BRANCH   2   5
ATOM      5  C16 MOL d          -2.687  15.273  14.112  0.00  0.00     0.010 C 
ATOM      6  H13 MOL d          -2.813  14.752  13.152  0.00  0.00     0.070 H 
ATOM      7  H14 MOL d          -1.679  15.712  14.161  0.00  0.00     0.070 H 
BRANCH   5   8
ATOM      8  N17 MOL d          -3.721  16.288  14.309  0.00  0.00    -0.353 N 
ATOM      9  C18 MOL d          -3.229  17.557  14.431  0.00  0.00     0.254 C 
ATOM     10  O19 MOL d          -2.011  17.760  14.455  0.00  0.00    -0.268 OA
ATOM     11  H15 MOL d          -4.696  16.073  14.351  0.00  0.00     0.163 HD
BRANCH   9  12
ATOM     12  C20 MOL d          -4.193  18.621  14.721  0.00  0.00     0.068 A 
ATOM     13  C21 MOL d          -4.560  19.465  13.655  0.00  0.00    -0.054 A 
ATOM     14  C22 MOL d          -5.500  20.478  13.840  0.00  0.00    -0.022 A 
ATOM     15  H16 MOL d          -4.106  19.326  12.680  0.00  0.00     0.086 H 
ATOM     16  C23 MOL d          -6.104  20.707  15.092  0.00  0.00    -0.037 A 
ATOM     17  C33 MOL d          -5.719  19.855  16.133  0.00  0.00     0.100 A 
ATOM     18  H17 MOL d          -6.828  21.501  15.241  0.00  0.00     0.089 H 
ATOM     19  C31 MOL d          -4.825  18.799  15.949  0.00  0.00     0.114 A 
BRANCH  14  20
ATOM     20  C24 MOL d          -5.831  21.340  12.665  0.00  0.00    -0.026 A 
ATOM     21  C25 MOL d          -6.713  20.851  11.724  0.00  0.00    -0.069 A 
ATOM     22  C26 MOL d          -6.984  21.668  10.630  0.00  0.00    -0.045 A 
ATOM     23  H18 MOL d          -7.174  19.875  11.831  0.00  0.00     0.085 H 
ATOM     24  C29 MOL d          -6.357  22.912  10.596  0.00  0.00     0.116 A 
ATOM     25  H19 MOL d          -7.653  21.350   9.839  0.00  0.00     0.088 H 
ATOM     26  C28 MOL d          -5.452  23.400  11.503  0.00  0.00    -0.045 A 
ATOM     27  F30 MOL d          -6.551  23.788   9.525  0.00  0.00    -0.206 F 
ATOM     28  C27 MOL d          -5.215  22.571  12.607  0.00  0.00    -0.069 A 
ATOM     29  H21 MOL d          -4.957  24.356  11.375  0.00  0.00     0.088 H 
ATOM     30  H20 MOL d          -4.556  22.894  13.404  0.00  0.00     0.085 H 
ENDBRANCH  14  20
BRANCH  17  31
ATOM     31  O34 MOL d          -6.306  20.064  17.385  0.00  0.00    -0.358 OA
ATOM     32  H23 MOL d          -6.630  20.956  17.436  0.00  0.00     0.217 HD
ENDBRANCH  17  31
BRANCH  19  33
ATOM     33  O32 MOL d          -4.518  18.058  17.046  0.00  0.00    -0.357 OA
ATOM     34  H22 MOL d          -3.636  17.716  16.959  0.00  0.00     0.217 HD
ENDBRANCH  19  33
ENDBRANCH   9  12
ENDBRANCH   5   8
ENDBRANCH   2   5
BRANCH   1  35
ATOM     35  C6  MOL d          -2.587  12.371  16.572  0.00  0.00     0.084 C 
ATOM     36  C4  MOL d          -2.363  10.941  16.105  0.00  0.00     0.092 C 
ATOM     37  C2  MOL d          -3.727  10.693  15.456  0.00  0.00     0.105 C 
ATOM     38  H4  MOL d          -1.528  10.823  15.399  0.00  0.00     0.091 H 
ATOM     39  C1  MOL d          -4.680  11.381  16.445  0.00  0.00     0.140 C 
ATOM     40  H2  MOL d          -3.774  11.146  14.455  0.00  0.00     0.093 H 
ATOM     41  O13 MOL d          -3.998  12.537  16.941  0.00  0.00    -0.352 OA
ATOM     42  H1  MOL d          -4.914  10.694  17.272  0.00  0.00     0.123 H 
ATOM     43  H6  MOL d          -1.947  12.597  17.436  0.00  0.00     0.093 H 
BRANCH  36  44
ATOM     44  O5  MOL d          -2.156  10.156  17.289  0.00  0.00    -0.390 OA
ATOM     45  H5  MOL d          -2.857  10.327  17.907  0.00  0.00     0.210 HD
ENDBRANCH  36  44
BRANCH  37  46
ATOM     46  O3  MOL d          -4.073   9.302  15.375  0.00  0.00    -0.388 OA
ATOM     47  H3  MOL d          -4.796   9.122  15.965  0.00  0.00     0.210 HD
ENDBRANCH  37  46
BRANCH  39  48
ATOM     48  N10 MOL d          -5.935  11.807  15.798  0.00  0.00    -0.294 N 
ATOM     49  C9  MOL d          -7.236  11.740  16.358  0.00  0.00     0.070 A 
ATOM     50  N8  MOL d          -8.139  12.094  15.503  0.00  0.00    -0.238 NA
ATOM     51  H10 MOL d          -7.448  11.429  17.381  0.00  0.00     0.144 H 
ATOM     52  C12 MOL d          -7.487  12.369  14.349  0.00  0.00     0.128 A 
ATOM     53  C11 MOL d          -6.119  12.230  14.495  0.00  0.00     0.165 A 
ATOM     54  C35 MOL d          -7.959  12.830  13.106  0.00  0.00     0.064 A 
ATOM     55  N40 MOL d          -5.202  12.414  13.528  0.00  0.00    -0.222 NA
ATOM     56  C39 MOL d          -5.707  12.838  12.370  0.00  0.00     0.089 A 
ATOM     57  N38 MOL d          -7.046  13.040  12.147  0.00  0.00    -0.244 NA
ATOM     58  H24 MOL d          -5.019  13.035  11.556  0.00  0.00     0.146 H 
BRANCH  54  59
ATOM     59  C7  MOL d          -9.416  13.131  12.819  0.00  0.00    -0.033 C 
ATOM     60  H7  MOL d          -9.858  12.298  12.252  0.00  0.00     0.035 H 
ATOM     61  H8  MOL d          -9.490  14.057  12.230  0.00  0.00     0.035 H 
ATOM     62  H9  MOL d          -9.958  13.255  13.769  0.00  0.00     0.035 H 
ENDBRANCH  54  59
ENDBRANCH  39  48
ENDBRANCH   1  35
TORSDOF 11
ENDMDL
MODEL 5
REMARK VINA RESULT:      -7.8      5.067     10.115
REMARK  11 active torsions:
REMARK  status: ('A' for Active; 'I' for Inactive)
REMARK    1  A    between atoms: N10_10  and  C1_1 
REMARK    2  A    between atoms: C2_2  and  O3_3 
REMARK    3  A    between atoms: C4_4  and  O5_5 
REMARK    4  A    between atoms: C6_6  and  C14_14 
REMARK    5  A    between atoms: C35_35  and  C7_7 
REMARK    6  A    between atoms: C15_15  and  C16_16 
REMARK    7  A    between atoms: C16_16  and  N17_17 
REMARK       I    between atoms: N17_17  and  C18_18 
REMARK    8  A    between atoms: C18_18  and  C20_20 
REMARK    9  A    between atoms: C22_22  and  C24_24 
REMARK   10  A    between atoms: C31_31  and  O32_32 
REMARK   11  A    between atoms: C33_33  and  O34_34 
ROOT
ATOM      1  C14 MOL d           0.197  11.641  15.627  0.00  0.00    -0.075 C 
ATOM      2  C15 MOL d           0.516  12.879  15.350  0.00  0.00    -0.087 C 
ATOM      3  H11 MOL d           0.001  10.924  14.830  0.00  0.00     0.080 H 
ATOM      4  H12 MOL d           0.746  13.566  16.164  0.00  0.00     0.079 H 
ENDROOT
BRANCH   2   5
ATOM      5  C16 MOL d           0.571  13.365  13.953  0.00  0.00     0.010 C 
ATOM      6  H13 MOL d          -0.328  13.073  13.391  0.00  0.00     0.070 H 
ATOM      7  H14 MOL d           1.466  12.991  13.433  0.00  0.00     0.070 H 
BRANCH   5   8
ATOM      8  N17 MOL d           0.634  14.812  14.148  0.00  0.00    -0.353 N 
ATOM      9  C18 MOL d          -0.581  15.432  14.058  0.00  0.00     0.254 C 
ATOM     10  O19 MOL d          -1.591  14.793  13.751  0.00  0.00    -0.268 OA
ATOM     11  H15 MOL d           1.486  15.303  14.330  0.00  0.00     0.163 HD
BRANCH   9  12
ATOM     12  C20 MOL d          -0.593  16.893  14.152  0.00  0.00     0.068 A 
ATOM     13  C21 MOL d          -1.839  17.514  14.364  0.00  0.00    -0.054 A 
ATOM     14  C22 MOL d          -1.930  18.899  14.503  0.00  0.00    -0.022 A 
ATOM     15  H16 MOL d          -2.737  16.910  14.421  0.00  0.00     0.086 H 
ATOM     16  C23 MOL d          -0.793  19.728  14.420  0.00  0.00    -0.037 A 
ATOM     17  C33 MOL d           0.431  19.083  14.206  0.00  0.00     0.100 A 
ATOM     18  H17 MOL d          -0.862  20.806  14.517  0.00  0.00     0.089 H 
ATOM     19  C31 MOL d           0.546  17.695  14.126  0.00  0.00     0.114 A 
BRANCH  14  20
ATOM     20  C24 MOL d          -3.287  19.487  14.715  0.00  0.00    -0.026 A 
ATOM     21  C25 MOL d          -4.184  19.456  13.666  0.00  0.00    -0.069 A 
ATOM     22  C26 MOL d          -5.432  20.031  13.887  0.00  0.00    -0.045 A 
ATOM     23  H18 MOL d          -3.928  19.004  12.715  0.00  0.00     0.085 H 
ATOM     24  C29 MOL d          -5.670  20.566  15.151  0.00  0.00     0.116 A 
ATOM     25  H19 MOL d          -6.186  20.061  13.109  0.00  0.00     0.088 H 
ATOM     26  C28 MOL d          -4.781  20.638  16.193  0.00  0.00    -0.045 A 
ATOM     27  F30 MOL d          -6.884  21.185  15.456  0.00  0.00    -0.206 F 
ATOM     28  C27 MOL d          -3.541  20.030  15.956  0.00  0.00    -0.069 A 
ATOM     29  H21 MOL d          -5.019  21.128  17.130  0.00  0.00     0.088 H 
ATOM     30  H20 MOL d          -2.791  19.988  16.737  0.00  0.00     0.085 H 
ENDBRANCH  14  20
BRANCH  17  31
ATOM     31  O34 MOL d           1.573  19.886  14.121  0.00  0.00    -0.358 OA
ATOM     32  H23 MOL d           1.972  19.776  13.266  0.00  0.00     0.217 HD
ENDBRANCH  17  31
BRANCH  19  33
ATOM     33  O32 MOL d           1.789  17.196  13.895  0.00  0.00    -0.357 OA
ATOM     34  H22 MOL d           1.722  16.426  13.343  0.00  0.00     0.217 HD
ENDBRANCH  19  33
ENDBRANCH   9  12
ENDBRANCH   5   8
ENDBRANCH   2   5
BRANCH   1  35
ATOM     35  C6  MOL d           0.107  11.230  17.069  0.00  0.00     0.084 C 
ATOM     36  C4  MOL d          -0.154   9.732  17.093  0.00  0.00     0.092 C 
ATOM     37  C2  MOL d          -1.679   9.761  16.969  0.00  0.00     0.105 C 
ATOM     38  H4  MOL d           0.328   9.177  16.275  0.00  0.00     0.091 H 
ATOM     39  C1  MOL d          -2.049  10.948  17.872  0.00  0.00     0.140 C 
ATOM     40  H2  MOL d          -1.986   9.926  15.926  0.00  0.00     0.093 H 
ATOM     41  O13 MOL d          -1.010  11.920  17.724  0.00  0.00    -0.352 OA
ATOM     42  H1  MOL d          -2.110  10.612  18.918  0.00  0.00     0.123 H 
ATOM     43  H6  MOL d           1.047  11.464  17.590  0.00  0.00     0.093 H 
BRANCH  36  44
ATOM     44  O5  MOL d           0.294   9.263  18.373  0.00  0.00    -0.390 OA
ATOM     45  H5  MOL d           1.108   9.696  18.600  0.00  0.00     0.210 HD
ENDBRANCH  36  44
BRANCH  37  46
ATOM     46  O3  MOL d          -2.314   8.579  17.480  0.00  0.00    -0.388 OA
ATOM     47  H3  MOL d          -2.039   7.828  16.967  0.00  0.00     0.210 HD
ENDBRANCH  37  46
BRANCH  39  48
ATOM     48  N10 MOL d          -3.335  11.559  17.483  0.00  0.00    -0.294 N 
ATOM     49  C9  MOL d          -4.438  11.814  18.337  0.00  0.00     0.070 A 
ATOM     50  N8  MOL d          -5.455  12.263  17.676  0.00  0.00    -0.238 NA
ATOM     51  H10 MOL d          -4.429  11.652  19.415  0.00  0.00     0.144 H 
ATOM     52  C12 MOL d          -5.085  12.287  16.374  0.00  0.00     0.128 A 
ATOM     53  C11 MOL d          -3.772  11.884  16.213  0.00  0.00     0.165 A 
ATOM     54  C35 MOL d          -5.773  12.714  15.224  0.00  0.00     0.064 A 
ATOM     55  N40 MOL d          -3.117  11.783  15.042  0.00  0.00    -0.222 NA
ATOM     56  C39 MOL d          -3.822  12.189  13.986  0.00  0.00     0.089 A 
ATOM     57  N38 MOL d          -5.117  12.640  14.058  0.00  0.00    -0.244 NA
ATOM     58  H24 MOL d          -3.345  12.163  13.014  0.00  0.00     0.146 H 
BRANCH  54  59
ATOM     59  C7  MOL d          -7.179  13.279  15.247  0.00  0.00    -0.033 C 
ATOM     60  H7  MOL d          -7.591  13.281  14.227  0.00  0.00     0.035 H 
ATOM     61  H8  MOL d          -7.155  14.308  15.635  0.00  0.00     0.035 H 
ATOM     62  H9  MOL d          -7.813  12.657  15.897  0.00  0.00     0.035 H 
ENDBRANCH  54  59
ENDBRANCH  39  48
ENDBRANCH   1  35
TORSDOF 11
ENDMDL
MODEL 6
REMARK VINA RESULT:      -7.4      5.213     10.493
REMARK  11 active torsions:
REMARK  status: ('A' for Active; 'I' for Inactive)
REMARK    1  A    between atoms: N10_10  and  C1_1 
REMARK    2  A    between atoms: C2_2  and  O3_3 
REMARK    3  A    between atoms: C4_4  and  O5_5 
REMARK    4  A    between atoms: C6_6  and  C14_14 
REMARK    5  A    between atoms: C35_35  and  C7_7 
REMARK    6  A    between atoms: C15_15  and  C16_16 
REMARK    7  A    between atoms: C16_16  and  N17_17 
REMARK       I    between atoms: N17_17  and  C18_18 
REMARK    8  A    between atoms: C18_18  and  C20_20 
REMARK    9  A    between atoms: C22_22  and  C24_24 
REMARK   10  A    between atoms: C31_31  and  O32_32 
REMARK   11  A    between atoms: C33_33  and  O34_34 
ROOT
ATOM      1  C14 MOL d          -0.552  11.745  16.018  0.00  0.00    -0.075 C 
ATOM      2  C15 MOL d          -0.736  12.775  15.234  0.00  0.00    -0.087 C 
ATOM      3  H11 MOL d           0.369  11.165  15.972  0.00  0.00     0.080 H 
ATOM      4  H12 MOL d          -1.649  13.362  15.328  0.00  0.00     0.079 H 
ENDROOT
BRANCH   2   5
ATOM      5  C16 MOL d           0.273  13.160  14.222  0.00  0.00     0.010 C 
ATOM      6  H13 MOL d          -0.073  12.933  13.203  0.00  0.00     0.070 H 
ATOM      7  H14 MOL d           1.235  12.657  14.403  0.00  0.00     0.070 H 
BRANCH   5   8
ATOM      8  N17 MOL d           0.376  14.602  14.443  0.00  0.00    -0.353 N 
ATOM      9  C18 MOL d          -0.730  15.299  14.046  0.00  0.00     0.254 C 
ATOM     10  O19 MOL d          -1.664  14.725  13.478  0.00  0.00    -0.268 OA
ATOM     11  H15 MOL d           1.181  15.037  14.847  0.00  0.00     0.163 HD
BRANCH   9  12
ATOM     12  C20 MOL d          -0.671  16.758  14.151  0.00  0.00     0.068 A 
ATOM     13  C21 MOL d          -1.887  17.438  14.362  0.00  0.00    -0.054 A 
ATOM     14  C22 MOL d          -1.911  18.824  14.510  0.00  0.00    -0.022 A 
ATOM     15  H16 MOL d          -2.813  16.877  14.410  0.00  0.00     0.086 H 
ATOM     16  C23 MOL d          -0.735  19.597  14.439  0.00  0.00    -0.037 A 
ATOM     17  C33 MOL d           0.457  18.895  14.226  0.00  0.00     0.100 A 
ATOM     18  H17 MOL d          -0.752  20.676  14.543  0.00  0.00     0.089 H 
ATOM     19  C31 MOL d           0.505  17.504  14.136  0.00  0.00     0.114 A 
BRANCH  14  20
ATOM     20  C24 MOL d          -3.239  19.476  14.721  0.00  0.00    -0.026 A 
ATOM     21  C25 MOL d          -3.477  20.099  15.929  0.00  0.00    -0.069 A 
ATOM     22  C26 MOL d          -4.731  20.677  16.104  0.00  0.00    -0.045 A 
ATOM     23  H18 MOL d          -2.722  20.135  16.706  0.00  0.00     0.085 H 
ATOM     24  C29 MOL d          -5.623  20.594  15.037  0.00  0.00     0.116 A 
ATOM     25  H19 MOL d          -5.001  21.171  17.030  0.00  0.00     0.088 H 
ATOM     26  C28 MOL d          -5.418  19.950  13.843  0.00  0.00    -0.045 A 
ATOM     27  F30 MOL d          -6.912  21.124  15.131  0.00  0.00    -0.206 F 
ATOM     28  C27 MOL d          -4.140  19.398  13.681  0.00  0.00    -0.069 A 
ATOM     29  H21 MOL d          -6.186  19.874  13.082  0.00  0.00     0.088 H 
ATOM     30  H20 MOL d          -3.864  18.916  12.751  0.00  0.00     0.085 H 
ENDBRANCH  14  20
BRANCH  17  31
ATOM     31  O34 MOL d           1.637  19.643  14.152  0.00  0.00    -0.358 OA
ATOM     32  H23 MOL d           1.655  20.123  13.332  0.00  0.00     0.217 HD
ENDBRANCH  17  31
BRANCH  19  33
ATOM     33  O32 MOL d           1.723  16.947  13.907  0.00  0.00    -0.357 OA
ATOM     34  H22 MOL d           2.019  17.182  13.035  0.00  0.00     0.217 HD
ENDBRANCH  19  33
ENDBRANCH   9  12
ENDBRANCH   5   8
ENDBRANCH   2   5
BRANCH   1  35
ATOM     35  C6  MOL d          -1.642  11.378  16.986  0.00  0.00     0.084 C 
ATOM     36  C4  MOL d          -1.555   9.877  17.212  0.00  0.00     0.092 C 
ATOM     37  C2  MOL d          -2.404   9.415  16.025  0.00  0.00     0.105 C 
ATOM     38  H4  MOL d          -0.532   9.476  17.184  0.00  0.00     0.091 H 
ATOM     39  C1  MOL d          -3.536  10.454  16.019  0.00  0.00     0.140 C 
ATOM     40  H2  MOL d          -1.821   9.436  15.093  0.00  0.00     0.093 H 
ATOM     41  O13 MOL d          -2.956  11.700  16.415  0.00  0.00    -0.352 OA
ATOM     42  H1  MOL d          -4.317  10.153  16.734  0.00  0.00     0.123 H 
ATOM     43  H6  MOL d          -1.506  11.918  17.934  0.00  0.00     0.093 H 
BRANCH  36  44
ATOM     44  O5  MOL d          -2.179   9.621  18.479  0.00  0.00    -0.390 OA
ATOM     45  H5  MOL d          -2.427   8.706  18.529  0.00  0.00     0.210 HD
ENDBRANCH  36  44
BRANCH  37  46
ATOM     46  O3  MOL d          -2.976   8.111  16.209  0.00  0.00    -0.388 OA
ATOM     47  H3  MOL d          -3.892   8.199  16.445  0.00  0.00     0.210 HD
ENDBRANCH  37  46
BRANCH  39  48
ATOM     48  N10 MOL d          -4.137  10.609  14.681  0.00  0.00    -0.294 N 
ATOM     49  C9  MOL d          -4.065  11.759  13.854  0.00  0.00     0.070 A 
ATOM     50  N8  MOL d          -4.779  11.619  12.785  0.00  0.00    -0.238 NA
ATOM     51  H10 MOL d          -3.481  12.648  14.090  0.00  0.00     0.144 H 
ATOM     52  C12 MOL d          -5.373  10.407  12.877  0.00  0.00     0.128 A 
ATOM     53  C11 MOL d          -4.982   9.737  14.022  0.00  0.00     0.165 A 
ATOM     54  C35 MOL d          -6.224   9.722  11.990  0.00  0.00     0.064 A 
ATOM     55  N40 MOL d          -5.410   8.521  14.408  0.00  0.00    -0.222 NA
ATOM     56  C39 MOL d          -6.223   7.926  13.535  0.00  0.00     0.089 A 
ATOM     57  N38 MOL d          -6.633   8.500  12.357  0.00  0.00    -0.244 NA
ATOM     58  H24 MOL d          -6.581   6.930  13.769  0.00  0.00     0.146 H 
BRANCH  54  59
ATOM     59  C7  MOL d          -6.660  10.277  10.648  0.00  0.00    -0.033 C 
ATOM     60  H7  MOL d          -5.838  10.859  10.207  0.00  0.00     0.035 H 
ATOM     61  H8  MOL d          -7.536  10.928  10.788  0.00  0.00     0.035 H 
ATOM     62  H9  MOL d          -6.923   9.446   9.977  0.00  0.00     0.035 H 
ENDBRANCH  54  59
ENDBRANCH  39  48
ENDBRANCH   1  35
TORSDOF 11
ENDMDL
MODEL 7
REMARK VINA RESULT:      -7.0      3.191      4.524
REMARK  11 active torsions:
REMARK  status: ('A' for Active; 'I' for Inactive)
REMARK    1  A    between atoms: N10_10  and  C1_1 
REMARK    2  A    between atoms: C2_2  and  O3_3 
REMARK    3  A    between atoms: C4_4  and  O5_5 
REMARK    4  A    between atoms: C6_6  and  C14_14 
REMARK    5  A    between atoms: C35_35  and  C7_7 
REMARK    6  A    between atoms: C15_15  and  C16_16 
REMARK    7  A    between atoms: C16_16  and  N17_17 
REMARK       I    between atoms: N17_17  and  C18_18 
REMARK    8  A    between atoms: C18_18  and  C20_20 
REMARK    9  A    between atoms: C22_22  and  C24_24 
REMARK   10  A    between atoms: C31_31  and  O32_32 
REMARK   11  A    between atoms: C33_33  and  O34_34 
ROOT
ATOM      1  C14 MOL d          -2.418  20.405  15.674  0.00  0.00    -0.075 C 
ATOM      2  C15 MOL d          -1.818  19.615  14.822  0.00  0.00    -0.087 C 
ATOM      3  H11 MOL d          -1.876  21.215  16.162  0.00  0.00     0.080 H 
ATOM      4  H12 MOL d          -2.392  18.838  14.318  0.00  0.00     0.079 H 
ENDROOT
BRANCH   2   5
ATOM      5  C16 MOL d          -0.374  19.756  14.529  0.00  0.00     0.010 C 
ATOM      6  H13 MOL d           0.126  20.392  15.273  0.00  0.00     0.070 H 
ATOM      7  H14 MOL d          -0.207  20.169  13.522  0.00  0.00     0.070 H 
BRANCH   5   8
ATOM      8  N17 MOL d           0.081  18.369  14.619  0.00  0.00    -0.353 N 
ATOM      9  C18 MOL d          -0.709  17.487  13.937  0.00  0.00     0.254 C 
ATOM     10  O19 MOL d          -1.747  17.866  13.388  0.00  0.00    -0.268 OA
ATOM     11  H15 MOL d           0.893  18.093  15.131  0.00  0.00     0.163 HD
BRANCH   9  12
ATOM     12  C20 MOL d          -0.373  16.066  14.051  0.00  0.00     0.068 A 
ATOM     13  C21 MOL d          -1.445  15.157  14.145  0.00  0.00    -0.054 A 
ATOM     14  C22 MOL d          -1.211  13.784  14.218  0.00  0.00    -0.022 A 
ATOM     15  H16 MOL d          -2.464  15.528  14.160  0.00  0.00     0.086 H 
ATOM     16  C23 MOL d           0.096  13.255  14.219  0.00  0.00    -0.037 A 
ATOM     17  C33 MOL d           1.140  14.182  14.128  0.00  0.00     0.100 A 
ATOM     18  H17 MOL d           0.281  12.189  14.286  0.00  0.00     0.089 H 
ATOM     19  C31 MOL d           0.920  15.553  13.992  0.00  0.00     0.114 A 
BRANCH  14  20
ATOM     20  C24 MOL d          -2.398  12.883  14.327  0.00  0.00    -0.026 A 
ATOM     21  C25 MOL d          -3.346  12.929  13.325  0.00  0.00    -0.069 A 
ATOM     22  C26 MOL d          -4.451  12.094  13.465  0.00  0.00    -0.045 A 
ATOM     23  H18 MOL d          -3.236  13.585  12.469  0.00  0.00     0.085 H 
ATOM     24  C29 MOL d          -4.488  11.273  14.591  0.00  0.00     0.116 A 
ATOM     25  H19 MOL d          -5.247  12.083  12.730  0.00  0.00     0.088 H 
ATOM     26  C28 MOL d          -3.574  11.238  15.612  0.00  0.00    -0.045 A 
ATOM     27  F30 MOL d          -5.569  10.421  14.826  0.00  0.00    -0.206 F 
ATOM     28  C27 MOL d          -2.459  12.069  15.436  0.00  0.00    -0.069 A 
ATOM     29  H21 MOL d          -3.704  10.615  16.489  0.00  0.00     0.088 H 
ATOM     30  H20 MOL d          -1.656  12.071  16.163  0.00  0.00     0.085 H 
ENDBRANCH  14  20
BRANCH  17  31
ATOM     31  O34 MOL d           2.446  13.679  14.126  0.00  0.00    -0.358 OA
ATOM     32  H23 MOL d           2.595  13.190  14.926  0.00  0.00     0.217 HD
ENDBRANCH  17  31
BRANCH  19  33
ATOM     33  O32 MOL d           2.022  16.347  13.934  0.00  0.00    -0.357 OA
ATOM     34  H22 MOL d           2.489  16.180  13.124  0.00  0.00     0.217 HD
ENDBRANCH  19  33
ENDBRANCH   9  12
ENDBRANCH   5   8
ENDBRANCH   2   5
BRANCH   1  35
ATOM     35  C6  MOL d          -3.873  20.171  15.966  0.00  0.00     0.084 C 
ATOM     36  C4  MOL d          -4.257  18.857  15.302  0.00  0.00     0.092 C 
ATOM     37  C2  MOL d          -4.585  19.391  13.906  0.00  0.00     0.105 C 
ATOM     38  H4  MOL d          -3.454  18.106  15.292  0.00  0.00     0.091 H 
ATOM     39  C1  MOL d          -5.315  20.704  14.230  0.00  0.00     0.140 C 
ATOM     40  H2  MOL d          -3.668  19.563  13.324  0.00  0.00     0.093 H 
ATOM     41  O13 MOL d          -4.685  21.251  15.393  0.00  0.00    -0.352 OA
ATOM     42  H1  MOL d          -6.376  20.497  14.434  0.00  0.00     0.123 H 
ATOM     43  H6  MOL d          -4.040  20.115  17.051  0.00  0.00     0.093 H 
BRANCH  36  44
ATOM     44  O5  MOL d          -5.413  18.372  16.001  0.00  0.00    -0.390 OA
ATOM     45  H5  MOL d          -6.045  18.042  15.374  0.00  0.00     0.210 HD
ENDBRANCH  36  44
BRANCH  37  46
ATOM     46  O3  MOL d          -5.475  18.541  13.167  0.00  0.00    -0.388 OA
ATOM     47  H3  MOL d          -4.970  17.887  12.699  0.00  0.00     0.210 HD
ENDBRANCH  37  46
BRANCH  39  48
ATOM     48  N10 MOL d          -5.214  21.679  13.128  0.00  0.00    -0.294 N 
ATOM     49  C9  MOL d          -4.397  22.838  13.101  0.00  0.00     0.070 A 
ATOM     50  N8  MOL d          -4.609  23.542  12.037  0.00  0.00    -0.238 NA
ATOM     51  H10 MOL d          -3.681  23.101  13.879  0.00  0.00     0.144 H 
ATOM     52  C12 MOL d          -5.586  22.910  11.347  0.00  0.00     0.128 A 
ATOM     53  C11 MOL d          -5.971  21.738  11.973  0.00  0.00     0.165 A 
ATOM     54  C35 MOL d          -6.184  23.205  10.108  0.00  0.00     0.064 A 
ATOM     55  N40 MOL d          -6.929  20.896  11.547  0.00  0.00    -0.222 NA
ATOM     56  C39 MOL d          -7.470  21.233  10.375  0.00  0.00     0.089 A 
ATOM     57  N38 MOL d          -7.122  22.356   9.666  0.00  0.00    -0.244 NA
ATOM     58  H24 MOL d          -8.229  20.581   9.958  0.00  0.00     0.146 H 
BRANCH  54  59
ATOM     59  C7  MOL d          -5.799  24.394   9.251  0.00  0.00    -0.033 C 
ATOM     60  H7  MOL d          -6.708  24.876   8.863  0.00  0.00     0.035 H 
ATOM     61  H8  MOL d          -5.178  24.053   8.410  0.00  0.00     0.035 H 
ATOM     62  H9  MOL d          -5.232  25.115   9.858  0.00  0.00     0.035 H 
ENDBRANCH  54  59
ENDBRANCH  39  48
ENDBRANCH   1  35
TORSDOF 11
ENDMDL
MODEL 8
REMARK VINA RESULT:      -6.9      4.623      6.935
REMARK  11 active torsions:
REMARK  status: ('A' for Active; 'I' for Inactive)
REMARK    1  A    between atoms: N10_10  and  C1_1 
REMARK    2  A    between atoms: C2_2  and  O3_3 
REMARK    3  A    between atoms: C4_4  and  O5_5 
REMARK    4  A    between atoms: C6_6  and  C14_14 
REMARK    5  A    between atoms: C35_35  and  C7_7 
REMARK    6  A    between atoms: C15_15  and  C16_16 
REMARK    7  A    between atoms: C16_16  and  N17_17 
REMARK       I    between atoms: N17_17  and  C18_18 
REMARK    8  A    between atoms: C18_18  and  C20_20 
REMARK    9  A    between atoms: C22_22  and  C24_24 
REMARK   10  A    between atoms: C31_31  and  O32_32 
REMARK   11  A    between atoms: C33_33  and  O34_34 
ROOT
ATOM      1  C14 MOL d          -3.817  20.436  15.290  0.00  0.00    -0.075 C 
ATOM      2  C15 MOL d          -3.273  20.087  14.153  0.00  0.00    -0.087 C 
ATOM      3  H11 MOL d          -3.203  20.601  16.175  0.00  0.00     0.080 H 
ATOM      4  H12 MOL d          -3.904  19.967  13.273  0.00  0.00     0.079 H 
ENDROOT
BRANCH   2   5
ATOM      5  C16 MOL d          -1.816  19.854  14.038  0.00  0.00     0.010 C 
ATOM      6  H13 MOL d          -1.267  20.327  14.865  0.00  0.00     0.070 H 
ATOM      7  H14 MOL d          -1.424  20.225  13.079  0.00  0.00     0.070 H 
BRANCH   5   8
ATOM      8  N17 MOL d          -1.745  18.396  14.114  0.00  0.00    -0.353 N 
ATOM      9  C18 MOL d          -0.470  17.909  14.173  0.00  0.00     0.254 C 
ATOM     10  O19 MOL d           0.498  18.669  14.078  0.00  0.00    -0.268 OA
ATOM     11  H15 MOL d          -2.555  17.809  14.121  0.00  0.00     0.163 HD
BRANCH   9  12
ATOM     12  C20 MOL d          -0.310  16.454  14.161  0.00  0.00     0.068 A 
ATOM     13  C21 MOL d          -1.485  15.677  14.171  0.00  0.00    -0.054 A 
ATOM     14  C22 MOL d          -1.419  14.285  14.122  0.00  0.00    -0.022 A 
ATOM     15  H16 MOL d          -2.451  16.166  14.218  0.00  0.00     0.086 H 
ATOM     16  C23 MOL d          -0.187  13.603  14.077  0.00  0.00    -0.037 A 
ATOM     17  C33 MOL d           0.964  14.401  14.070  0.00  0.00     0.100 A 
ATOM     18  H17 MOL d          -0.132  12.521  14.049  0.00  0.00     0.089 H 
ATOM     19  C31 MOL d           0.913  15.795  14.057  0.00  0.00     0.114 A 
BRANCH  14  20
ATOM     20  C24 MOL d          -2.708  13.528  14.148  0.00  0.00    -0.026 A 
ATOM     21  C25 MOL d          -2.857  12.526  15.086  0.00  0.00    -0.069 A 
ATOM     22  C26 MOL d          -4.059  11.825  15.071  0.00  0.00    -0.045 A 
ATOM     23  H18 MOL d          -2.075  12.297  15.800  0.00  0.00     0.085 H 
ATOM     24  C29 MOL d          -5.009  12.211  14.126  0.00  0.00     0.116 A 
ATOM     25  H19 MOL d          -4.249  11.013  15.764  0.00  0.00     0.088 H 
ATOM     26  C28 MOL d          -4.864  13.179  13.165  0.00  0.00    -0.045 A 
ATOM     27  F30 MOL d          -6.233  11.548  14.021  0.00  0.00    -0.206 F 
ATOM     28  C27 MOL d          -3.657  13.888  13.217  0.00  0.00    -0.069 A 
ATOM     29  H21 MOL d          -5.627  13.380  12.422  0.00  0.00     0.088 H 
ATOM     30  H20 MOL d          -3.472  14.708  12.533  0.00  0.00     0.085 H 
ENDBRANCH  14  20
BRANCH  17  31
ATOM     31  O34 MOL d           2.198  13.745  14.024  0.00  0.00    -0.358 OA
ATOM     32  H23 MOL d           2.649  13.864  14.852  0.00  0.00     0.217 HD
ENDBRANCH  17  31
BRANCH  19  33
ATOM     33  O32 MOL d           2.103  16.451  14.072  0.00  0.00    -0.357 OA
ATOM     34  H22 MOL d           1.960  17.357  14.321  0.00  0.00     0.217 HD
ENDBRANCH  19  33
ENDBRANCH   9  12
ENDBRANCH   5   8
ENDBRANCH   2   5
BRANCH   1  35
ATOM     35  C6  MOL d          -5.309  20.603  15.348  0.00  0.00     0.084 C 
ATOM     36  C4  MOL d          -5.624  21.377  16.619  0.00  0.00     0.092 C 
ATOM     37  C2  MOL d          -5.682  20.202  17.597  0.00  0.00     0.105 C 
ATOM     38  H4  MOL d          -4.863  22.122  16.893  0.00  0.00     0.091 H 
ATOM     39  C1  MOL d          -6.403  19.130  16.765  0.00  0.00     0.140 C 
ATOM     40  H2  MOL d          -4.671  19.884  17.891  0.00  0.00     0.093 H 
ATOM     41  O13 MOL d          -5.964  19.291  15.413  0.00  0.00    -0.352 OA
ATOM     42  H1  MOL d          -7.491  19.280  16.833  0.00  0.00     0.123 H 
ATOM     43  H6  MOL d          -5.664  21.154  14.465  0.00  0.00     0.093 H 
BRANCH  36  44
ATOM     44  O5  MOL d          -6.903  21.995  16.411  0.00  0.00    -0.390 OA
ATOM     45  H5  MOL d          -7.124  22.524  17.168  0.00  0.00     0.210 HD
ENDBRANCH  36  44
BRANCH  37  46
ATOM     46  O3  MOL d          -6.463  20.477  18.770  0.00  0.00    -0.388 OA
ATOM     47  H3  MOL d          -6.433  19.726  19.352  0.00  0.00     0.210 HD
ENDBRANCH  37  46
BRANCH  39  48
ATOM     48  N10 MOL d          -6.072  17.765  17.217  0.00  0.00    -0.294 N 
ATOM     49  C9  MOL d          -4.936  17.006  16.837  0.00  0.00     0.070 A 
ATOM     50  N8  MOL d          -4.983  15.808  17.323  0.00  0.00    -0.238 NA
ATOM     51  H10 MOL d          -4.125  17.384  16.215  0.00  0.00     0.144 H 
ATOM     52  C12 MOL d          -6.151  15.715  18.000  0.00  0.00     0.128 A 
ATOM     53  C11 MOL d          -6.843  16.912  17.982  0.00  0.00     0.165 A 
ATOM     54  C35 MOL d          -6.704  14.662  18.752  0.00  0.00     0.064 A 
ATOM     55  N40 MOL d          -8.043  17.136  18.549  0.00  0.00    -0.222 NA
ATOM     56  C39 MOL d          -8.524  16.101  19.237  0.00  0.00     0.089 A 
ATOM     57  N38 MOL d          -7.887  14.888  19.340  0.00  0.00    -0.244 NA
ATOM     58  H24 MOL d          -9.474  16.223  19.744  0.00  0.00     0.146 H 
BRANCH  54  59
ATOM     59  C7  MOL d          -6.021  13.325  18.955  0.00  0.00    -0.033 C 
ATOM     60  H7  MOL d          -4.975  13.489  19.252  0.00  0.00     0.035 H 
ATOM     61  H8  MOL d          -6.050  12.753  18.015  0.00  0.00     0.035 H 
ATOM     62  H9  MOL d          -6.543  12.762  19.743  0.00  0.00     0.035 H 
ENDBRANCH  54  59
ENDBRANCH  39  48
ENDBRANCH   1  35
TORSDOF 11
ENDMDL
