MODEL 1
REMARK VINA RESULT:      -6.0      0.000      0.000
REMARK  16 active torsions:
REMARK  status: ('A' for Active; 'I' for Inactive)
REMARK    1  A    between atoms: S8_1  and  C35_3 
REMARK    2  A    between atoms: N11_14  and  S8_1 
REMARK    3  A    between atoms: O9_5  and  C10_4 
REMARK    4  A    between atoms: C5_6  and  O9_5 
REMARK    5  A    between atoms: C45_25  and  C13_13 
REMARK       I    between atoms: C13_13  and  N15_30 
REMARK    6  A    between atoms: C45_25  and  N11_14 
REMARK    7  A    between atoms: C15_16  and  C31_17 
REMARK    8  A    between atoms: N14_29  and  C15_16 
REMARK    9  A    between atoms: C12_26  and  C45_25 
REMARK   10  A    between atoms: C46_27  and  C12_26 
REMARK       I    between atoms: C46_27  and  N14_29 
REMARK   11  A    between atoms: C16_31  and  C17_32 
REMARK       I    between atoms: C17_32  and  N19_37 
REMARK   12  A    between atoms: N19_37  and  C20_38 
REMARK   13  A    between atoms: C20_38  and  C21_39 
REMARK   14  A    between atoms: C24_42  and  C27_43 
REMARK   15  A    between atoms: C27_43  and  N29_44 
REMARK   16  A    between atoms: C27_43  and  N28_45 
ROOT
ATOM      1  C31 MOL d          19.088 -14.770  25.679  0.00  0.00    -0.040 A 
ATOM      2  C32 MOL d          19.221 -13.699  24.913  0.00  0.00    -0.074 A 
ATOM      3  C33 MOL d          20.456 -13.344  24.552  0.00  0.00    -0.062 A 
ATOM      4  C44 MOL d          21.588 -13.973  24.943  0.00  0.00     0.044 A 
ATOM      5  C8  MOL d          21.465 -15.083  25.737  0.00  0.00    -0.062 A 
ATOM      6  C9  MOL d          20.231 -15.351  26.090  0.00  0.00    -0.074 A 
ATOM      7  C40 MOL d          22.651 -13.578  24.523  0.00  0.00     0.099 C 
ATOM      8  N63 MOL d          23.616 -13.320  24.052  0.00  0.00    -0.191 NA
ATOM      9  H10 MOL d          18.357 -13.131  24.589  0.00  0.00     0.084 H 
ATOM     10  H11 MOL d          20.559 -12.487  23.897  0.00  0.00     0.085 H 
ATOM     11  H12 MOL d          22.311 -15.686  26.045  0.00  0.00     0.085 H 
ATOM     12  H13 MOL d          20.115 -16.150  26.813  0.00  0.00     0.084 H 
ENDROOT
BRANCH   1  13
ATOM     13  C15 MOL d          17.789 -15.199  26.092  0.00  0.00     0.019 C 
ATOM     14  H8  MOL d          17.117 -14.329  26.043  0.00  0.00     0.071 H 
ATOM     15  H9  MOL d          17.865 -15.544  27.133  0.00  0.00     0.071 H 
BRANCH  13  16
ATOM     16  N14 MOL d          17.165 -16.303  25.291  0.00  0.00    -0.357 N 
ATOM     17  C46 MOL d          17.219 -17.614  25.463  0.00  0.00     0.220 C 
ATOM     18  O22 MOL d          17.867 -18.146  26.235  0.00  0.00    -0.274 OA
ATOM     19  H17 MOL d          16.624 -16.001  24.506  0.00  0.00     0.162 HD
BRANCH  17  20
ATOM     20  C12 MOL d          16.475 -18.545  24.442  0.00  0.00     0.037 C 
ATOM     21  H15 MOL d          16.167 -19.458  24.973  0.00  0.00     0.051 H 
ATOM     22  H16 MOL d          15.583 -18.012  24.079  0.00  0.00     0.051 H 
BRANCH  20  23
ATOM     23  C45 MOL d          17.351 -18.981  23.164  0.00  0.00     0.105 C 
ATOM     24  H14 MOL d          17.407 -20.078  23.116  0.00  0.00     0.089 H 
BRANCH  23  25
ATOM     25  C13 MOL d          16.550 -18.414  21.929  0.00  0.00     0.244 C 
ATOM     26  O14 MOL d          17.119 -17.616  21.267  0.00  0.00    -0.271 OA
ATOM     27  N15 MOL d          15.370 -18.860  21.759  0.00  0.00    -0.337 N 
ATOM     28  C16 MOL d          14.515 -18.205  20.866  0.00  0.00     0.091 C 
ATOM     29  C2  MOL d          14.644 -19.795  22.615  0.00  0.00    -0.001 C 
ATOM     30  C34 MOL d          13.135 -18.798  21.095  0.00  0.00    -0.036 C 
ATOM     31  H18 MOL d          14.853 -18.256  19.822  0.00  0.00     0.087 H 
ATOM     32  C1  MOL d          13.278 -19.912  22.079  0.00  0.00    -0.048 C 
ATOM     33  H19 MOL d          12.730 -19.184  20.148  0.00  0.00     0.036 H 
ATOM     34  H20 MOL d          12.459 -18.028  21.496  0.00  0.00     0.036 H 
ATOM     35  H21 MOL d          13.144 -20.884  21.582  0.00  0.00     0.035 H 
ATOM     36  H22 MOL d          12.539 -19.808  22.887  0.00  0.00     0.035 H 
ATOM     37  H23 MOL d          14.611 -19.413  23.645  0.00  0.00     0.064 H 
ATOM     38  H24 MOL d          15.138 -20.777  22.603  0.00  0.00     0.064 H 
BRANCH  28  39
ATOM     39  C17 MOL d          14.367 -16.738  21.421  0.00  0.00     0.240 C 
ATOM     40  O18 MOL d          13.635 -16.429  22.291  0.00  0.00    -0.271 OA
ATOM     41  N19 MOL d          15.077 -15.788  20.738  0.00  0.00    -0.355 N 
ATOM     42  H25 MOL d          15.616 -16.083  19.949  0.00  0.00     0.162 HD
BRANCH  41  43
ATOM     43  C20 MOL d          15.097 -14.404  21.079  0.00  0.00     0.019 C 
ATOM     44  H26 MOL d          14.722 -14.263  22.104  0.00  0.00     0.071 H 
ATOM     45  H27 MOL d          14.471 -13.834  20.378  0.00  0.00     0.071 H 
BRANCH  43  46
ATOM     46  C21 MOL d          16.515 -13.947  20.987  0.00  0.00    -0.040 A 
ATOM     47  C26 MOL d          16.882 -12.689  20.613  0.00  0.00    -0.074 A 
ATOM     48  C25 MOL d          18.108 -12.281  20.514  0.00  0.00    -0.069 A 
ATOM     49  H28 MOL d          16.095 -11.981  20.384  0.00  0.00     0.084 H 
ATOM     50  C24 MOL d          19.151 -13.053  20.742  0.00  0.00     0.007 A 
ATOM     51  H29 MOL d          18.285 -11.250  20.228  0.00  0.00     0.085 H 
ATOM     52  C23 MOL d          18.854 -14.318  21.063  0.00  0.00    -0.069 A 
ATOM     53  C22 MOL d          17.576 -14.706  21.174  0.00  0.00    -0.074 A 
ATOM     54  H34 MOL d          19.651 -15.033  21.233  0.00  0.00     0.085 H 
ATOM     55  H35 MOL d          17.398 -15.740  21.443  0.00  0.00     0.084 H 
BRANCH  50  56
ATOM     56  C27 MOL d          20.512 -12.626  20.646  0.00  0.00     0.102 C 
BRANCH  56  57
ATOM     57  N29 MOL d          20.834 -11.822  19.852  0.00  0.00    -0.385 N 
ATOM     58  H30 MOL d          20.273 -11.685  18.999  0.00  0.00     0.157 HD
ATOM     59  H31 MOL d          21.679 -11.253  20.009  0.00  0.00     0.157 HD
ENDBRANCH  56  57
BRANCH  56  60
ATOM     60  N28 MOL d          21.393 -13.070  21.456  0.00  0.00    -0.385 N 
ATOM     61  H32 MOL d          22.299 -12.588  21.545  0.00  0.00     0.157 HD
ATOM     62  H33 MOL d          21.199 -13.910  22.019  0.00  0.00     0.157 HD
ENDBRANCH  56  60
ENDBRANCH  50  56
ENDBRANCH  43  46
ENDBRANCH  41  43
ENDBRANCH  28  39
ENDBRANCH  23  25
BRANCH  23  63
ATOM     63  N11 MOL d          18.604 -18.490  23.148  0.00  0.00    -0.301 N 
ATOM     64  H7  MOL d          18.777 -17.551  23.447  0.00  0.00     0.173 HD
BRANCH  63  65
ATOM     65  S8  MOL d          19.795 -19.393  22.660  0.00  0.00     0.259 S 
ATOM     66  O1  MOL d          20.076 -18.769  21.671  0.00  0.00    -0.201 OA
ATOM     67  O10 MOL d          19.599 -20.509  22.733  0.00  0.00    -0.201 OA
BRANCH  65  68
ATOM     68  C35 MOL d          21.136 -19.025  23.686  0.00  0.00     0.081 A 
ATOM     69  C7  MOL d          22.174 -18.219  23.302  0.00  0.00    -0.058 A 
ATOM     70  C6  MOL d          23.223 -17.902  24.169  0.00  0.00    -0.048 A 
ATOM     71  H4  MOL d          22.182 -17.816  22.296  0.00  0.00     0.086 H 
ATOM     72  C5  MOL d          23.176 -18.349  25.468  0.00  0.00     0.089 A 
ATOM     73  H6  MOL d          24.063 -17.311  23.822  0.00  0.00     0.087 H 
ATOM     74  C4  MOL d          22.105 -19.080  25.826  0.00  0.00     0.068 A 
ATOM     75 CL   MOL d          22.017 -19.574  27.513  0.00  0.00    -0.081 Cl
ATOM     76  C3  MOL d          21.130 -19.430  25.037  0.00  0.00    -0.037 A 
ATOM     77  H5  MOL d          20.314 -20.033  25.419  0.00  0.00     0.088 H 
BRANCH  72  78
ATOM     78  O9  MOL d          24.187 -18.144  26.325  0.00  0.00    -0.354 OA
BRANCH  78  79
ATOM     79  C10 MOL d          24.132 -17.103  27.188  0.00  0.00     0.010 C 
ATOM     80  H1  MOL d          24.738 -17.332  28.078  0.00  0.00     0.066 H 
ATOM     81  H2  MOL d          23.088 -16.932  27.490  0.00  0.00     0.066 H 
ATOM     82  H3  MOL d          24.526 -16.200  26.700  0.00  0.00     0.066 H 
ENDBRANCH  78  79
ENDBRANCH  72  78
ENDBRANCH  65  68
ENDBRANCH  63  65
ENDBRANCH  23  63
ENDBRANCH  20  23
ENDBRANCH  17  20
ENDBRANCH  13  16
ENDBRANCH   1  13
TORSDOF 16
ENDMDL
MODEL 2
REMARK VINA RESULT:      -5.9      3.139      6.494
REMARK  16 active torsions:
REMARK  status: ('A' for Active; 'I' for Inactive)
REMARK    1  A    between atoms: S8_1  and  C35_3 
REMARK    2  A    between atoms: N11_14  and  S8_1 
REMARK    3  A    between atoms: O9_5  and  C10_4 
REMARK    4  A    between atoms: C5_6  and  O9_5 
REMARK    5  A    between atoms: C45_25  and  C13_13 
REMARK       I    between atoms: C13_13  and  N15_30 
REMARK    6  A    between atoms: C45_25  and  N11_14 
REMARK    7  A    between atoms: C15_16  and  C31_17 
REMARK    8  A    between atoms: N14_29  and  C15_16 
REMARK    9  A    between atoms: C12_26  and  C45_25 
REMARK   10  A    between atoms: C46_27  and  C12_26 
REMARK       I    between atoms: C46_27  and  N14_29 
REMARK   11  A    between atoms: C16_31  and  C17_32 
REMARK       I    between atoms: C17_32  and  N19_37 
REMARK   12  A    between atoms: N19_37  and  C20_38 
REMARK   13  A    between atoms: C20_38  and  C21_39 
REMARK   14  A    between atoms: C24_42  and  C27_43 
REMARK   15  A    between atoms: C27_43  and  N29_44 
REMARK   16  A    between atoms: C27_43  and  N28_45 
ROOT
ATOM      1  C31 MOL d          16.445 -20.163  20.434  0.00  0.00    -0.040 A 
ATOM      2  C32 MOL d          15.963 -19.666  19.306  0.00  0.00    -0.074 A 
ATOM      3  C33 MOL d          14.645 -19.480  19.223  0.00  0.00    -0.062 A 
ATOM      4  C44 MOL d          13.755 -19.798  20.192  0.00  0.00     0.044 A 
ATOM      5  C8  MOL d          14.240 -20.315  21.365  0.00  0.00    -0.062 A 
ATOM      6  C9  MOL d          15.536 -20.513  21.363  0.00  0.00    -0.074 A 
ATOM      7  C40 MOL d          12.584 -19.551  20.014  0.00  0.00     0.099 C 
ATOM      8  N63 MOL d          11.535 -19.217  19.930  0.00  0.00    -0.191 NA
ATOM      9  H10 MOL d          16.617 -19.418  18.478  0.00  0.00     0.084 H 
ATOM     10  H11 MOL d          14.257 -19.041  18.311  0.00  0.00     0.085 H 
ATOM     11  H12 MOL d          13.609 -20.539  22.216  0.00  0.00     0.085 H 
ATOM     12  H13 MOL d          15.930 -21.031  22.230  0.00  0.00     0.084 H 
ENDROOT
BRANCH   1  13
ATOM     13  C15 MOL d          17.850 -20.380  20.579  0.00  0.00     0.019 C 
ATOM     14  H8  MOL d          18.256 -20.624  19.587  0.00  0.00     0.071 H 
ATOM     15  H9  MOL d          17.988 -21.239  21.253  0.00  0.00     0.071 H 
BRANCH  13  16
ATOM     16  N14 MOL d          18.648 -19.236  21.130  0.00  0.00    -0.357 N 
ATOM     17  C46 MOL d          18.962 -18.942  22.381  0.00  0.00     0.220 C 
ATOM     18  O22 MOL d          18.572 -19.492  23.300  0.00  0.00    -0.274 OA
ATOM     19  H17 MOL d          18.996 -18.595  20.445  0.00  0.00     0.162 HD
BRANCH  17  20
ATOM     20  C12 MOL d          19.804 -17.649  22.669  0.00  0.00     0.037 C 
ATOM     21  H15 MOL d          20.508 -17.874  23.484  0.00  0.00     0.051 H 
ATOM     22  H16 MOL d          20.366 -17.396  21.758  0.00  0.00     0.051 H 
BRANCH  20  23
ATOM     23  C45 MOL d          18.938 -16.362  23.097  0.00  0.00     0.105 C 
ATOM     24  H14 MOL d          19.613 -15.516  23.294  0.00  0.00     0.089 H 
BRANCH  23  25
ATOM     25  C13 MOL d          18.032 -16.065  21.840  0.00  0.00     0.244 C 
ATOM     26  O14 MOL d          18.563 -15.511  20.940  0.00  0.00    -0.271 OA
ATOM     27  N15 MOL d          16.817 -16.442  21.908  0.00  0.00    -0.337 N 
ATOM     28  C16 MOL d          15.902 -15.969  20.962  0.00  0.00     0.091 C 
ATOM     29  C2  MOL d          16.145 -17.065  23.045  0.00  0.00    -0.001 C 
ATOM     30  C34 MOL d          14.528 -16.369  21.471  0.00  0.00    -0.036 C 
ATOM     31  H18 MOL d          16.115 -16.312  19.940  0.00  0.00     0.087 H 
ATOM     32  C1  MOL d          14.723 -17.204  22.694  0.00  0.00    -0.048 C 
ATOM     33  H19 MOL d          13.997 -16.949  20.701  0.00  0.00     0.036 H 
ATOM     34  H20 MOL d          13.944 -15.470  21.720  0.00  0.00     0.036 H 
ATOM     35  H21 MOL d          14.481 -18.255  22.484  0.00  0.00     0.035 H 
ATOM     36  H22 MOL d          14.088 -16.837  23.514  0.00  0.00     0.035 H 
ATOM     37  H23 MOL d          16.252 -16.432  23.938  0.00  0.00     0.064 H 
ATOM     38  H24 MOL d          16.582 -18.055  23.244  0.00  0.00     0.064 H 
BRANCH  28  39
ATOM     39  C17 MOL d          15.897 -14.402  21.124  0.00  0.00     0.240 C 
ATOM     40  O18 MOL d          16.328 -13.831  22.061  0.00  0.00    -0.271 OA
ATOM     41  N19 MOL d          15.243 -13.720  20.134  0.00  0.00    -0.355 N 
ATOM     42  H25 MOL d          14.815 -14.252  19.404  0.00  0.00     0.162 HD
BRANCH  41  43
ATOM     43  C20 MOL d          15.131 -12.300  20.078  0.00  0.00     0.019 C 
ATOM     44  H26 MOL d          14.890 -11.981  19.053  0.00  0.00     0.071 H 
ATOM     45  H27 MOL d          16.077 -11.836  20.394  0.00  0.00     0.071 H 
BRANCH  43  46
ATOM     46  C21 MOL d          14.031 -11.906  21.009  0.00  0.00    -0.040 A 
ATOM     47  C26 MOL d          13.806 -10.625  21.415  0.00  0.00    -0.074 A 
ATOM     48  C25 MOL d          12.867 -10.269  22.233  0.00  0.00    -0.069 A 
ATOM     49  H28 MOL d          14.458  -9.851  21.028  0.00  0.00     0.084 H 
ATOM     50  C24 MOL d          12.028 -11.120  22.790  0.00  0.00     0.007 A 
ATOM     51  H29 MOL d          12.765  -9.217  22.472  0.00  0.00     0.085 H 
ATOM     52  C23 MOL d          12.233 -12.403  22.469  0.00  0.00    -0.069 A 
ATOM     53  C22 MOL d          13.203 -12.738  21.607  0.00  0.00    -0.074 A 
ATOM     54  H34 MOL d          11.612 -13.175  22.909  0.00  0.00     0.085 H 
ATOM     55  H35 MOL d          13.317 -13.792  21.381  0.00  0.00     0.084 H 
BRANCH  50  56
ATOM     56  C27 MOL d          10.980 -10.753  23.690  0.00  0.00     0.102 C 
BRANCH  56  57
ATOM     57  N29 MOL d          10.253 -11.565  24.130  0.00  0.00    -0.385 N 
ATOM     58  H30 MOL d          10.632 -12.446  24.505  0.00  0.00     0.157 HD
ATOM     59  H31 MOL d           9.237 -11.395  24.140  0.00  0.00     0.157 HD
ENDBRANCH  56  57
BRANCH  56  60
ATOM     60  N28 MOL d          10.846  -9.543  24.076  0.00  0.00    -0.385 N 
ATOM     61  H32 MOL d           9.906  -9.139  24.188  0.00  0.00     0.157 HD
ATOM     62  H33 MOL d          11.680  -8.972  24.276  0.00  0.00     0.157 HD
ENDBRANCH  56  60
ENDBRANCH  50  56
ENDBRANCH  43  46
ENDBRANCH  41  43
ENDBRANCH  28  39
ENDBRANCH  23  25
BRANCH  23  63
ATOM     63  N11 MOL d          18.158 -16.544  24.178  0.00  0.00    -0.301 N 
ATOM     64  H7  MOL d          17.508 -17.304  24.204  0.00  0.00     0.173 HD
BRANCH  63  65
ATOM     65  S8  MOL d          18.267 -15.560  25.400  0.00  0.00     0.259 S 
ATOM     66  O1  MOL d          18.497 -16.381  26.248  0.00  0.00    -0.201 OA
ATOM     67  O10 MOL d          17.468 -14.754  25.426  0.00  0.00    -0.201 OA
BRANCH  65  68
ATOM     68  C35 MOL d          19.802 -14.779  25.258  0.00  0.00     0.081 A 
ATOM     69  C7  MOL d          19.945 -13.421  25.162  0.00  0.00    -0.058 A 
ATOM     70  C6  MOL d          21.201 -12.813  25.093  0.00  0.00    -0.048 A 
ATOM     71  H4  MOL d          19.057 -12.799  25.137  0.00  0.00     0.086 H 
ATOM     72  C5  MOL d          22.328 -13.592  25.201  0.00  0.00     0.089 A 
ATOM     73  H6  MOL d          21.286 -11.740  24.957  0.00  0.00     0.087 H 
ATOM     74  C4  MOL d          22.145 -14.914  25.366  0.00  0.00     0.068 A 
ATOM     75 CL   MOL d          23.594 -15.888  25.587  0.00  0.00    -0.081 Cl
ATOM     76  C3  MOL d          20.994 -15.521  25.392  0.00  0.00    -0.037 A 
ATOM     77  H5  MOL d          20.951 -16.597  25.517  0.00  0.00     0.088 H 
BRANCH  72  78
ATOM     78  O9  MOL d          23.560 -13.079  25.066  0.00  0.00    -0.354 OA
BRANCH  78  79
ATOM     79  C10 MOL d          24.158 -13.088  23.851  0.00  0.00     0.010 C 
ATOM     80  H1  MOL d          25.220 -12.824  23.964  0.00  0.00     0.066 H 
ATOM     81  H2  MOL d          23.665 -12.357  23.193  0.00  0.00     0.066 H 
ATOM     82  H3  MOL d          24.076 -14.093  23.409  0.00  0.00     0.066 H 
ENDBRANCH  78  79
ENDBRANCH  72  78
ENDBRANCH  65  68
ENDBRANCH  63  65
ENDBRANCH  23  63
ENDBRANCH  20  23
ENDBRANCH  17  20
ENDBRANCH  13  16
ENDBRANCH   1  13
TORSDOF 16
ENDMDL
MODEL 3
REMARK VINA RESULT:      -4.8      2.798      6.888
REMARK  16 active torsions:
REMARK  status: ('A' for Active; 'I' for Inactive)
REMARK    1  A    between atoms: S8_1  and  C35_3 
REMARK    2  A    between atoms: N11_14  and  S8_1 
REMARK    3  A    between atoms: O9_5  and  C10_4 
REMARK    4  A    between atoms: C5_6  and  O9_5 
REMARK    5  A    between atoms: C45_25  and  C13_13 
REMARK       I    between atoms: C13_13  and  N15_30 
REMARK    6  A    between atoms: C45_25  and  N11_14 
REMARK    7  A    between atoms: C15_16  and  C31_17 
REMARK    8  A    between atoms: N14_29  and  C15_16 
REMARK    9  A    between atoms: C12_26  and  C45_25 
REMARK   10  A    between atoms: C46_27  and  C12_26 
REMARK       I    between atoms: C46_27  and  N14_29 
REMARK   11  A    between atoms: C16_31  and  C17_32 
REMARK       I    between atoms: C17_32  and  N19_37 
REMARK   12  A    between atoms: N19_37  and  C20_38 
REMARK   13  A    between atoms: C20_38  and  C21_39 
REMARK   14  A    between atoms: C24_42  and  C27_43 
REMARK   15  A    between atoms: C27_43  and  N29_44 
REMARK   16  A    between atoms: C27_43  and  N28_45 
ROOT
ATOM      1  C31 MOL d          19.431 -13.981  21.026  0.00  0.00    -0.040 A 
ATOM      2  C32 MOL d          19.639 -12.865  20.345  0.00  0.00    -0.074 A 
ATOM      3  C33 MOL d          18.591 -12.305  19.737  0.00  0.00    -0.062 A 
ATOM      4  C44 MOL d          17.336 -12.813  19.731  0.00  0.00     0.044 A 
ATOM      5  C8  MOL d          17.108 -13.968  20.432  0.00  0.00    -0.062 A 
ATOM      6  C9  MOL d          18.186 -14.488  20.966  0.00  0.00    -0.074 A 
ATOM      7  C40 MOL d          16.459 -12.196  19.173  0.00  0.00     0.099 C 
ATOM      8  N63 MOL d          15.621 -11.591  18.785  0.00  0.00    -0.191 NA
ATOM      9  H10 MOL d          20.625 -12.422  20.283  0.00  0.00     0.084 H 
ATOM     10  H11 MOL d          18.757 -11.374  19.209  0.00  0.00     0.085 H 
ATOM     11  H12 MOL d          16.125 -14.412  20.535  0.00  0.00     0.085 H 
ATOM     12  H13 MOL d          18.057 -15.463  21.424  0.00  0.00     0.084 H 
ENDROOT
BRANCH   1  13
ATOM     13  C15 MOL d          20.517 -14.622  21.699  0.00  0.00     0.019 C 
ATOM     14  H8  MOL d          20.946 -13.898  22.408  0.00  0.00     0.071 H 
ATOM     15  H9  MOL d          21.271 -14.886  20.944  0.00  0.00     0.071 H 
BRANCH  13  16
ATOM     16  N14 MOL d          20.183 -15.867  22.465  0.00  0.00    -0.357 N 
ATOM     17  C46 MOL d          20.360 -17.138  22.142  0.00  0.00     0.220 C 
ATOM     18  O22 MOL d          20.727 -17.510  21.128  0.00  0.00    -0.274 OA
ATOM     19  H17 MOL d          19.762 -15.714  23.359  0.00  0.00     0.162 HD
BRANCH  17  20
ATOM     20  C12 MOL d          19.889 -18.250  23.144  0.00  0.00     0.037 C 
ATOM     21  H15 MOL d          20.774 -18.822  23.461  0.00  0.00     0.051 H 
ATOM     22  H16 MOL d          19.440 -17.756  24.018  0.00  0.00     0.051 H 
BRANCH  20  23
ATOM     23  C45 MOL d          18.812 -19.286  22.546  0.00  0.00     0.105 C 
ATOM     24  H14 MOL d          19.334 -20.063  21.968  0.00  0.00     0.089 H 
BRANCH  23  25
ATOM     25  C13 MOL d          18.123 -19.912  23.818  0.00  0.00     0.244 C 
ATOM     26  O14 MOL d          16.951 -20.058  23.752  0.00  0.00    -0.271 OA
ATOM     27  N15 MOL d          18.883 -20.199  24.799  0.00  0.00    -0.337 N 
ATOM     28  C16 MOL d          18.314 -20.489  26.043  0.00  0.00     0.091 C 
ATOM     29  C2  MOL d          20.320 -19.957  24.906  0.00  0.00    -0.001 C 
ATOM     30  C34 MOL d          19.463 -20.513  27.036  0.00  0.00    -0.036 C 
ATOM     31  H18 MOL d          17.708 -21.407  26.041  0.00  0.00     0.087 H 
ATOM     32  C1  MOL d          20.731 -20.343  26.265  0.00  0.00    -0.048 C 
ATOM     33  H19 MOL d          19.475 -21.474  27.572  0.00  0.00     0.036 H 
ATOM     34  H20 MOL d          19.350 -19.691  27.758  0.00  0.00     0.036 H 
ATOM     35  H21 MOL d          21.295 -21.287  26.241  0.00  0.00     0.035 H 
ATOM     36  H22 MOL d          21.352 -19.556  26.717  0.00  0.00     0.035 H 
ATOM     37  H23 MOL d          20.535 -18.892  24.737  0.00  0.00     0.064 H 
ATOM     38  H24 MOL d          20.860 -20.562  24.163  0.00  0.00     0.064 H 
BRANCH  28  39
ATOM     39  C17 MOL d          17.515 -19.195  26.456  0.00  0.00     0.240 C 
ATOM     40  O18 MOL d          16.776 -19.137  27.371  0.00  0.00    -0.271 OA
ATOM     41  N19 MOL d          17.646 -18.137  25.597  0.00  0.00    -0.355 N 
ATOM     42  H25 MOL d          18.214 -18.262  24.784  0.00  0.00     0.162 HD
BRANCH  41  43
ATOM     43  C20 MOL d          17.023 -16.870  25.788  0.00  0.00     0.019 C 
ATOM     44  H26 MOL d          16.523 -16.839  26.767  0.00  0.00     0.071 H 
ATOM     45  H27 MOL d          16.284 -16.690  24.993  0.00  0.00     0.071 H 
BRANCH  43  46
ATOM     46  C21 MOL d          18.098 -15.835  25.729  0.00  0.00    -0.040 A 
ATOM     47  C26 MOL d          17.997 -14.677  25.019  0.00  0.00    -0.074 A 
ATOM     48  C25 MOL d          18.926 -13.777  24.947  0.00  0.00    -0.069 A 
ATOM     49  H28 MOL d          17.076 -14.496  24.478  0.00  0.00     0.084 H 
ATOM     50  C24 MOL d          20.098 -13.893  25.540  0.00  0.00     0.007 A 
ATOM     51  H29 MOL d          18.730 -12.882  24.368  0.00  0.00     0.085 H 
ATOM     52  C23 MOL d          20.276 -15.037  26.211  0.00  0.00    -0.069 A 
ATOM     53  C22 MOL d          19.290 -15.942  26.281  0.00  0.00    -0.074 A 
ATOM     54  H34 MOL d          21.223 -15.233  26.700  0.00  0.00     0.085 H 
ATOM     55  H35 MOL d          19.491 -16.845  26.845  0.00  0.00     0.084 H 
BRANCH  50  56
ATOM     56  C27 MOL d          21.136 -12.913  25.480  0.00  0.00     0.102 C 
BRANCH  56  57
ATOM     57  N29 MOL d          21.021 -11.881  26.030  0.00  0.00    -0.385 N 
ATOM     58  H30 MOL d          21.538 -11.701  26.902  0.00  0.00     0.157 HD
ATOM     59  H31 MOL d          20.402 -11.156  25.639  0.00  0.00     0.157 HD
ENDBRANCH  56  57
BRANCH  56  60
ATOM     60  N28 MOL d          22.233 -13.161  24.875  0.00  0.00    -0.385 N 
ATOM     61  H32 MOL d          22.348 -12.893  23.887  0.00  0.00     0.157 HD
ATOM     62  H33 MOL d          23.003 -13.629  25.375  0.00  0.00     0.157 HD
ENDBRANCH  56  60
ENDBRANCH  50  56
ENDBRANCH  43  46
ENDBRANCH  41  43
ENDBRANCH  28  39
ENDBRANCH  23  25
BRANCH  23  63
ATOM     63  N11 MOL d          17.875 -18.728  21.758  0.00  0.00    -0.301 N 
ATOM     64  H7  MOL d          17.313 -17.976  22.105  0.00  0.00     0.173 HD
BRANCH  63  65
ATOM     65  S8  MOL d          17.663 -19.258  20.293  0.00  0.00     0.259 S 
ATOM     66  O1  MOL d          18.092 -20.369  20.459  0.00  0.00    -0.201 OA
ATOM     67  O10 MOL d          17.960 -18.524  19.480  0.00  0.00    -0.201 OA
BRANCH  65  68
ATOM     68  C35 MOL d          15.971 -19.570  20.130  0.00  0.00     0.081 A 
ATOM     69  C7  MOL d          15.418 -20.135  19.012  0.00  0.00    -0.058 A 
ATOM     70  C6  MOL d          14.052 -20.417  18.925  0.00  0.00    -0.048 A 
ATOM     71  H4  MOL d          16.059 -20.371  18.170  0.00  0.00     0.086 H 
ATOM     72  C5  MOL d          13.251 -20.191  20.019  0.00  0.00     0.089 A 
ATOM     73  H6  MOL d          13.629 -20.810  18.007  0.00  0.00     0.087 H 
ATOM     74  C4  MOL d          13.845 -19.700  21.122  0.00  0.00     0.068 A 
ATOM     75 CL   MOL d          12.824 -19.494  22.540  0.00  0.00    -0.081 Cl
ATOM     76  C3  MOL d          15.104 -19.386  21.227  0.00  0.00    -0.037 A 
ATOM     77  H5  MOL d          15.487 -18.984  22.158  0.00  0.00     0.088 H 
BRANCH  72  78
ATOM     78  O9  MOL d          11.923 -20.367  19.972  0.00  0.00    -0.354 OA
BRANCH  78  79
ATOM     79  C10 MOL d          11.264 -20.184  18.804  0.00  0.00     0.010 C 
ATOM     80  H1  MOL d          10.796 -21.131  18.494  0.00  0.00     0.066 H 
ATOM     81  H2  MOL d          11.974 -19.855  18.030  0.00  0.00     0.066 H 
ATOM     82  H3  MOL d          10.485 -19.418  18.938  0.00  0.00     0.066 H 
ENDBRANCH  78  79
ENDBRANCH  72  78
ENDBRANCH  65  68
ENDBRANCH  63  65
ENDBRANCH  23  63
ENDBRANCH  20  23
ENDBRANCH  17  20
ENDBRANCH  13  16
ENDBRANCH   1  13
TORSDOF 16
ENDMDL
MODEL 4
REMARK VINA RESULT:      -4.3      3.076      6.662
REMARK  16 active torsions:
REMARK  status: ('A' for Active; 'I' for Inactive)
REMARK    1  A    between atoms: S8_1  and  C35_3 
REMARK    2  A    between atoms: N11_14  and  S8_1 
REMARK    3  A    between atoms: O9_5  and  C10_4 
REMARK    4  A    between atoms: C5_6  and  O9_5 
REMARK    5  A    between atoms: C45_25  and  C13_13 
REMARK       I    between atoms: C13_13  and  N15_30 
REMARK    6  A    between atoms: C45_25  and  N11_14 
REMARK    7  A    between atoms: C15_16  and  C31_17 
REMARK    8  A    between atoms: N14_29  and  C15_16 
REMARK    9  A    between atoms: C12_26  and  C45_25 
REMARK   10  A    between atoms: C46_27  and  C12_26 
REMARK       I    between atoms: C46_27  and  N14_29 
REMARK   11  A    between atoms: C16_31  and  C17_32 
REMARK       I    between atoms: C17_32  and  N19_37 
REMARK   12  A    between atoms: N19_37  and  C20_38 
REMARK   13  A    between atoms: C20_38  and  C21_39 
REMARK   14  A    between atoms: C24_42  and  C27_43 
REMARK   15  A    between atoms: C27_43  and  N29_44 
REMARK   16  A    between atoms: C27_43  and  N28_45 
ROOT
ATOM      1  C31 MOL d          21.071 -19.386  24.886  0.00  0.00    -0.040 A 
ATOM      2  C32 MOL d          20.785 -20.320  23.994  0.00  0.00    -0.074 A 
ATOM      3  C33 MOL d          21.652 -20.513  22.997  0.00  0.00    -0.062 A 
ATOM      4  C44 MOL d          22.785 -19.797  22.807  0.00  0.00     0.044 A 
ATOM      5  C8  MOL d          23.093 -18.826  23.723  0.00  0.00    -0.062 A 
ATOM      6  C9  MOL d          22.180 -18.659  24.648  0.00  0.00    -0.074 A 
ATOM      7  C40 MOL d          23.511 -20.088  21.884  0.00  0.00     0.099 C 
ATOM      8  N63 MOL d          24.250 -20.415  21.132  0.00  0.00    -0.191 NA
ATOM      9  H10 MOL d          19.879 -20.908  24.069  0.00  0.00     0.084 H 
ATOM     10  H11 MOL d          21.432 -21.301  22.287  0.00  0.00     0.085 H 
ATOM     11  H12 MOL d          24.009 -18.249  23.686  0.00  0.00     0.085 H 
ATOM     12  H13 MOL d          22.339 -17.819  25.315  0.00  0.00     0.084 H 
ENDROOT
BRANCH   1  13
ATOM     13  C15 MOL d          20.181 -19.139  25.976  0.00  0.00     0.019 C 
ATOM     14  H8  MOL d          20.746 -18.607  26.756  0.00  0.00     0.071 H 
ATOM     15  H9  MOL d          19.849 -20.112  26.364  0.00  0.00     0.071 H 
BRANCH  13  16
ATOM     16  N14 MOL d          18.958 -18.328  25.668  0.00  0.00    -0.357 N 
ATOM     17  C46 MOL d          18.510 -17.216  26.228  0.00  0.00     0.220 C 
ATOM     18  O22 MOL d          18.959 -16.723  27.153  0.00  0.00    -0.274 OA
ATOM     19  H17 MOL d          18.392 -18.683  24.923  0.00  0.00     0.162 HD
BRANCH  17  20
ATOM     20  C12 MOL d          17.169 -16.589  25.708  0.00  0.00     0.037 C 
ATOM     21  H15 MOL d          16.376 -17.346  25.807  0.00  0.00     0.051 H 
ATOM     22  H16 MOL d          16.929 -15.721  26.339  0.00  0.00     0.051 H 
BRANCH  20  23
ATOM     23  C45 MOL d          17.204 -16.100  24.175  0.00  0.00     0.105 C 
ATOM     24  H14 MOL d          16.524 -15.244  24.049  0.00  0.00     0.089 H 
BRANCH  23  25
ATOM     25  C13 MOL d          18.699 -15.657  23.940  0.00  0.00     0.244 C 
ATOM     26  O14 MOL d          19.068 -14.726  24.570  0.00  0.00    -0.271 OA
ATOM     27  N15 MOL d          19.371 -16.333  23.095  0.00  0.00    -0.337 N 
ATOM     28  C16 MOL d          20.593 -15.832  22.636  0.00  0.00     0.091 C 
ATOM     29  C2  MOL d          18.896 -17.439  22.267  0.00  0.00    -0.001 C 
ATOM     30  C34 MOL d          20.995 -16.712  21.465  0.00  0.00    -0.036 C 
ATOM     31  H18 MOL d          21.358 -15.761  23.423  0.00  0.00     0.087 H 
ATOM     32  C1  MOL d          19.994 -17.816  21.364  0.00  0.00    -0.048 C 
ATOM     33  H19 MOL d          21.998 -17.129  21.637  0.00  0.00     0.036 H 
ATOM     34  H20 MOL d          20.997 -16.121  20.537  0.00  0.00     0.036 H 
ATOM     35  H21 MOL d          20.441 -18.769  21.682  0.00  0.00     0.035 H 
ATOM     36  H22 MOL d          19.628 -17.908  20.331  0.00  0.00     0.035 H 
ATOM     37  H23 MOL d          18.021 -17.121  21.682  0.00  0.00     0.064 H 
ATOM     38  H24 MOL d          18.621 -18.293  22.902  0.00  0.00     0.064 H 
BRANCH  28  39
ATOM     39  C17 MOL d          20.255 -14.456  21.946  0.00  0.00     0.240 C 
ATOM     40  O18 MOL d          20.807 -13.443  22.182  0.00  0.00    -0.271 OA
ATOM     41  N19 MOL d          19.171 -14.480  21.110  0.00  0.00    -0.355 N 
ATOM     42  H25 MOL d          18.678 -15.344  21.008  0.00  0.00     0.162 HD
BRANCH  41  43
ATOM     43  C20 MOL d          18.702 -13.353  20.375  0.00  0.00     0.019 C 
ATOM     44  H26 MOL d          18.767 -13.553  19.295  0.00  0.00     0.071 H 
ATOM     45  H27 MOL d          19.304 -12.466  20.621  0.00  0.00     0.071 H 
BRANCH  43  46
ATOM     46  C21 MOL d          17.279 -13.130  20.769  0.00  0.00    -0.040 A 
ATOM     47  C26 MOL d          16.434 -14.128  21.152  0.00  0.00    -0.074 A 
ATOM     48  C25 MOL d          15.194 -13.954  21.482  0.00  0.00    -0.069 A 
ATOM     49  H28 MOL d          16.827 -15.138  21.183  0.00  0.00     0.084 H 
ATOM     50  C24 MOL d          14.595 -12.780  21.461  0.00  0.00     0.007 A 
ATOM     51  H29 MOL d          14.618 -14.818  21.792  0.00  0.00     0.085 H 
ATOM     52  C23 MOL d          15.361 -11.766  21.041  0.00  0.00    -0.069 A 
ATOM     53  C22 MOL d          16.646 -11.975  20.722  0.00  0.00    -0.074 A 
ATOM     54  H34 MOL d          14.940 -10.771  20.958  0.00  0.00     0.085 H 
ATOM     55  H35 MOL d          17.217 -11.115  20.395  0.00  0.00     0.084 H 
BRANCH  50  56
ATOM     56  C27 MOL d          13.231 -12.560  21.826  0.00  0.00     0.102 C 
BRANCH  56  57
ATOM     57  N29 MOL d          12.564 -13.443  22.221  0.00  0.00    -0.385 N 
ATOM     58  H30 MOL d          12.247 -14.179  21.574  0.00  0.00     0.157 HD
ATOM     59  H31 MOL d          12.297 -13.482  23.216  0.00  0.00     0.157 HD
ENDBRANCH  56  57
BRANCH  56  60
ATOM     60  N28 MOL d          12.725 -11.388  21.781  0.00  0.00    -0.385 N 
ATOM     61  H32 MOL d          13.296 -10.592  21.464  0.00  0.00     0.157 HD
ATOM     62  H33 MOL d          11.745 -11.240  22.062  0.00  0.00     0.157 HD
ENDBRANCH  56  60
ENDBRANCH  50  56
ENDBRANCH  43  46
ENDBRANCH  41  43
ENDBRANCH  28  39
ENDBRANCH  23  25
BRANCH  23  63
ATOM     63  N11 MOL d          16.870 -17.044  23.276  0.00  0.00    -0.301 N 
ATOM     64  H7  MOL d          17.288 -17.039  22.367  0.00  0.00     0.173 HD
BRANCH  63  65
ATOM     65  S8  MOL d          15.823 -18.154  23.655  0.00  0.00     0.259 S 
ATOM     66  O1  MOL d          14.914 -17.425  23.951  0.00  0.00    -0.201 OA
ATOM     67  O10 MOL d          16.246 -19.007  24.274  0.00  0.00    -0.201 OA
BRANCH  65  68
ATOM     68  C35 MOL d          15.255 -18.815  22.163  0.00  0.00     0.081 A 
ATOM     69  C7  MOL d          14.616 -20.023  22.074  0.00  0.00    -0.058 A 
ATOM     70  C6  MOL d          14.127 -20.513  20.860  0.00  0.00    -0.048 A 
ATOM     71  H4  MOL d          14.485 -20.616  22.972  0.00  0.00     0.086 H 
ATOM     72  C5  MOL d          14.223 -19.729  19.735  0.00  0.00     0.089 A 
ATOM     73  H6  MOL d          13.678 -21.498  20.806  0.00  0.00     0.087 H 
ATOM     74  C4  MOL d          14.795 -18.520  19.878  0.00  0.00     0.068 A 
ATOM     75 CL   MOL d          14.835 -17.494  18.448  0.00  0.00    -0.081 Cl
ATOM     76  C3  MOL d          15.299 -18.046  20.981  0.00  0.00    -0.037 A 
ATOM     77  H5  MOL d          15.751 -17.061  20.992  0.00  0.00     0.088 H 
BRANCH  72  78
ATOM     78  O9  MOL d          13.844 -20.173  18.528  0.00  0.00    -0.354 OA
BRANCH  78  79
ATOM     79  C10 MOL d          12.528 -20.221  18.216  0.00  0.00     0.010 C 
ATOM     80  H1  MOL d          11.964 -20.629  19.068  0.00  0.00     0.066 H 
ATOM     81  H2  MOL d          12.382 -20.867  17.336  0.00  0.00     0.066 H 
ATOM     82  H3  MOL d          12.167 -19.207  17.989  0.00  0.00     0.066 H 
ENDBRANCH  78  79
ENDBRANCH  72  78
ENDBRANCH  65  68
ENDBRANCH  63  65
ENDBRANCH  23  63
ENDBRANCH  20  23
ENDBRANCH  17  20
ENDBRANCH  13  16
ENDBRANCH   1  13
TORSDOF 16
ENDMDL
MODEL 5
REMARK VINA RESULT:      -3.9      2.045      2.837
REMARK  16 active torsions:
REMARK  status: ('A' for Active; 'I' for Inactive)
REMARK    1  A    between atoms: S8_1  and  C35_3 
REMARK    2  A    between atoms: N11_14  and  S8_1 
REMARK    3  A    between atoms: O9_5  and  C10_4 
REMARK    4  A    between atoms: C5_6  and  O9_5 
REMARK    5  A    between atoms: C45_25  and  C13_13 
REMARK       I    between atoms: C13_13  and  N15_30 
REMARK    6  A    between atoms: C45_25  and  N11_14 
REMARK    7  A    between atoms: C15_16  and  C31_17 
REMARK    8  A    between atoms: N14_29  and  C15_16 
REMARK    9  A    between atoms: C12_26  and  C45_25 
REMARK   10  A    between atoms: C46_27  and  C12_26 
REMARK       I    between atoms: C46_27  and  N14_29 
REMARK   11  A    between atoms: C16_31  and  C17_32 
REMARK       I    between atoms: C17_32  and  N19_37 
REMARK   12  A    between atoms: N19_37  and  C20_38 
REMARK   13  A    between atoms: C20_38  and  C21_39 
REMARK   14  A    between atoms: C24_42  and  C27_43 
REMARK   15  A    between atoms: C27_43  and  N29_44 
REMARK   16  A    between atoms: C27_43  and  N28_45 
ROOT
ATOM      1  C31 MOL d          18.398 -14.612  24.529  0.00  0.00    -0.040 A 
ATOM      2  C32 MOL d          18.857 -14.328  23.320  0.00  0.00    -0.074 A 
ATOM      3  C33 MOL d          20.110 -13.879  23.222  0.00  0.00    -0.062 A 
ATOM      4  C44 MOL d          20.937 -13.654  24.269  0.00  0.00     0.044 A 
ATOM      5  C8  MOL d          20.474 -13.943  25.526  0.00  0.00    -0.062 A 
ATOM      6  C9  MOL d          19.224 -14.337  25.556  0.00  0.00    -0.074 A 
ATOM      7  C40 MOL d          22.065 -13.277  24.052  0.00  0.00     0.099 C 
ATOM      8  N63 MOL d          23.133 -13.060  23.875  0.00  0.00    -0.191 NA
ATOM      9  H10 MOL d          18.237 -14.456  22.441  0.00  0.00     0.084 H 
ATOM     10  H11 MOL d          20.494 -13.679  22.228  0.00  0.00     0.085 H 
ATOM     11  H12 MOL d          21.086 -13.854  26.416  0.00  0.00     0.085 H 
ATOM     12  H13 MOL d          18.796 -14.457  26.544  0.00  0.00     0.084 H 
ENDROOT
BRANCH   1  13
ATOM     13  C15 MOL d          17.065 -15.100  24.693  0.00  0.00     0.019 C 
ATOM     14  H8  MOL d          16.381 -14.365  24.243  0.00  0.00     0.071 H 
ATOM     15  H9  MOL d          16.866 -15.172  25.772  0.00  0.00     0.071 H 
BRANCH  13  16
ATOM     16  N14 MOL d          16.764 -16.436  24.083  0.00  0.00    -0.357 N 
ATOM     17  C46 MOL d          17.205 -17.640  24.411  0.00  0.00     0.220 C 
ATOM     18  O22 MOL d          18.005 -17.852  25.194  0.00  0.00    -0.274 OA
ATOM     19  H17 MOL d          16.133 -16.414  23.308  0.00  0.00     0.162 HD
BRANCH  17  20
ATOM     20  C12 MOL d          16.731 -18.878  23.570  0.00  0.00     0.037 C 
ATOM     21  H15 MOL d          16.693 -19.751  24.238  0.00  0.00     0.051 H 
ATOM     22  H16 MOL d          15.723 -18.665  23.186  0.00  0.00     0.051 H 
BRANCH  20  23
ATOM     23  C45 MOL d          17.676 -19.245  22.320  0.00  0.00     0.105 C 
ATOM     24  H14 MOL d          17.615 -20.325  22.121  0.00  0.00     0.089 H 
BRANCH  23  25
ATOM     25  C13 MOL d          17.068 -18.426  21.117  0.00  0.00     0.244 C 
ATOM     26  O14 MOL d          17.849 -17.968  20.356  0.00  0.00    -0.271 OA
ATOM     27  N15 MOL d          15.799 -18.328  21.075  0.00  0.00    -0.337 N 
ATOM     28  C16 MOL d          15.215 -17.396  20.210  0.00  0.00     0.091 C 
ATOM     29  C2  MOL d          14.838 -18.835  22.051  0.00  0.00    -0.001 C 
ATOM     30  C34 MOL d          13.745 -17.333  20.592  0.00  0.00    -0.036 C 
ATOM     31  H18 MOL d          15.390 -17.618  19.148  0.00  0.00     0.087 H 
ATOM     32  C1  MOL d          13.504 -18.372  21.637  0.00  0.00    -0.048 C 
ATOM     33  H19 MOL d          13.120 -17.536  19.709  0.00  0.00     0.036 H 
ATOM     34  H20 MOL d          13.505 -16.336  20.990  0.00  0.00     0.036 H 
ATOM     35  H21 MOL d          12.920 -19.206  21.221  0.00  0.00     0.035 H 
ATOM     36  H22 MOL d          12.966 -17.937  22.493  0.00  0.00     0.035 H 
ATOM     37  H23 MOL d          15.077 -18.446  23.051  0.00  0.00     0.064 H 
ATOM     38  H24 MOL d          14.865 -19.935  22.068  0.00  0.00     0.064 H 
BRANCH  28  39
ATOM     39  C17 MOL d          15.760 -15.991  20.670  0.00  0.00     0.240 C 
ATOM     40  O18 MOL d          15.375 -15.408  21.619  0.00  0.00    -0.271 OA
ATOM     41  N19 MOL d          16.659 -15.413  19.815  0.00  0.00    -0.355 N 
ATOM     42  H25 MOL d          16.891 -15.904  18.976  0.00  0.00     0.162 HD
BRANCH  41  43
ATOM     43  C20 MOL d          17.286 -14.153  20.045  0.00  0.00     0.019 C 
ATOM     44  H26 MOL d          17.917 -13.884  19.185  0.00  0.00     0.071 H 
ATOM     45  H27 MOL d          17.905 -14.201  20.953  0.00  0.00     0.071 H 
BRANCH  43  46
ATOM     46  C21 MOL d          16.200 -13.143  20.218  0.00  0.00    -0.040 A 
ATOM     47  C26 MOL d          15.313 -12.810  19.238  0.00  0.00    -0.074 A 
ATOM     48  C25 MOL d          14.375 -11.926  19.368  0.00  0.00    -0.069 A 
ATOM     49  H28 MOL d          15.399 -13.319  18.286  0.00  0.00     0.084 H 
ATOM     50  C24 MOL d          14.185 -11.224  20.467  0.00  0.00     0.007 A 
ATOM     51  H29 MOL d          13.711 -11.755  18.528  0.00  0.00     0.085 H 
ATOM     52  C23 MOL d          15.061 -11.470  21.449  0.00  0.00    -0.069 A 
ATOM     53  C22 MOL d          16.010 -12.402  21.291  0.00  0.00    -0.074 A 
ATOM     54  H34 MOL d          15.002 -10.912  22.376  0.00  0.00     0.085 H 
ATOM     55  H35 MOL d          16.686 -12.562  22.123  0.00  0.00     0.084 H 
BRANCH  50  56
ATOM     56  C27 MOL d          13.155 -10.248  20.637  0.00  0.00     0.102 C 
BRANCH  56  57
ATOM     57  N29 MOL d          12.253 -10.447  21.364  0.00  0.00    -0.385 N 
ATOM     58  H30 MOL d          11.429 -10.967  21.033  0.00  0.00     0.157 HD
ATOM     59  H31 MOL d          12.288 -10.100  22.334  0.00  0.00     0.157 HD
ENDBRANCH  56  57
BRANCH  56  60
ATOM     60  N28 MOL d          13.222  -9.119  20.045  0.00  0.00    -0.385 N 
ATOM     61  H32 MOL d          13.167  -8.247  20.590  0.00  0.00     0.157 HD
ATOM     62  H33 MOL d          13.330  -9.081  19.021  0.00  0.00     0.157 HD
ENDBRANCH  56  60
ENDBRANCH  50  56
ENDBRANCH  43  46
ENDBRANCH  41  43
ENDBRANCH  28  39
ENDBRANCH  23  25
BRANCH  23  63
ATOM     63  N11 MOL d          18.970 -18.913  22.478  0.00  0.00    -0.301 N 
ATOM     64  H7  MOL d          19.312 -18.046  22.115  0.00  0.00     0.173 HD
BRANCH  63  65
ATOM     65  S8  MOL d          19.945 -19.891  23.232  0.00  0.00     0.259 S 
ATOM     66  O1  MOL d          20.477 -20.366  22.264  0.00  0.00    -0.201 OA
ATOM     67  O10 MOL d          19.470 -20.451  24.097  0.00  0.00    -0.201 OA
BRANCH  65  68
ATOM     68  C35 MOL d          21.216 -18.910  23.871  0.00  0.00     0.081 A 
ATOM     69  C7  MOL d          21.306 -17.562  23.650  0.00  0.00    -0.058 A 
ATOM     70  C6  MOL d          22.320 -16.786  24.216  0.00  0.00    -0.048 A 
ATOM     71  H4  MOL d          20.568 -17.083  23.016  0.00  0.00     0.086 H 
ATOM     72  C5  MOL d          23.211 -17.376  25.081  0.00  0.00     0.089 A 
ATOM     73  H6  MOL d          22.404 -15.731  23.978  0.00  0.00     0.087 H 
ATOM     74  C4  MOL d          23.047 -18.688  25.327  0.00  0.00     0.068 A 
ATOM     75 CL   MOL d          24.142 -19.412  26.499  0.00  0.00    -0.081 Cl
ATOM     76  C3  MOL d          22.141 -19.452  24.787  0.00  0.00    -0.037 A 
ATOM     77  H5  MOL d          22.098 -20.505  25.041  0.00  0.00     0.088 H 
BRANCH  72  78
ATOM     78  O9  MOL d          24.251 -16.703  25.595  0.00  0.00    -0.354 OA
BRANCH  78  79
ATOM     79  C10 MOL d          24.134 -15.377  25.841  0.00  0.00     0.010 C 
ATOM     80  H1  MOL d          24.323 -15.184  26.907  0.00  0.00     0.066 H 
ATOM     81  H2  MOL d          23.117 -15.044  25.582  0.00  0.00     0.066 H 
ATOM     82  H3  MOL d          24.866 -14.825  25.233  0.00  0.00     0.066 H 
ENDBRANCH  78  79
ENDBRANCH  72  78
ENDBRANCH  65  68
ENDBRANCH  63  65
ENDBRANCH  23  63
ENDBRANCH  20  23
ENDBRANCH  17  20
ENDBRANCH  13  16
ENDBRANCH   1  13
TORSDOF 16
ENDMDL
MODEL 6
REMARK VINA RESULT:      -3.3      2.944      6.143
REMARK  16 active torsions:
REMARK  status: ('A' for Active; 'I' for Inactive)
REMARK    1  A    between atoms: S8_1  and  C35_3 
REMARK    2  A    between atoms: N11_14  and  S8_1 
REMARK    3  A    between atoms: O9_5  and  C10_4 
REMARK    4  A    between atoms: C5_6  and  O9_5 
REMARK    5  A    between atoms: C45_25  and  C13_13 
REMARK       I    between atoms: C13_13  and  N15_30 
REMARK    6  A    between atoms: C45_25  and  N11_14 
REMARK    7  A    between atoms: C15_16  and  C31_17 
REMARK    8  A    between atoms: N14_29  and  C15_16 
REMARK    9  A    between atoms: C12_26  and  C45_25 
REMARK   10  A    between atoms: C46_27  and  C12_26 
REMARK       I    between atoms: C46_27  and  N14_29 
REMARK   11  A    between atoms: C16_31  and  C17_32 
REMARK       I    between atoms: C17_32  and  N19_37 
REMARK   12  A    between atoms: N19_37  and  C20_38 
REMARK   13  A    between atoms: C20_38  and  C21_39 
REMARK   14  A    between atoms: C24_42  and  C27_43 
REMARK   15  A    between atoms: C27_43  and  N29_44 
REMARK   16  A    between atoms: C27_43  and  N28_45 
ROOT
ATOM      1  C31 MOL d          16.547 -20.084  19.575  0.00  0.00    -0.040 A 
ATOM      2  C32 MOL d          16.243 -19.439  18.460  0.00  0.00    -0.074 A 
ATOM      3  C33 MOL d          14.954 -19.202  18.212  0.00  0.00    -0.062 A 
ATOM      4  C44 MOL d          13.927 -19.605  18.995  0.00  0.00     0.044 A 
ATOM      5  C8  MOL d          14.227 -20.274  20.153  0.00  0.00    -0.062 A 
ATOM      6  C9  MOL d          15.506 -20.513  20.313  0.00  0.00    -0.074 A 
ATOM      7  C40 MOL d          12.799 -19.301  18.683  0.00  0.00     0.099 C 
ATOM      8  N63 MOL d          11.778 -18.926  18.491  0.00  0.00    -0.191 NA
ATOM      9  H10 MOL d          17.015 -19.115  17.772  0.00  0.00     0.084 H 
ATOM     10  H11 MOL d          14.711 -18.644  17.315  0.00  0.00     0.085 H 
ATOM     11  H12 MOL d          13.475 -20.579  20.871  0.00  0.00     0.085 H 
ATOM     12  H13 MOL d          15.761 -21.143  21.158  0.00  0.00     0.084 H 
ENDROOT
BRANCH   1  13
ATOM     13  C15 MOL d          17.912 -20.362  19.894  0.00  0.00     0.019 C 
ATOM     14  H8  MOL d          18.524 -20.071  19.027  0.00  0.00     0.071 H 
ATOM     15  H9  MOL d          18.003 -21.444  20.060  0.00  0.00     0.071 H 
BRANCH  13  16
ATOM     16  N14 MOL d          18.470 -19.666  21.100  0.00  0.00    -0.357 N 
ATOM     17  C46 MOL d          18.196 -19.838  22.383  0.00  0.00     0.220 C 
ATOM     18  O22 MOL d          17.373 -20.513  22.792  0.00  0.00    -0.274 OA
ATOM     19  H17 MOL d          19.155 -18.965  20.904  0.00  0.00     0.162 HD
BRANCH  17  20
ATOM     20  C12 MOL d          18.928 -18.941  23.443  0.00  0.00     0.037 C 
ATOM     21  H15 MOL d          18.848 -19.434  24.422  0.00  0.00     0.051 H 
ATOM     22  H16 MOL d          19.987 -18.866  23.155  0.00  0.00     0.051 H 
BRANCH  20  23
ATOM     23  C45 MOL d          18.342 -17.448  23.584  0.00  0.00     0.105 C 
ATOM     24  H14 MOL d          19.152 -16.763  23.872  0.00  0.00     0.089 H 
BRANCH  23  25
ATOM     25  C13 MOL d          17.810 -17.100  22.141  0.00  0.00     0.244 C 
ATOM     26  O14 MOL d          18.630 -16.782  21.350  0.00  0.00    -0.271 OA
ATOM     27  N15 MOL d          16.552 -17.186  21.958  0.00  0.00    -0.337 N 
ATOM     28  C16 MOL d          15.990 -16.629  20.804  0.00  0.00     0.091 C 
ATOM     29  C2  MOL d          15.532 -17.512  22.951  0.00  0.00    -0.001 C 
ATOM     30  C34 MOL d          14.486 -16.652  21.016  0.00  0.00    -0.036 C 
ATOM     31  H18 MOL d          16.317 -17.123  19.878  0.00  0.00     0.087 H 
ATOM     32  C1  MOL d          14.221 -17.367  22.300  0.00  0.00    -0.048 C 
ATOM     33  H19 MOL d          13.999 -17.182  20.184  0.00  0.00     0.036 H 
ATOM     34  H20 MOL d          14.100 -15.624  21.072  0.00  0.00     0.036 H 
ATOM     35  H21 MOL d          13.779 -18.355  22.105  0.00  0.00     0.035 H 
ATOM     36  H22 MOL d          13.541 -16.779  22.933  0.00  0.00     0.035 H 
ATOM     37  H23 MOL d          15.606 -16.822  23.805  0.00  0.00     0.064 H 
ATOM     38  H24 MOL d          15.666 -18.545  23.302  0.00  0.00     0.064 H 
BRANCH  28  39
ATOM     39  C17 MOL d          16.333 -15.092  20.865  0.00  0.00     0.240 C 
ATOM     40  O18 MOL d          16.028 -14.380  21.754  0.00  0.00    -0.271 OA
ATOM     41  N19 MOL d          16.926 -14.587  19.740  0.00  0.00    -0.355 N 
ATOM     42  H25 MOL d          17.085 -15.210  18.975  0.00  0.00     0.162 HD
BRANCH  41  43
ATOM     43  C20 MOL d          17.331 -13.228  19.590  0.00  0.00     0.019 C 
ATOM     44  H26 MOL d          17.609 -13.032  18.544  0.00  0.00     0.071 H 
ATOM     45  H27 MOL d          18.190 -13.017  20.244  0.00  0.00     0.071 H 
BRANCH  43  46
ATOM     46  C21 MOL d          16.169 -12.375  19.979  0.00  0.00    -0.040 A 
ATOM     47  C26 MOL d          15.017 -12.290  19.257  0.00  0.00    -0.074 A 
ATOM     48  C25 MOL d          14.006 -11.544  19.573  0.00  0.00    -0.069 A 
ATOM     49  H28 MOL d          14.940 -12.889  18.357  0.00  0.00     0.084 H 
ATOM     50  C24 MOL d          13.988 -10.754  20.628  0.00  0.00     0.007 A 
ATOM     51  H29 MOL d          13.129 -11.570  18.936  0.00  0.00     0.085 H 
ATOM     52  C23 MOL d          15.116 -10.755  21.349  0.00  0.00    -0.069 A 
ATOM     53  C22 MOL d          16.138 -11.550  21.006  0.00  0.00    -0.074 A 
ATOM     54  H34 MOL d          15.203 -10.108  22.214  0.00  0.00     0.085 H 
ATOM     55  H35 MOL d          17.022 -11.512  21.632  0.00  0.00     0.084 H 
BRANCH  50  56
ATOM     56  C27 MOL d          12.885  -9.926  21.002  0.00  0.00     0.102 C 
BRANCH  56  57
ATOM     57  N29 MOL d          12.496  -9.082  20.282  0.00  0.00    -0.385 N 
ATOM     58  H30 MOL d          12.433  -9.257  19.269  0.00  0.00     0.157 HD
ATOM     59  H31 MOL d          12.218  -8.167  20.665  0.00  0.00     0.157 HD
ENDBRANCH  56  57
BRANCH  56  60
ATOM     60  N28 MOL d          12.265 -10.123  22.100  0.00  0.00    -0.385 N 
ATOM     61  H32 MOL d          12.631  -9.725  22.977  0.00  0.00     0.157 HD
ATOM     62  H33 MOL d          11.398 -10.679  22.110  0.00  0.00     0.157 HD
ENDBRANCH  56  60
ENDBRANCH  50  56
ENDBRANCH  43  46
ENDBRANCH  41  43
ENDBRANCH  28  39
ENDBRANCH  23  25
BRANCH  23  63
ATOM     63  N11 MOL d          17.340 -17.320  24.473  0.00  0.00    -0.301 N 
ATOM     64  H7  MOL d          16.434 -17.688  24.262  0.00  0.00     0.173 HD
BRANCH  63  65
ATOM     65  S8  MOL d          17.595 -16.592  25.843  0.00  0.00     0.259 S 
ATOM     66  O1  MOL d          17.737 -17.573  26.524  0.00  0.00    -0.201 OA
ATOM     67  O10 MOL d          16.904 -15.714  26.043  0.00  0.00    -0.201 OA
BRANCH  65  68
ATOM     68  C35 MOL d          19.213 -15.987  25.778  0.00  0.00     0.081 A 
ATOM     69  C7  MOL d          20.293 -16.771  25.474  0.00  0.00    -0.058 A 
ATOM     70  C6  MOL d          21.585 -16.245  25.385  0.00  0.00    -0.048 A 
ATOM     71  H4  MOL d          20.143 -17.830  25.299  0.00  0.00     0.086 H 
ATOM     72  C5  MOL d          21.768 -14.891  25.531  0.00  0.00     0.089 A 
ATOM     73  H6  MOL d          22.432 -16.897  25.202  0.00  0.00     0.087 H 
ATOM     74  C4  MOL d          20.672 -14.146  25.759  0.00  0.00     0.068 A 
ATOM     75 CL   MOL d          20.911 -12.405  25.861  0.00  0.00    -0.081 Cl
ATOM     76  C3  MOL d          19.460 -14.603  25.891  0.00  0.00    -0.037 A 
ATOM     77  H5  MOL d          18.641 -13.920  26.086  0.00  0.00     0.088 H 
BRANCH  72  78
ATOM     78  O9  MOL d          22.990 -14.338  25.534  0.00  0.00    -0.354 OA
BRANCH  78  79
ATOM     79  C10 MOL d          23.696 -14.272  24.380  0.00  0.00     0.010 C 
ATOM     80  H1  MOL d          24.639 -13.733  24.558  0.00  0.00     0.066 H 
ATOM     81  H2  MOL d          23.107 -13.738  23.619  0.00  0.00     0.066 H 
ATOM     82  H3  MOL d          23.917 -15.290  24.027  0.00  0.00     0.066 H 
ENDBRANCH  78  79
ENDBRANCH  72  78
ENDBRANCH  65  68
ENDBRANCH  63  65
ENDBRANCH  23  63
ENDBRANCH  20  23
ENDBRANCH  17  20
ENDBRANCH  13  16
ENDBRANCH   1  13
TORSDOF 16
ENDMDL
MODEL 7
REMARK VINA RESULT:      -3.2      3.019      6.184
REMARK  16 active torsions:
REMARK  status: ('A' for Active; 'I' for Inactive)
REMARK    1  A    between atoms: S8_1  and  C35_3 
REMARK    2  A    between atoms: N11_14  and  S8_1 
REMARK    3  A    between atoms: O9_5  and  C10_4 
REMARK    4  A    between atoms: C5_6  and  O9_5 
REMARK    5  A    between atoms: C45_25  and  C13_13 
REMARK       I    between atoms: C13_13  and  N15_30 
REMARK    6  A    between atoms: C45_25  and  N11_14 
REMARK    7  A    between atoms: C15_16  and  C31_17 
REMARK    8  A    between atoms: N14_29  and  C15_16 
REMARK    9  A    between atoms: C12_26  and  C45_25 
REMARK   10  A    between atoms: C46_27  and  C12_26 
REMARK       I    between atoms: C46_27  and  N14_29 
REMARK   11  A    between atoms: C16_31  and  C17_32 
REMARK       I    between atoms: C17_32  and  N19_37 
REMARK   12  A    between atoms: N19_37  and  C20_38 
REMARK   13  A    between atoms: C20_38  and  C21_39 
REMARK   14  A    between atoms: C24_42  and  C27_43 
REMARK   15  A    between atoms: C27_43  and  N29_44 
REMARK   16  A    between atoms: C27_43  and  N28_45 
ROOT
ATOM      1  C31 MOL d          16.094 -19.452  19.125  0.00  0.00    -0.040 A 
ATOM      2  C32 MOL d          15.491 -18.445  18.515  0.00  0.00    -0.074 A 
ATOM      3  C33 MOL d          14.207 -18.225  18.803  0.00  0.00    -0.062 A 
ATOM      4  C44 MOL d          13.461 -18.978  19.644  0.00  0.00     0.044 A 
ATOM      5  C8  MOL d          14.073 -20.025  20.283  0.00  0.00    -0.062 A 
ATOM      6  C9  MOL d          15.319 -20.212  19.922  0.00  0.00    -0.074 A 
ATOM      7  C40 MOL d          12.313 -18.659  19.852  0.00  0.00     0.099 C 
ATOM      8  N63 MOL d          11.309 -18.315  20.158  0.00  0.00    -0.191 NA
ATOM      9  H10 MOL d          16.021 -17.821  17.805  0.00  0.00     0.084 H 
ATOM     10  H11 MOL d          13.724 -17.379  18.327  0.00  0.00     0.085 H 
ATOM     11  H12 MOL d          13.572 -20.641  21.019  0.00  0.00     0.085 H 
ATOM     12  H13 MOL d          15.792 -21.104  20.320  0.00  0.00     0.084 H 
ENDROOT
BRANCH   1  13
ATOM     13  C15 MOL d          17.470 -19.732  18.858  0.00  0.00     0.019 C 
ATOM     14  H8  MOL d          17.713 -19.308  17.873  0.00  0.00     0.071 H 
ATOM     15  H9  MOL d          17.590 -20.825  18.827  0.00  0.00     0.071 H 
BRANCH  13  16
ATOM     16  N14 MOL d          18.464 -19.193  19.844  0.00  0.00    -0.357 N 
ATOM     17  C46 MOL d          18.688 -19.539  21.101  0.00  0.00     0.220 C 
ATOM     18  O22 MOL d          18.059 -20.279  21.698  0.00  0.00    -0.274 OA
ATOM     19  H17 MOL d          19.047 -18.458  19.497  0.00  0.00     0.162 HD
BRANCH  17  20
ATOM     20  C12 MOL d          19.795 -18.777  21.913  0.00  0.00     0.037 C 
ATOM     21  H15 MOL d          19.783 -19.156  22.945  0.00  0.00     0.051 H 
ATOM     22  H16 MOL d          20.769 -18.996  21.452  0.00  0.00     0.051 H 
BRANCH  20  23
ATOM     23  C45 MOL d          19.613 -17.179  21.964  0.00  0.00     0.105 C 
ATOM     24  H14 MOL d          20.381 -16.703  21.338  0.00  0.00     0.089 H 
BRANCH  23  25
ATOM     25  C13 MOL d          18.176 -16.929  21.363  0.00  0.00     0.244 C 
ATOM     26  O14 MOL d          18.145 -16.530  20.249  0.00  0.00    -0.271 OA
ATOM     27  N15 MOL d          17.186 -17.173  22.125  0.00  0.00    -0.337 N 
ATOM     28  C16 MOL d          15.915 -16.715  21.762  0.00  0.00     0.091 C 
ATOM     29  C2  MOL d          17.226 -17.601  23.521  0.00  0.00    -0.001 C 
ATOM     30  C34 MOL d          15.031 -16.919  22.980  0.00  0.00    -0.036 C 
ATOM     31  H18 MOL d          15.528 -17.185  20.846  0.00  0.00     0.087 H 
ATOM     32  C1  MOL d          15.840 -17.634  24.012  0.00  0.00    -0.048 C 
ATOM     33  H19 MOL d          14.152 -17.522  22.708  0.00  0.00     0.036 H 
ATOM     34  H20 MOL d          14.700 -15.945  23.370  0.00  0.00     0.036 H 
ATOM     35  H21 MOL d          15.495 -18.672  24.118  0.00  0.00     0.035 H 
ATOM     36  H22 MOL d          15.764 -17.120  24.982  0.00  0.00     0.035 H 
ATOM     37  H23 MOL d          17.819 -16.890  24.115  0.00  0.00     0.064 H 
ATOM     38  H24 MOL d          17.675 -18.603  23.595  0.00  0.00     0.064 H 
BRANCH  28  39
ATOM     39  C17 MOL d          16.040 -15.147  21.673  0.00  0.00     0.240 C 
ATOM     40  O18 MOL d          16.534 -14.473  22.504  0.00  0.00    -0.271 OA
ATOM     41  N19 MOL d          15.422 -14.578  20.592  0.00  0.00    -0.355 N 
ATOM     42  H25 MOL d          14.937 -15.181  19.959  0.00  0.00     0.162 HD
BRANCH  41  43
ATOM     43  C20 MOL d          15.424 -13.180  20.313  0.00  0.00     0.019 C 
ATOM     44  H26 MOL d          15.272 -13.011  19.236  0.00  0.00     0.071 H 
ATOM     45  H27 MOL d          16.381 -12.736  20.623  0.00  0.00     0.071 H 
BRANCH  43  46
ATOM     46  C21 MOL d          14.302 -12.573  21.089  0.00  0.00    -0.040 A 
ATOM     47  C26 MOL d          14.192 -11.238  21.342  0.00  0.00    -0.074 A 
ATOM     48  C25 MOL d          13.233 -10.698  22.026  0.00  0.00    -0.069 A 
ATOM     49  H28 MOL d          14.959 -10.584  20.944  0.00  0.00     0.084 H 
ATOM     50  C24 MOL d          12.258 -11.389  22.581  0.00  0.00     0.007 A 
ATOM     51  H29 MOL d          13.234  -9.621  22.148  0.00  0.00     0.085 H 
ATOM     52  C23 MOL d          12.341 -12.714  22.411  0.00  0.00    -0.069 A 
ATOM     53  C22 MOL d          13.335 -13.242  21.684  0.00  0.00    -0.074 A 
ATOM     54  H34 MOL d          11.600 -13.363  22.863  0.00  0.00     0.085 H 
ATOM     55  H35 MOL d          13.346 -14.320  21.576  0.00  0.00     0.084 H 
BRANCH  50  56
ATOM     56  C27 MOL d          11.186 -10.816  23.334  0.00  0.00     0.102 C 
BRANCH  56  57
ATOM     57  N29 MOL d          10.334 -11.494  23.777  0.00  0.00    -0.385 N 
ATOM     58  H30 MOL d           9.358 -11.355  23.479  0.00  0.00     0.157 HD
ATOM     59  H31 MOL d          10.563 -12.226  24.464  0.00  0.00     0.157 HD
ENDBRANCH  56  57
BRANCH  56  60
ATOM     60  N28 MOL d          11.163  -9.565  23.587  0.00  0.00    -0.385 N 
ATOM     61  H32 MOL d          10.356  -9.154  24.077  0.00  0.00     0.157 HD
ATOM     62  H33 MOL d          11.951  -8.967  23.301  0.00  0.00     0.157 HD
ENDBRANCH  56  60
ENDBRANCH  50  56
ENDBRANCH  43  46
ENDBRANCH  41  43
ENDBRANCH  28  39
ENDBRANCH  23  25
BRANCH  23  63
ATOM     63  N11 MOL d          19.680 -16.645  23.198  0.00  0.00    -0.301 N 
ATOM     64  H7  MOL d          18.960 -16.838  23.866  0.00  0.00     0.173 HD
BRANCH  63  65
ATOM     65  S8  MOL d          20.890 -15.720  23.588  0.00  0.00     0.259 S 
ATOM     66  O1  MOL d          20.291 -14.966  24.307  0.00  0.00    -0.201 OA
ATOM     67  O10 MOL d          21.570 -15.446  22.722  0.00  0.00    -0.201 OA
BRANCH  65  68
ATOM     68  C35 MOL d          21.829 -16.608  24.736  0.00  0.00     0.081 A 
ATOM     69  C7  MOL d          23.034 -16.169  25.217  0.00  0.00    -0.058 A 
ATOM     70  C6  MOL d          23.750 -16.887  26.179  0.00  0.00    -0.048 A 
ATOM     71  H4  MOL d          23.443 -15.239  24.841  0.00  0.00     0.086 H 
ATOM     72  C5  MOL d          23.198 -18.027  26.712  0.00  0.00     0.089 A 
ATOM     73  H6  MOL d          24.729 -16.549  26.500  0.00  0.00     0.087 H 
ATOM     74  C4  MOL d          21.982 -18.386  26.263  0.00  0.00     0.068 A 
ATOM     75 CL   MOL d          21.252 -19.800  27.016  0.00  0.00    -0.081 Cl
ATOM     76  C3  MOL d          21.303 -17.768  25.340  0.00  0.00    -0.037 A 
ATOM     77  H5  MOL d          20.333 -18.145  25.037  0.00  0.00     0.088 H 
BRANCH  72  78
ATOM     78  O9  MOL d          23.869 -18.800  27.579  0.00  0.00    -0.354 OA
BRANCH  78  79
ATOM     79  C10 MOL d          23.997 -20.125  27.333  0.00  0.00     0.010 C 
ATOM     80  H1  MOL d          23.021 -20.617  27.459  0.00  0.00     0.066 H 
ATOM     81  H2  MOL d          24.722 -20.560  28.037  0.00  0.00     0.066 H 
ATOM     82  H3  MOL d          24.352 -20.274  26.302  0.00  0.00     0.066 H 
ENDBRANCH  78  79
ENDBRANCH  72  78
ENDBRANCH  65  68
ENDBRANCH  63  65
ENDBRANCH  23  63
ENDBRANCH  20  23
ENDBRANCH  17  20
ENDBRANCH  13  16
ENDBRANCH   1  13
TORSDOF 16
ENDMDL
