MODEL 1
REMARK VINA RESULT:     -10.1      0.000      0.000
REMARK  7 active torsions:
REMARK  status: ('A' for Active; 'I' for Inactive)
REMARK    1  A    between atoms: N12_26  and  C2_2 
REMARK       I    between atoms: C13_5  and  N12_26 
REMARK       I    between atoms: N14_27  and  C13_5 
REMARK    2  A    between atoms: C16_6  and  N14_27 
REMARK    3  A    between atoms: O22_12  and  C19_9 
REMARK    4  A    between atoms: C23_29  and  O22_12 
REMARK    5  A    between atoms: C29_31  and  C27_15 
REMARK    6  A    between atoms: N30_17  and  C31_18 
REMARK       I    between atoms: N30_17  and  C29_31 
REMARK    7  A    between atoms: C6_20  and  C7_21 
ROOT
ATOM      1  C16 BAX d         -21.240  -3.491  19.520  0.00  0.00     0.036 A 
ATOM      2  C17 BAX d         -20.382  -2.507  20.005  0.00  0.00    -0.054 A 
ATOM      3  C18 BAX d         -20.853  -1.473  20.822  0.00  0.00    -0.048 A 
ATOM      4  C19 BAX d         -22.225  -1.406  21.100  0.00  0.00     0.076 A 
ATOM      5  C20 BAX d         -23.089  -2.377  20.621  0.00  0.00    -0.048 A 
ATOM      6  C21 BAX d         -22.606  -3.415  19.835  0.00  0.00    -0.054 A 
ATOM      7  H4  BAX d         -19.330  -2.542  19.744  0.00  0.00     0.087 H 
ATOM      8  H5  BAX d         -20.169  -0.738  21.232  0.00  0.00     0.087 H 
ATOM      9  H6  BAX d         -24.145  -2.327  20.861  0.00  0.00     0.087 H 
ATOM     10  H7  BAX d         -23.288  -4.170  19.462  0.00  0.00     0.087 H 
ENDROOT
BRANCH   1  11
ATOM     11  N14 BAX d         -20.798  -4.499  18.751  0.00  0.00    -0.309 N 
ATOM     12  C13 BAX d         -19.518  -4.890  18.581  0.00  0.00     0.325 C 
ATOM     13  N12 BAX d         -19.344  -5.945  17.757  0.00  0.00    -0.309 N 
ATOM     14  O15 BAX d         -18.575  -4.327  19.165  0.00  0.00    -0.247 OA
ATOM     15  H15 BAX d         -20.162  -6.349  17.349  0.00  0.00     0.170 HD
ATOM     16  H16 BAX d         -21.492  -5.016  18.250  0.00  0.00     0.170 HD
BRANCH  13  17
ATOM     17  C2  BAX d         -18.139  -6.504  17.436  0.00  0.00     0.037 A 
ATOM     18  C1  BAX d         -17.308  -7.090  18.406  0.00  0.00    -0.041 A 
ATOM     19  C6  BAX d         -16.068  -7.651  18.056  0.00  0.00     0.071 A 
ATOM     20  H1  BAX d         -17.629  -7.110  19.442  0.00  0.00     0.088 H 
ATOM     21  C5  BAX d         -15.695  -7.640  16.718  0.00  0.00     0.049 A 
ATOM     22  C4  BAX d         -16.529  -7.086  15.720  0.00  0.00    -0.059 A 
ATOM     23 CL11 BAX d         -14.195  -8.336  16.280  0.00  0.00    -0.083 Cl
ATOM     24  C3  BAX d         -17.740  -6.520  16.098  0.00  0.00    -0.055 A 
ATOM     25  H3  BAX d         -16.229  -7.102  14.679  0.00  0.00     0.086 H 
ATOM     26  H2  BAX d         -18.384  -6.084  15.344  0.00  0.00     0.087 H 
BRANCH  19  27
ATOM     27  C7  BAX d         -15.162  -8.291  19.146  0.00  0.00     0.419 C 
ATOM     28  F8  BAX d         -14.581  -9.317  18.608  0.00  0.00    -0.166 F 
ATOM     29  F9  BAX d         -14.223  -7.450  19.578  0.00  0.00    -0.166 F 
ATOM     30  F10 BAX d         -15.803  -8.780  20.190  0.00  0.00    -0.166 F 
ENDBRANCH  19  27
ENDBRANCH  13  17
ENDBRANCH   1  11
BRANCH   4  31
ATOM     31  O22 BAX d         -22.762  -0.439  21.922  0.00  0.00    -0.311 OA
BRANCH  31  32
ATOM     32  C23 BAX d         -22.430   0.847  21.823  0.00  0.00     0.079 A 
ATOM     33  C24 BAX d         -22.025   1.583  22.927  0.00  0.00    -0.033 A 
ATOM     34  C25 BAX d         -21.668   2.920  22.728  0.00  0.00     0.006 A 
ATOM     35  H8  BAX d         -21.986   1.135  23.914  0.00  0.00     0.090 H 
ATOM     36  N26 BAX d         -21.720   3.446  21.507  0.00  0.00    -0.255 NA
ATOM     37  H9  BAX d         -21.349   3.527  23.567  0.00  0.00     0.114 H 
ATOM     38  C27 BAX d         -22.091   2.750  20.416  0.00  0.00     0.126 A 
ATOM     39  C28 BAX d         -22.449   1.410  20.556  0.00  0.00    -0.017 A 
ATOM     40  H10 BAX d         -22.737   0.820  19.693  0.00  0.00     0.091 H 
BRANCH  38  41
ATOM     41  C29 BAX d         -22.119   3.427  19.034  0.00  0.00     0.269 C 
ATOM     42  N30 BAX d         -22.120   2.595  17.989  0.00  0.00    -0.360 N 
ATOM     43  H11 BAX d         -22.107   1.604  18.122  0.00  0.00     0.162 HD
ATOM     44  O32 BAX d         -22.142   4.651  18.939  0.00  0.00    -0.266 OA
BRANCH  42  45
ATOM     45  C31 BAX d         -22.141   3.177  16.638  0.00  0.00    -0.018 C 
ATOM     46  H12 BAX d         -21.114   3.424  16.329  0.00  0.00     0.056 H 
ATOM     47  H13 BAX d         -22.752   4.092  16.642  0.00  0.00     0.056 H 
ATOM     48  H14 BAX d         -22.573   2.452  15.933  0.00  0.00     0.056 H 
ENDBRANCH  42  45
ENDBRANCH  38  41
ENDBRANCH  31  32
ENDBRANCH   4  31
TORSDOF 7
ENDMDL
MODEL 2
REMARK VINA RESULT:      -9.3      1.267      2.493
REMARK  7 active torsions:
REMARK  status: ('A' for Active; 'I' for Inactive)
REMARK    1  A    between atoms: N12_26  and  C2_2 
REMARK       I    between atoms: C13_5  and  N12_26 
REMARK       I    between atoms: N14_27  and  C13_5 
REMARK    2  A    between atoms: C16_6  and  N14_27 
REMARK    3  A    between atoms: O22_12  and  C19_9 
REMARK    4  A    between atoms: C23_29  and  O22_12 
REMARK    5  A    between atoms: C29_31  and  C27_15 
REMARK    6  A    between atoms: N30_17  and  C31_18 
REMARK       I    between atoms: N30_17  and  C29_31 
REMARK    7  A    between atoms: C6_20  and  C7_21 
ROOT
ATOM      1  C16 BAX d         -21.598  -3.573  19.333  0.00  0.00     0.036 A 
ATOM      2  C17 BAX d         -21.958  -3.505  20.677  0.00  0.00    -0.054 A 
ATOM      3  C18 BAX d         -22.524  -2.345  21.217  0.00  0.00    -0.048 A 
ATOM      4  C19 BAX d         -22.671  -1.220  20.393  0.00  0.00     0.076 A 
ATOM      5  C20 BAX d         -22.314  -1.275  19.057  0.00  0.00    -0.048 A 
ATOM      6  C21 BAX d         -21.780  -2.441  18.524  0.00  0.00    -0.054 A 
ATOM      7  H4  BAX d         -21.796  -4.366  21.316  0.00  0.00     0.087 H 
ATOM      8  H5  BAX d         -22.843  -2.317  22.253  0.00  0.00     0.087 H 
ATOM      9  H6  BAX d         -22.453  -0.406  18.424  0.00  0.00     0.087 H 
ATOM     10  H7  BAX d         -21.501  -2.476  17.477  0.00  0.00     0.087 H 
ENDROOT
BRANCH   1  11
ATOM     11  N14 BAX d         -21.072  -4.687  18.797  0.00  0.00    -0.309 N 
ATOM     12  C13 BAX d         -19.769  -4.928  18.543  0.00  0.00     0.325 C 
ATOM     13  N12 BAX d         -19.504  -6.138  18.007  0.00  0.00    -0.309 N 
ATOM     14  O15 BAX d         -18.883  -4.098  18.808  0.00  0.00    -0.247 OA
ATOM     15  H15 BAX d         -20.277  -6.751  17.849  0.00  0.00     0.170 HD
ATOM     16  H16 BAX d         -21.715  -5.416  18.561  0.00  0.00     0.170 HD
BRANCH  13  17
ATOM     17  C2  BAX d         -18.261  -6.593  17.664  0.00  0.00     0.037 A 
ATOM     18  C1  BAX d         -17.398  -7.182  18.604  0.00  0.00    -0.041 A 
ATOM     19  C6  BAX d         -16.121  -7.634  18.232  0.00  0.00     0.071 A 
ATOM     20  H1  BAX d         -17.723  -7.289  19.633  0.00  0.00     0.088 H 
ATOM     21  C5  BAX d         -15.741  -7.513  16.901  0.00  0.00     0.049 A 
ATOM     22  C4  BAX d         -16.605  -6.953  15.932  0.00  0.00    -0.059 A 
ATOM     23 CL11 BAX d         -14.194  -8.075  16.436  0.00  0.00    -0.083 Cl
ATOM     24  C3  BAX d         -17.854  -6.496  16.332  0.00  0.00    -0.055 A 
ATOM     25  H3  BAX d         -16.297  -6.882  14.895  0.00  0.00     0.086 H 
ATOM     26  H2  BAX d         -18.522  -6.058  15.600  0.00  0.00     0.087 H 
BRANCH  19  27
ATOM     27  C7  BAX d         -15.180  -8.280  19.289  0.00  0.00     0.419 C 
ATOM     28  F8  BAX d         -15.920  -8.648  20.288  0.00  0.00    -0.166 F 
ATOM     29  F9  BAX d         -14.547  -9.351  18.812  0.00  0.00    -0.166 F 
ATOM     30  F10 BAX d         -14.289  -7.464  19.818  0.00  0.00    -0.166 F 
ENDBRANCH  19  27
ENDBRANCH  13  17
ENDBRANCH   1  11
BRANCH   4  31
ATOM     31  O22 BAX d         -23.249  -0.052  20.841  0.00  0.00    -0.311 OA
BRANCH  31  32
ATOM     32  C23 BAX d         -22.720   1.146  20.599  0.00  0.00     0.079 A 
ATOM     33  C24 BAX d         -22.437   1.571  19.309  0.00  0.00    -0.033 A 
ATOM     34  C25 BAX d         -21.908   2.854  19.143  0.00  0.00     0.006 A 
ATOM     35  H8  BAX d         -22.620   0.927  18.455  0.00  0.00     0.090 H 
ATOM     36  N26 BAX d         -21.694   3.626  20.205  0.00  0.00    -0.255 NA
ATOM     37  H9  BAX d         -21.671   3.220  18.150  0.00  0.00     0.114 H 
ATOM     38  C27 BAX d         -21.978   3.247  21.466  0.00  0.00     0.126 A 
ATOM     39  C28 BAX d         -22.515   1.980  21.688  0.00  0.00    -0.017 A 
ATOM     40  H10 BAX d         -22.769   1.653  22.690  0.00  0.00     0.091 H 
BRANCH  38  41
ATOM     41  C29 BAX d         -21.710   4.201  22.644  0.00  0.00     0.269 C 
ATOM     42  N30 BAX d         -22.626   4.181  23.615  0.00  0.00    -0.360 N 
ATOM     43  H11 BAX d         -23.421   3.576  23.560  0.00  0.00     0.162 HD
ATOM     44  O32 BAX d         -20.710   4.913  22.656  0.00  0.00    -0.266 OA
BRANCH  42  45
ATOM     45  C31 BAX d         -22.434   5.073  24.770  0.00  0.00    -0.018 C 
ATOM     46  H12 BAX d         -23.394   5.213  25.288  0.00  0.00     0.056 H 
ATOM     47  H13 BAX d         -22.060   6.047  24.422  0.00  0.00     0.056 H 
ATOM     48  H14 BAX d         -21.705   4.626  25.461  0.00  0.00     0.056 H 
ENDBRANCH  42  45
ENDBRANCH  38  41
ENDBRANCH  31  32
ENDBRANCH   4  31
TORSDOF 7
ENDMDL
MODEL 3
REMARK VINA RESULT:      -8.6      1.748      2.273
REMARK  7 active torsions:
REMARK  status: ('A' for Active; 'I' for Inactive)
REMARK    1  A    between atoms: N12_26  and  C2_2 
REMARK       I    between atoms: C13_5  and  N12_26 
REMARK       I    between atoms: N14_27  and  C13_5 
REMARK    2  A    between atoms: C16_6  and  N14_27 
REMARK    3  A    between atoms: O22_12  and  C19_9 
REMARK    4  A    between atoms: C23_29  and  O22_12 
REMARK    5  A    between atoms: C29_31  and  C27_15 
REMARK    6  A    between atoms: N30_17  and  C31_18 
REMARK       I    between atoms: N30_17  and  C29_31 
REMARK    7  A    between atoms: C6_20  and  C7_21 
ROOT
ATOM      1  C16 BAX d         -21.793  -3.050  19.231  0.00  0.00     0.036 A 
ATOM      2  C17 BAX d         -22.490  -3.217  20.425  0.00  0.00    -0.054 A 
ATOM      3  C18 BAX d         -23.072  -2.128  21.083  0.00  0.00    -0.048 A 
ATOM      4  C19 BAX d         -22.890  -0.843  20.550  0.00  0.00     0.076 A 
ATOM      5  C20 BAX d         -22.196  -0.665  19.365  0.00  0.00    -0.048 A 
ATOM      6  C21 BAX d         -21.648  -1.756  18.705  0.00  0.00    -0.054 A 
ATOM      7  H4  BAX d         -22.584  -4.209  20.852  0.00  0.00     0.087 H 
ATOM      8  H5  BAX d         -23.651  -2.274  21.988  0.00  0.00     0.087 H 
ATOM      9  H6  BAX d         -22.081   0.331  18.952  0.00  0.00     0.087 H 
ATOM     10  H7  BAX d         -21.104  -1.608  17.779  0.00  0.00     0.087 H 
ENDROOT
BRANCH   1  11
ATOM     11  N14 BAX d         -21.247  -4.089  18.578  0.00  0.00    -0.309 N 
ATOM     12  C13 BAX d         -19.963  -4.500  18.636  0.00  0.00     0.325 C 
ATOM     13  N12 BAX d         -19.673  -5.585  17.886  0.00  0.00    -0.309 N 
ATOM     14  O15 BAX d         -19.121  -3.928  19.350  0.00  0.00    -0.247 OA
ATOM     15  H15 BAX d         -20.419  -5.994  17.362  0.00  0.00     0.170 HD
ATOM     16  H16 BAX d         -21.858  -4.615  17.986  0.00  0.00     0.170 HD
BRANCH  13  17
ATOM     17  C2  BAX d         -18.442  -6.169  17.788  0.00  0.00     0.037 A 
ATOM     18  C1  BAX d         -17.914  -6.589  16.554  0.00  0.00    -0.041 A 
ATOM     19  C6  BAX d         -16.650  -7.196  16.476  0.00  0.00     0.071 A 
ATOM     20  H1  BAX d         -18.492  -6.443  15.649  0.00  0.00     0.088 H 
ATOM     21  C5  BAX d         -15.916  -7.344  17.647  0.00  0.00     0.049 A 
ATOM     22  C4  BAX d         -16.413  -6.899  18.893  0.00  0.00    -0.059 A 
ATOM     23 CL11 BAX d         -14.368  -8.067  17.559  0.00  0.00    -0.083 Cl
ATOM     24  C3  BAX d         -17.675  -6.321  18.944  0.00  0.00    -0.055 A 
ATOM     25  H3  BAX d         -15.819  -7.007  19.794  0.00  0.00     0.086 H 
ATOM     26  H2  BAX d         -18.070  -5.983  19.894  0.00  0.00     0.087 H 
BRANCH  19  27
ATOM     27  C7  BAX d         -16.086  -7.658  15.102  0.00  0.00     0.419 C 
ATOM     28  F8  BAX d         -17.101  -7.881  14.326  0.00  0.00    -0.166 F 
ATOM     29  F9  BAX d         -15.315  -6.730  14.536  0.00  0.00    -0.166 F 
ATOM     30  F10 BAX d         -15.426  -8.799  15.123  0.00  0.00    -0.166 F 
ENDBRANCH  19  27
ENDBRANCH  13  17
ENDBRANCH   1  11
BRANCH   4  31
ATOM     31  O22 BAX d         -23.458   0.275  21.120  0.00  0.00    -0.311 OA
BRANCH  31  32
ATOM     32  C23 BAX d         -22.761   1.384  21.365  0.00  0.00     0.079 A 
ATOM     33  C24 BAX d         -22.337   1.713  22.644  0.00  0.00    -0.033 A 
ATOM     34  C25 BAX d         -21.586   2.881  22.806  0.00  0.00     0.006 A 
ATOM     35  H8  BAX d         -22.581   1.083  23.493  0.00  0.00     0.090 H 
ATOM     36  N26 BAX d         -21.297   3.636  21.750  0.00  0.00    -0.255 NA
ATOM     37  H9  BAX d         -21.241   3.171  23.792  0.00  0.00     0.114 H 
ATOM     38  C27 BAX d         -21.679   3.331  20.494  0.00  0.00     0.126 A 
ATOM     39  C28 BAX d         -22.422   2.172  20.275  0.00  0.00    -0.017 A 
ATOM     40  H10 BAX d         -22.729   1.892  19.273  0.00  0.00     0.091 H 
BRANCH  38  41
ATOM     41  C29 BAX d         -21.298   4.251  19.321  0.00  0.00     0.269 C 
ATOM     42  N30 BAX d         -22.129   4.219  18.276  0.00  0.00    -0.360 N 
ATOM     43  H11 BAX d         -22.939   3.631  18.281  0.00  0.00     0.162 HD
ATOM     44  O32 BAX d         -20.294   4.955  19.380  0.00  0.00    -0.266 OA
BRANCH  42  45
ATOM     45  C31 BAX d         -21.821   5.072  17.117  0.00  0.00    -0.018 C 
ATOM     46  H12 BAX d         -21.105   5.852  17.417  0.00  0.00     0.056 H 
ATOM     47  H13 BAX d         -22.745   5.544  16.753  0.00  0.00     0.056 H 
ATOM     48  H14 BAX d         -21.383   4.459  16.317  0.00  0.00     0.056 H 
ENDBRANCH  42  45
ENDBRANCH  38  41
ENDBRANCH  31  32
ENDBRANCH   4  31
TORSDOF 7
ENDMDL
MODEL 4
REMARK VINA RESULT:      -7.8      2.164      3.365
REMARK  7 active torsions:
REMARK  status: ('A' for Active; 'I' for Inactive)
REMARK    1  A    between atoms: N12_26  and  C2_2 
REMARK       I    between atoms: C13_5  and  N12_26 
REMARK       I    between atoms: N14_27  and  C13_5 
REMARK    2  A    between atoms: C16_6  and  N14_27 
REMARK    3  A    between atoms: O22_12  and  C19_9 
REMARK    4  A    between atoms: C23_29  and  O22_12 
REMARK    5  A    between atoms: C29_31  and  C27_15 
REMARK    6  A    between atoms: N30_17  and  C31_18 
REMARK       I    between atoms: N30_17  and  C29_31 
REMARK    7  A    between atoms: C6_20  and  C7_21 
ROOT
ATOM      1  C16 BAX d         -21.857  -2.884  19.340  0.00  0.00     0.036 A 
ATOM      2  C17 BAX d         -22.655  -2.713  20.468  0.00  0.00    -0.054 A 
ATOM      3  C18 BAX d         -23.198  -1.464  20.790  0.00  0.00    -0.048 A 
ATOM      4  C19 BAX d         -22.874  -0.362  19.986  0.00  0.00     0.076 A 
ATOM      5  C20 BAX d         -22.078  -0.519  18.863  0.00  0.00    -0.048 A 
ATOM      6  C21 BAX d         -21.569  -1.769  18.538  0.00  0.00    -0.054 A 
ATOM      7  H4  BAX d         -22.860  -3.563  21.109  0.00  0.00     0.087 H 
ATOM      8  H5  BAX d         -23.855  -1.351  21.644  0.00  0.00     0.087 H 
ATOM      9  H6  BAX d         -21.853   0.337  18.237  0.00  0.00     0.087 H 
ATOM     10  H7  BAX d         -20.945  -1.884  17.658  0.00  0.00     0.087 H 
ENDROOT
BRANCH   1  11
ATOM     11  N14 BAX d         -21.346  -4.081  19.009  0.00  0.00    -0.309 N 
ATOM     12  C13 BAX d         -20.053  -4.369  18.751  0.00  0.00     0.325 C 
ATOM     13  N12 BAX d         -19.802  -5.661  18.451  0.00  0.00    -0.309 N 
ATOM     14  O15 BAX d         -19.162  -3.504  18.811  0.00  0.00    -0.247 OA
ATOM     15  H15 BAX d         -20.577  -6.292  18.448  0.00  0.00     0.170 HD
ATOM     16  H16 BAX d         -21.993  -4.841  18.948  0.00  0.00     0.170 HD
BRANCH  13  17
ATOM     17  C2  BAX d         -18.572  -6.176  18.149  0.00  0.00     0.037 A 
ATOM     18  C1  BAX d         -18.180  -6.441  16.825  0.00  0.00    -0.041 A 
ATOM     19  C6  BAX d         -16.915  -6.979  16.538  0.00  0.00     0.071 A 
ATOM     20  H1  BAX d         -18.865  -6.226  16.013  0.00  0.00     0.088 H 
ATOM     21  C5  BAX d         -16.044  -7.216  17.596  0.00  0.00     0.049 A 
ATOM     22  C4  BAX d         -16.405  -6.927  18.931  0.00  0.00    -0.059 A 
ATOM     23 CL11 BAX d         -14.495  -7.856  17.254  0.00  0.00    -0.083 Cl
ATOM     24  C3  BAX d         -17.671  -6.414  19.187  0.00  0.00    -0.055 A 
ATOM     25  H3  BAX d         -15.707  -7.102  19.741  0.00  0.00     0.086 H 
ATOM     26  H2  BAX d         -17.961  -6.196  20.208  0.00  0.00     0.087 H 
BRANCH  19  27
ATOM     27  C7  BAX d         -16.502  -7.268  15.067  0.00  0.00     0.419 C 
ATOM     28  F8  BAX d         -16.836  -8.494  14.809  0.00  0.00    -0.166 F 
ATOM     29  F9  BAX d         -17.124  -6.467  14.202  0.00  0.00    -0.166 F 
ATOM     30  F10 BAX d         -15.206  -7.219  14.830  0.00  0.00    -0.166 F 
ENDBRANCH  19  27
ENDBRANCH  13  17
ENDBRANCH   1  11
BRANCH   4  31
ATOM     31  O22 BAX d         -23.394   0.893  20.216  0.00  0.00    -0.311 OA
BRANCH  31  32
ATOM     32  C23 BAX d         -22.634   1.987  20.241  0.00  0.00     0.079 A 
ATOM     33  C24 BAX d         -22.083   2.520  19.085  0.00  0.00    -0.033 A 
ATOM     34  C25 BAX d         -21.321   3.686  19.199  0.00  0.00     0.006 A 
ATOM     35  H8  BAX d         -22.238   2.045  18.122  0.00  0.00     0.090 H 
ATOM     36  N26 BAX d         -21.147   4.252  20.390  0.00  0.00    -0.255 NA
ATOM     37  H9  BAX d         -20.872   4.129  18.317  0.00  0.00     0.114 H 
ATOM     38  C27 BAX d         -21.686   3.767  21.526  0.00  0.00     0.126 A 
ATOM     39  C28 BAX d         -22.462   2.611  21.468  0.00  0.00    -0.017 A 
ATOM     40  H10 BAX d         -22.923   2.207  22.363  0.00  0.00     0.091 H 
BRANCH  38  41
ATOM     41  C29 BAX d         -21.447   4.484  22.867  0.00  0.00     0.269 C 
ATOM     42  N30 BAX d         -22.451   4.406  23.744  0.00  0.00    -0.360 N 
ATOM     43  H11 BAX d         -23.290   3.908  23.522  0.00  0.00     0.162 HD
ATOM     44  O32 BAX d         -20.390   5.072  23.081  0.00  0.00    -0.266 OA
BRANCH  42  45
ATOM     45  C31 BAX d         -22.289   5.073  25.046  0.00  0.00    -0.018 C 
ATOM     46  H12 BAX d         -23.278   5.233  25.501  0.00  0.00     0.056 H 
ATOM     47  H13 BAX d         -21.791   6.043  24.902  0.00  0.00     0.056 H 
ATOM     48  H14 BAX d         -21.678   4.442  25.708  0.00  0.00     0.056 H 
ENDBRANCH  42  45
ENDBRANCH  38  41
ENDBRANCH  31  32
ENDBRANCH   4  31
TORSDOF 7
ENDMDL
