MODEL 1
REMARK VINA RESULT:      -7.4      0.000      0.000
REMARK  11 active torsions:
REMARK  status: ('A' for Active; 'I' for Inactive)
REMARK    1  A    between atoms: CAB_1  and  CAR_2 
REMARK    2  A    between atoms: CAR_2  and  CAC_3 
REMARK    3  A    between atoms: CAG_4  and  CAN_5 
REMARK    4  A    between atoms: CAN_5  and  CAX_6 
REMARK    5  A    between atoms: CAW_7  and  OAQ_9 
REMARK    6  A    between atoms: OAQ_9  and  CAA_10 
REMARK    7  A    between atoms: CAU_11  and  OAF_12 
REMARK    8  A    between atoms: CAY_13  and  CAS_14 
REMARK    9  A    between atoms: CAV_17  and  CAP_18 
REMARK   10  A    between atoms: CAP_18  and  CAO_19 
REMARK   11  A    between atoms: CAO_19  and  CAT_20 
ROOT
ATOM      1  CAX YFE d          17.075  20.333  47.792  0.00  0.00     0.013 A 
ATOM      2  CAW YFE d          15.720  20.670  47.822  0.00  0.00     0.078 A 
ATOM      3  CAM YFE d          15.285  21.947  48.178  0.00  0.00    -0.043 A 
ATOM      4  CAU YFE d          17.973  21.336  48.158  0.00  0.00     0.092 A 
ATOM      5  CAY YFE d          17.553  22.619  48.514  0.00  0.00     0.080 A 
ATOM      6  CAV YFE d          16.185  22.935  48.545  0.00  0.00    -0.035 A 
ATOM      7  H10 YFE d          14.224  22.170  48.167  0.00  0.00     0.088 H 
ENDROOT
BRANCH   6   8
ATOM      8  CAP YFE d          15.577  24.304  48.898  0.00  0.00    -0.036 C 
ATOM      9  H15 YFE d          15.037  24.679  48.017  0.00  0.00     0.040 H 
ATOM     10  H16 YFE d          16.398  24.993  49.146  0.00  0.00     0.040 H 
BRANCH   8  11
ATOM     11  CAO YFE d          14.613  24.273  50.070  0.00  0.00    -0.037 C 
ATOM     12  H17 YFE d          14.547  23.241  50.447  0.00  0.00     0.040 H 
ATOM     13  H18 YFE d          13.622  24.600  49.722  0.00  0.00     0.040 H 
BRANCH  11  14
ATOM     14  CAT YFE d          15.063  25.193  51.222  0.00  0.00    -0.058 A 
ATOM     15  CAK YFE d          14.152  25.962  51.944  0.00  0.00    -0.077 A 
ATOM     16  CAI YFE d          14.588  26.787  52.988  0.00  0.00    -0.082 A 
ATOM     17  H19 YFE d          13.097  25.922  51.694  0.00  0.00     0.084 H 
ATOM     18  CAH YFE d          15.944  26.842  53.305  0.00  0.00    -0.083 A 
ATOM     19  H20 YFE d          13.873  27.380  53.548  0.00  0.00     0.083 H 
ATOM     20  CAJ YFE d          16.867  26.071  52.583  0.00  0.00    -0.082 A 
ATOM     21  H21 YFE d          16.286  27.481  54.111  0.00  0.00     0.083 H 
ATOM     22  CAL YFE d          16.421  25.253  51.546  0.00  0.00    -0.077 A 
ATOM     23  H22 YFE d          17.922  26.110  52.831  0.00  0.00     0.083 H 
ATOM     24  H23 YFE d          17.133  24.659  50.985  0.00  0.00     0.084 H 
ENDBRANCH  11  14
ENDBRANCH   8  11
ENDBRANCH   6   8
BRANCH   5  25
ATOM     25  CAS YFE d          18.627  23.654  48.901  0.00  0.00     0.212 C 
ATOM     26  OAE YFE d          19.171  23.516  50.022  0.00  0.00    -0.644 OA
ATOM     27  OAD YFE d          18.880  24.590  48.107  0.00  0.00    -0.644 OA
ENDBRANCH   5  25
BRANCH   2  28
ATOM     28  OAQ YFE d          14.787  19.732  47.501  0.00  0.00    -0.355 OA
BRANCH  28  29
ATOM     29  CAA YFE d          13.455  20.204  47.847  0.00  0.00     0.010 C 
ATOM     30  H11 YFE d          13.409  21.296  47.720  0.00  0.00     0.066 H 
ATOM     31  H12 YFE d          13.234  19.947  48.893  0.00  0.00     0.066 H 
ATOM     32  H13 YFE d          12.714  19.727  47.188  0.00  0.00     0.066 H 
ENDBRANCH  28  29
ENDBRANCH   2  28
BRANCH   4  33
ATOM     33  OAF YFE d          19.306  21.064  48.157  0.00  0.00    -0.359 OA
ATOM     34  H14 YFE d          19.689  21.365  47.342  0.00  0.00     0.217 HD
ENDBRANCH   4  33
BRANCH   1  35
ATOM     35  CAN YFE d          17.577  18.920  47.374  0.00  0.00    -0.020 C 
ATOM     36  H8  YFE d          18.517  18.692  47.897  0.00  0.00     0.046 H 
ATOM     37  H9  YFE d          16.819  18.167  47.638  0.00  0.00     0.046 H 
BRANCH  35  38
ATOM     38  CAG YFE d          17.794  18.907  45.985  0.00  0.00    -0.097 C 
ATOM     39  CAR YFE d          17.139  18.298  44.894  0.00  0.00    -0.091 C 
ATOM     40  H7  YFE d          18.658  19.498  45.685  0.00  0.00     0.077 H 
BRANCH  39  41
ATOM     41  CAB YFE d          15.873  17.431  45.024  0.00  0.00    -0.055 C 
ATOM     42  H1  YFE d          15.168  17.688  44.220  0.00  0.00     0.033 H 
ATOM     43  H2  YFE d          15.400  17.617  46.001  0.00  0.00     0.033 H 
ATOM     44  H3  YFE d          16.146  16.368  44.945  0.00  0.00     0.033 H 
ENDBRANCH  39  41
BRANCH  39  45
ATOM     45  CAC YFE d          17.692  18.529  43.468  0.00  0.00    -0.055 C 
ATOM     46  H4  YFE d          16.877  18.428  42.737  0.00  0.00     0.033 H 
ATOM     47  H5  YFE d          18.472  17.782  43.253  0.00  0.00     0.033 H 
ATOM     48  H6  YFE d          18.122  19.538  43.400  0.00  0.00     0.033 H 
ENDBRANCH  39  45
ENDBRANCH  35  38
ENDBRANCH   1  35
TORSDOF 11
ENDMDL
MODEL 2
REMARK VINA RESULT:      -6.9      1.406      3.503
REMARK  11 active torsions:
REMARK  status: ('A' for Active; 'I' for Inactive)
REMARK    1  A    between atoms: CAB_1  and  CAR_2 
REMARK    2  A    between atoms: CAR_2  and  CAC_3 
REMARK    3  A    between atoms: CAG_4  and  CAN_5 
REMARK    4  A    between atoms: CAN_5  and  CAX_6 
REMARK    5  A    between atoms: CAW_7  and  OAQ_9 
REMARK    6  A    between atoms: OAQ_9  and  CAA_10 
REMARK    7  A    between atoms: CAU_11  and  OAF_12 
REMARK    8  A    between atoms: CAY_13  and  CAS_14 
REMARK    9  A    between atoms: CAV_17  and  CAP_18 
REMARK   10  A    between atoms: CAP_18  and  CAO_19 
REMARK   11  A    between atoms: CAO_19  and  CAT_20 
ROOT
ATOM      1  CAX YFE d          17.162  19.834  47.265  0.00  0.00     0.013 A 
ATOM      2  CAW YFE d          17.533  21.160  47.494  0.00  0.00     0.078 A 
ATOM      3  CAM YFE d          16.715  22.045  48.197  0.00  0.00    -0.043 A 
ATOM      4  CAU YFE d          15.916  19.443  47.756  0.00  0.00     0.092 A 
ATOM      5  CAY YFE d          15.087  20.317  48.463  0.00  0.00     0.080 A 
ATOM      6  CAV YFE d          15.476  21.649  48.677  0.00  0.00    -0.035 A 
ATOM      7  H10 YFE d          17.054  23.060  48.371  0.00  0.00     0.088 H 
ENDROOT
BRANCH   6   8
ATOM      8  CAP YFE d          14.680  22.715  49.450  0.00  0.00    -0.036 C 
ATOM      9  H15 YFE d          14.772  22.503  50.525  0.00  0.00     0.040 H 
ATOM     10  H16 YFE d          13.623  22.640  49.152  0.00  0.00     0.040 H 
BRANCH   8  11
ATOM     11  CAO YFE d          15.144  24.139  49.203  0.00  0.00    -0.037 C 
ATOM     12  H17 YFE d          14.371  24.668  48.625  0.00  0.00     0.040 H 
ATOM     13  H18 YFE d          16.080  24.111  48.625  0.00  0.00     0.040 H 
BRANCH  11  14
ATOM     14  CAT YFE d          15.395  24.908  50.515  0.00  0.00    -0.058 A 
ATOM     15  CAK YFE d          16.675  25.047  51.048  0.00  0.00    -0.077 A 
ATOM     16  CAI YFE d          16.876  25.755  52.240  0.00  0.00    -0.082 A 
ATOM     17  H19 YFE d          17.523  24.605  50.536  0.00  0.00     0.084 H 
ATOM     18  CAH YFE d          15.785  26.320  52.900  0.00  0.00    -0.083 A 
ATOM     19  H20 YFE d          17.875  25.863  52.647  0.00  0.00     0.083 H 
ATOM     20  CAJ YFE d          14.494  26.183  52.369  0.00  0.00    -0.082 A 
ATOM     21  H21 YFE d          15.936  26.866  53.824  0.00  0.00     0.083 H 
ATOM     22  CAL YFE d          14.307  25.477  51.182  0.00  0.00    -0.077 A 
ATOM     23  H22 YFE d          13.646  26.625  52.879  0.00  0.00     0.083 H 
ATOM     24  H23 YFE d          13.310  25.368  50.772  0.00  0.00     0.084 H 
ENDBRANCH  11  14
ENDBRANCH   8  11
ENDBRANCH   6   8
BRANCH   5  25
ATOM     25  CAS YFE d          13.730  19.784  48.965  0.00  0.00     0.212 C 
ATOM     26  OAE YFE d          13.712  19.264  50.106  0.00  0.00    -0.644 OA
ATOM     27  OAD YFE d          12.733  19.861  48.211  0.00  0.00    -0.644 OA
ENDBRANCH   5  25
BRANCH   2  28
ATOM     28  OAQ YFE d          18.726  21.616  47.020  0.00  0.00    -0.355 OA
BRANCH  28  29
ATOM     29  CAA YFE d          19.630  21.910  48.122  0.00  0.00     0.010 C 
ATOM     30  H11 YFE d          19.514  22.962  48.421  0.00  0.00     0.066 H 
ATOM     31  H12 YFE d          20.667  21.732  47.802  0.00  0.00     0.066 H 
ATOM     32  H13 YFE d          19.392  21.257  48.975  0.00  0.00     0.066 H 
ENDBRANCH  28  29
ENDBRANCH   2  28
BRANCH   4  33
ATOM     33  OAF YFE d          15.496  18.166  47.555  0.00  0.00    -0.359 OA
ATOM     34  H14 YFE d          16.240  17.620  47.329  0.00  0.00     0.217 HD
ENDBRANCH   4  33
BRANCH   1  35
ATOM     35  CAN YFE d          18.075  18.829  46.503  0.00  0.00    -0.020 C 
ATOM     36  H8  YFE d          19.056  19.290  46.317  0.00  0.00     0.046 H 
ATOM     37  H9  YFE d          18.206  17.919  47.107  0.00  0.00     0.046 H 
BRANCH  35  38
ATOM     38  CAG YFE d          17.467  18.502  45.278  0.00  0.00    -0.097 C 
ATOM     39  CAR YFE d          17.864  17.743  44.156  0.00  0.00    -0.091 C 
ATOM     40  H7  YFE d          16.470  18.927  45.172  0.00  0.00     0.077 H 
BRANCH  39  41
ATOM     41  CAB YFE d          19.212  17.007  44.048  0.00  0.00    -0.055 C 
ATOM     42  H1  YFE d          19.796  17.431  43.218  0.00  0.00     0.033 H 
ATOM     43  H2  YFE d          19.031  15.937  43.861  0.00  0.00     0.033 H 
ATOM     44  H3  YFE d          19.772  17.125  44.987  0.00  0.00     0.033 H 
ENDBRANCH  39  41
BRANCH  39  45
ATOM     45  CAC YFE d          16.887  17.607  42.964  0.00  0.00    -0.055 C 
ATOM     46  H4  YFE d          16.044  16.962  43.253  0.00  0.00     0.033 H 
ATOM     47  H5  YFE d          17.414  17.160  42.108  0.00  0.00     0.033 H 
ATOM     48  H6  YFE d          16.509  18.600  42.685  0.00  0.00     0.033 H 
ENDBRANCH  39  45
ENDBRANCH  35  38
ENDBRANCH   1  35
TORSDOF 11
ENDMDL
MODEL 3
REMARK VINA RESULT:      -6.9      1.343      1.797
REMARK  11 active torsions:
REMARK  status: ('A' for Active; 'I' for Inactive)
REMARK    1  A    between atoms: CAB_1  and  CAR_2 
REMARK    2  A    between atoms: CAR_2  and  CAC_3 
REMARK    3  A    between atoms: CAG_4  and  CAN_5 
REMARK    4  A    between atoms: CAN_5  and  CAX_6 
REMARK    5  A    between atoms: CAW_7  and  OAQ_9 
REMARK    6  A    between atoms: OAQ_9  and  CAA_10 
REMARK    7  A    between atoms: CAU_11  and  OAF_12 
REMARK    8  A    between atoms: CAY_13  and  CAS_14 
REMARK    9  A    between atoms: CAV_17  and  CAP_18 
REMARK   10  A    between atoms: CAP_18  and  CAO_19 
REMARK   11  A    between atoms: CAO_19  and  CAT_20 
ROOT
ATOM      1  CAX YFE d          16.666  21.030  47.182  0.00  0.00     0.013 A 
ATOM      2  CAW YFE d          15.451  20.893  47.858  0.00  0.00     0.078 A 
ATOM      3  CAM YFE d          15.097  21.730  48.916  0.00  0.00    -0.043 A 
ATOM      4  CAU YFE d          17.519  22.036  47.636  0.00  0.00     0.092 A 
ATOM      5  CAY YFE d          17.178  22.883  48.693  0.00  0.00     0.080 A 
ATOM      6  CAV YFE d          15.955  22.723  49.363  0.00  0.00    -0.035 A 
ATOM      7  H10 YFE d          14.134  21.601  49.398  0.00  0.00     0.088 H 
ENDROOT
BRANCH   6   8
ATOM      8  CAP YFE d          15.437  23.588  50.526  0.00  0.00    -0.036 C 
ATOM      9  H15 YFE d          16.297  23.879  51.148  0.00  0.00     0.040 H 
ATOM     10  H16 YFE d          14.741  22.982  51.125  0.00  0.00     0.040 H 
BRANCH   8  11
ATOM     11  CAO YFE d          14.715  24.850  50.090  0.00  0.00    -0.037 C 
ATOM     12  H17 YFE d          13.729  24.572  49.688  0.00  0.00     0.040 H 
ATOM     13  H18 YFE d          15.307  25.342  49.305  0.00  0.00     0.040 H 
BRANCH  11  14
ATOM     14  CAT YFE d          14.514  25.840  51.254  0.00  0.00    -0.058 A 
ATOM     15  CAK YFE d          13.727  26.982  51.116  0.00  0.00    -0.077 A 
ATOM     16  CAI YFE d          13.558  27.864  52.191  0.00  0.00    -0.082 A 
ATOM     17  H19 YFE d          13.242  27.190  50.169  0.00  0.00     0.084 H 
ATOM     18  CAH YFE d          14.186  27.598  53.408  0.00  0.00    -0.083 A 
ATOM     19  H20 YFE d          12.942  28.748  52.079  0.00  0.00     0.083 H 
ATOM     20  CAJ YFE d          14.980  26.451  53.554  0.00  0.00    -0.082 A 
ATOM     21  H21 YFE d          14.061  28.279  54.242  0.00  0.00     0.083 H 
ATOM     22  CAL YFE d          15.140  25.581  52.476  0.00  0.00    -0.077 A 
ATOM     23  H22 YFE d          15.466  26.241  54.500  0.00  0.00     0.083 H 
ATOM     24  H23 YFE d          15.756  24.695  52.586  0.00  0.00     0.084 H 
ENDBRANCH  11  14
ENDBRANCH   8  11
ENDBRANCH   6   8
BRANCH   5  25
ATOM     25  CAS YFE d          18.193  23.964  49.114  0.00  0.00     0.212 C 
ATOM     26  OAE YFE d          18.168  25.044  48.479  0.00  0.00    -0.644 OA
ATOM     27  OAD YFE d          19.005  23.706  50.033  0.00  0.00    -0.644 OA
ENDBRANCH   5  25
BRANCH   2  28
ATOM     28  OAQ YFE d          14.581  19.915  47.484  0.00  0.00    -0.355 OA
BRANCH  28  29
ATOM     29  CAA YFE d          13.689  19.584  48.585  0.00  0.00     0.010 C 
ATOM     30  H11 YFE d          13.078  18.711  48.312  0.00  0.00     0.066 H 
ATOM     31  H12 YFE d          13.031  20.441  48.794  0.00  0.00     0.066 H 
ATOM     32  H13 YFE d          14.282  19.351  49.481  0.00  0.00     0.066 H 
ENDBRANCH  28  29
ENDBRANCH   2  28
BRANCH   4  33
ATOM     33  OAF YFE d          18.720  22.211  47.023  0.00  0.00    -0.359 OA
ATOM     34  H14 YFE d          19.001  23.112  47.130  0.00  0.00     0.217 HD
ENDBRANCH   4  33
BRANCH   1  35
ATOM     35  CAN YFE d          17.064  20.119  45.984  0.00  0.00    -0.020 C 
ATOM     36  H8  YFE d          16.205  19.497  45.692  0.00  0.00     0.046 H 
ATOM     37  H9  YFE d          17.371  20.743  45.132  0.00  0.00     0.046 H 
BRANCH  35  38
ATOM     38  CAG YFE d          18.133  19.294  46.377  0.00  0.00    -0.097 C 
ATOM     39  CAR YFE d          18.261  18.212  47.274  0.00  0.00    -0.091 C 
ATOM     40  H7  YFE d          19.068  19.546  45.878  0.00  0.00     0.077 H 
BRANCH  39  41
ATOM     41  CAB YFE d          17.093  17.628  48.090  0.00  0.00    -0.055 C 
ATOM     42  H1  YFE d          17.487  17.137  48.992  0.00  0.00     0.033 H 
ATOM     43  H2  YFE d          16.551  16.891  47.478  0.00  0.00     0.033 H 
ATOM     44  H3  YFE d          16.409  18.437  48.383  0.00  0.00     0.033 H 
ENDBRANCH  39  41
BRANCH  39  45
ATOM     45  CAC YFE d          19.644  17.538  47.437  0.00  0.00    -0.055 C 
ATOM     46  H4  YFE d          19.529  16.446  47.379  0.00  0.00     0.033 H 
ATOM     47  H5  YFE d          20.070  17.811  48.414  0.00  0.00     0.033 H 
ATOM     48  H6  YFE d          20.315  17.879  46.636  0.00  0.00     0.033 H 
ENDBRANCH  39  45
ENDBRANCH  35  38
ENDBRANCH   1  35
TORSDOF 11
ENDMDL
MODEL 4
REMARK VINA RESULT:      -6.7      1.250      8.272
REMARK  11 active torsions:
REMARK  status: ('A' for Active; 'I' for Inactive)
REMARK    1  A    between atoms: CAB_1  and  CAR_2 
REMARK    2  A    between atoms: CAR_2  and  CAC_3 
REMARK    3  A    between atoms: CAG_4  and  CAN_5 
REMARK    4  A    between atoms: CAN_5  and  CAX_6 
REMARK    5  A    between atoms: CAW_7  and  OAQ_9 
REMARK    6  A    between atoms: OAQ_9  and  CAA_10 
REMARK    7  A    between atoms: CAU_11  and  OAF_12 
REMARK    8  A    between atoms: CAY_13  and  CAS_14 
REMARK    9  A    between atoms: CAV_17  and  CAP_18 
REMARK   10  A    between atoms: CAP_18  and  CAO_19 
REMARK   11  A    between atoms: CAO_19  and  CAT_20 
ROOT
ATOM      1  CAX YFE d          16.176  22.869  48.570  0.00  0.00     0.013 A 
ATOM      2  CAW YFE d          17.446  22.435  48.185  0.00  0.00     0.078 A 
ATOM      3  CAM YFE d          17.714  21.097  47.898  0.00  0.00    -0.043 A 
ATOM      4  CAU YFE d          15.190  21.888  48.676  0.00  0.00     0.092 A 
ATOM      5  CAY YFE d          15.442  20.544  48.390  0.00  0.00     0.080 A 
ATOM      6  CAV YFE d          16.728  20.128  48.012  0.00  0.00    -0.035 A 
ATOM      7  H10 YFE d          18.710  20.808  47.582  0.00  0.00     0.088 H 
ENDROOT
BRANCH   6   8
ATOM      8  CAP YFE d          17.149  18.692  47.650  0.00  0.00    -0.036 C 
ATOM      9  H15 YFE d          16.241  18.114  47.423  0.00  0.00     0.040 H 
ATOM     10  H16 YFE d          17.656  18.251  48.521  0.00  0.00     0.040 H 
BRANCH   8  11
ATOM     11  CAO YFE d          18.084  18.599  46.458  0.00  0.00    -0.037 C 
ATOM     12  H17 YFE d          18.918  17.929  46.714  0.00  0.00     0.040 H 
ATOM     13  H18 YFE d          18.475  19.603  46.236  0.00  0.00     0.040 H 
BRANCH  11  14
ATOM     14  CAT YFE d          17.377  18.054  45.202  0.00  0.00    -0.058 A 
ATOM     15  CAK YFE d          18.019  17.998  43.966  0.00  0.00    -0.077 A 
ATOM     16  CAI YFE d          17.354  17.494  42.841  0.00  0.00    -0.082 A 
ATOM     17  H19 YFE d          19.041  18.348  43.875  0.00  0.00     0.084 H 
ATOM     18  CAH YFE d          16.039  17.048  42.959  0.00  0.00    -0.083 A 
ATOM     19  H20 YFE d          17.861  17.450  41.884  0.00  0.00     0.083 H 
ATOM     20  CAJ YFE d          15.385  17.101  44.199  0.00  0.00    -0.082 A 
ATOM     21  H21 YFE d          15.519  16.659  42.090  0.00  0.00     0.083 H 
ATOM     22  CAL YFE d          16.058  17.605  45.312  0.00  0.00    -0.077 A 
ATOM     23  H22 YFE d          14.364  16.751  44.293  0.00  0.00     0.083 H 
ATOM     24  H23 YFE d          15.554  17.649  46.270  0.00  0.00     0.084 H 
ENDBRANCH  11  14
ENDBRANCH   8  11
ENDBRANCH   6   8
BRANCH   5  25
ATOM     25  CAS YFE d          14.281  19.540  48.537  0.00  0.00     0.212 C 
ATOM     26  OAE YFE d          13.732  19.151  47.480  0.00  0.00    -0.644 OA
ATOM     27  OAD YFE d          13.924  19.193  49.686  0.00  0.00    -0.644 OA
ENDBRANCH   5  25
BRANCH   2  28
ATOM     28  OAQ YFE d          18.463  23.336  48.086  0.00  0.00    -0.355 OA
BRANCH  28  29
ATOM     29  CAA YFE d          19.737  22.648  47.944  0.00  0.00     0.010 C 
ATOM     30  H11 YFE d          19.836  22.266  46.917  0.00  0.00     0.066 H 
ATOM     31  H12 YFE d          19.781  21.807  48.653  0.00  0.00     0.066 H 
ATOM     32  H13 YFE d          20.558  23.348  48.156  0.00  0.00     0.066 H 
ENDBRANCH  28  29
ENDBRANCH   2  28
BRANCH   4  33
ATOM     33  OAF YFE d          13.936  22.249  49.056  0.00  0.00    -0.359 OA
ATOM     34  H14 YFE d          13.770  23.145  48.789  0.00  0.00     0.217 HD
ENDBRANCH   4  33
BRANCH   1  35
ATOM     35  CAN YFE d          15.858  24.363  48.870  0.00  0.00    -0.020 C 
ATOM     36  H8  YFE d          16.602  25.005  48.377  0.00  0.00     0.046 H 
ATOM     37  H9  YFE d          14.854  24.609  48.493  0.00  0.00     0.046 H 
BRANCH  35  38
ATOM     38  CAG YFE d          15.904  24.567  50.260  0.00  0.00    -0.097 C 
ATOM     39  CAR YFE d          15.269  25.467  51.143  0.00  0.00    -0.091 C 
ATOM     40  H7  YFE d          16.579  23.879  50.768  0.00  0.00     0.077 H 
BRANCH  39  41
ATOM     41  CAB YFE d          14.244  26.528  50.701  0.00  0.00    -0.055 C 
ATOM     42  H1  YFE d          13.271  26.047  50.525  0.00  0.00     0.033 H 
ATOM     43  H2  YFE d          14.590  27.007  49.773  0.00  0.00     0.033 H 
ATOM     44  H3  YFE d          14.140  27.288  51.489  0.00  0.00     0.033 H 
ENDBRANCH  39  41
BRANCH  39  45
ATOM     45  CAC YFE d          15.585  25.377  52.655  0.00  0.00    -0.055 C 
ATOM     46  H4  YFE d          14.725  24.941  53.184  0.00  0.00     0.033 H 
ATOM     47  H5  YFE d          15.785  26.385  53.048  0.00  0.00     0.033 H 
ATOM     48  H6  YFE d          16.469  24.742  52.807  0.00  0.00     0.033 H 
ENDBRANCH  39  45
ENDBRANCH  35  38
ENDBRANCH   1  35
TORSDOF 11
ENDMDL
MODEL 5
REMARK VINA RESULT:      -6.0      1.603      2.265
REMARK  11 active torsions:
REMARK  status: ('A' for Active; 'I' for Inactive)
REMARK    1  A    between atoms: CAB_1  and  CAR_2 
REMARK    2  A    between atoms: CAR_2  and  CAC_3 
REMARK    3  A    between atoms: CAG_4  and  CAN_5 
REMARK    4  A    between atoms: CAN_5  and  CAX_6 
REMARK    5  A    between atoms: CAW_7  and  OAQ_9 
REMARK    6  A    between atoms: OAQ_9  and  CAA_10 
REMARK    7  A    between atoms: CAU_11  and  OAF_12 
REMARK    8  A    between atoms: CAY_13  and  CAS_14 
REMARK    9  A    between atoms: CAV_17  and  CAP_18 
REMARK   10  A    between atoms: CAP_18  and  CAO_19 
REMARK   11  A    between atoms: CAO_19  and  CAT_20 
ROOT
ATOM      1  CAX YFE d          17.525  22.098  48.270  0.00  0.00     0.013 A 
ATOM      2  CAW YFE d          16.132  22.148  48.178  0.00  0.00     0.078 A 
ATOM      3  CAM YFE d          15.409  23.287  48.534  0.00  0.00    -0.043 A 
ATOM      4  CAU YFE d          18.157  23.241  48.759  0.00  0.00     0.092 A 
ATOM      5  CAY YFE d          17.447  24.390  49.118  0.00  0.00     0.080 A 
ATOM      6  CAV YFE d          16.046  24.416  49.024  0.00  0.00    -0.035 A 
ATOM      7  H10 YFE d          14.331  23.289  48.426  0.00  0.00     0.088 H 
ENDROOT
BRANCH   6   8
ATOM      8  CAP YFE d          15.136  25.610  49.364  0.00  0.00    -0.036 C 
ATOM      9  H15 YFE d          14.314  25.636  48.635  0.00  0.00     0.040 H 
ATOM     10  H16 YFE d          15.730  26.533  49.279  0.00  0.00     0.040 H 
BRANCH   8  11
ATOM     11  CAO YFE d          14.536  25.558  50.758  0.00  0.00    -0.037 C 
ATOM     12  H17 YFE d          14.258  24.518  50.984  0.00  0.00     0.040 H 
ATOM     13  H18 YFE d          13.637  26.191  50.780  0.00  0.00     0.040 H 
BRANCH  11  14
ATOM     14  CAT YFE d          15.519  26.054  51.836  0.00  0.00    -0.058 A 
ATOM     15  CAK YFE d          15.997  25.209  52.837  0.00  0.00    -0.077 A 
ATOM     16  CAI YFE d          16.892  25.685  53.802  0.00  0.00    -0.082 A 
ATOM     17  H19 YFE d          15.672  24.175  52.867  0.00  0.00     0.084 H 
ATOM     18  CAH YFE d          17.305  27.016  53.764  0.00  0.00    -0.083 A 
ATOM     19  H20 YFE d          17.263  25.022  54.575  0.00  0.00     0.083 H 
ATOM     20  CAJ YFE d          16.829  27.873  52.761  0.00  0.00    -0.082 A 
ATOM     21  H21 YFE d          17.996  27.390  54.512  0.00  0.00     0.083 H 
ATOM     22  CAL YFE d          15.938  27.387  51.805  0.00  0.00    -0.077 A 
ATOM     23  H22 YFE d          17.152  28.907  52.729  0.00  0.00     0.083 H 
ATOM     24  H23 YFE d          15.566  28.048  51.031  0.00  0.00     0.084 H 
ENDBRANCH  11  14
ENDBRANCH   8  11
ENDBRANCH   6   8
BRANCH   5  25
ATOM     25  CAS YFE d          18.243  25.600  49.646  0.00  0.00     0.212 C 
ATOM     26  OAE YFE d          18.274  26.619  48.917  0.00  0.00    -0.644 OA
ATOM     27  OAD YFE d          18.839  25.500  50.743  0.00  0.00    -0.644 OA
ENDBRANCH   5  25
BRANCH   2  28
ATOM     28  OAQ YFE d          15.448  21.058  47.732  0.00  0.00    -0.355 OA
BRANCH  28  29
ATOM     29  CAA YFE d          14.109  21.034  48.300  0.00  0.00     0.010 C 
ATOM     30  H11 YFE d          13.483  21.786  47.797  0.00  0.00     0.066 H 
ATOM     31  H12 YFE d          14.162  21.262  49.375  0.00  0.00     0.066 H 
ATOM     32  H13 YFE d          13.668  20.036  48.160  0.00  0.00     0.066 H 
ENDBRANCH  28  29
ENDBRANCH   2  28
BRANCH   4  33
ATOM     33  OAF YFE d          19.511  23.248  48.880  0.00  0.00    -0.359 OA
ATOM     34  H14 YFE d          19.840  24.122  48.702  0.00  0.00     0.217 HD
ENDBRANCH   4  33
BRANCH   1  35
ATOM     35  CAN YFE d          18.345  20.843  47.853  0.00  0.00    -0.020 C 
ATOM     36  H8  YFE d          18.790  21.005  46.860  0.00  0.00     0.046 H 
ATOM     37  H9  YFE d          19.144  20.664  48.588  0.00  0.00     0.046 H 
BRANCH  35  38
ATOM     38  CAG YFE d          17.485  19.732  47.809  0.00  0.00    -0.097 C 
ATOM     39  CAR YFE d          17.660  18.365  47.505  0.00  0.00    -0.091 C 
ATOM     40  H7  YFE d          16.456  19.981  48.067  0.00  0.00     0.077 H 
BRANCH  39  41
ATOM     41  CAB YFE d          19.014  17.731  47.135  0.00  0.00    -0.055 C 
ATOM     42  H1  YFE d          18.903  17.141  46.214  0.00  0.00     0.033 H 
ATOM     43  H2  YFE d          19.348  17.076  47.954  0.00  0.00     0.033 H 
ATOM     44  H3  YFE d          19.759  18.525  46.974  0.00  0.00     0.033 H 
ENDBRANCH  39  41
BRANCH  39  45
ATOM     45  CAC YFE d          16.435  17.422  47.571  0.00  0.00    -0.055 C 
ATOM     46  H4  YFE d          16.243  17.143  48.617  0.00  0.00     0.033 H 
ATOM     47  H5  YFE d          16.637  16.517  46.980  0.00  0.00     0.033 H 
ATOM     48  H6  YFE d          15.554  17.938  47.163  0.00  0.00     0.033 H 
ENDBRANCH  39  45
ENDBRANCH  35  38
ENDBRANCH   1  35
TORSDOF 11
ENDMDL
MODEL 6
REMARK VINA RESULT:      -6.0      1.802      3.246
REMARK  11 active torsions:
REMARK  status: ('A' for Active; 'I' for Inactive)
REMARK    1  A    between atoms: CAB_1  and  CAR_2 
REMARK    2  A    between atoms: CAR_2  and  CAC_3 
REMARK    3  A    between atoms: CAG_4  and  CAN_5 
REMARK    4  A    between atoms: CAN_5  and  CAX_6 
REMARK    5  A    between atoms: CAW_7  and  OAQ_9 
REMARK    6  A    between atoms: OAQ_9  and  CAA_10 
REMARK    7  A    between atoms: CAU_11  and  OAF_12 
REMARK    8  A    between atoms: CAY_13  and  CAS_14 
REMARK    9  A    between atoms: CAV_17  and  CAP_18 
REMARK   10  A    between atoms: CAP_18  and  CAO_19 
REMARK   11  A    between atoms: CAO_19  and  CAT_20 
ROOT
ATOM      1  CAX YFE d          17.003  19.589  47.563  0.00  0.00     0.013 A 
ATOM      2  CAW YFE d          18.309  20.079  47.490  0.00  0.00     0.078 A 
ATOM      3  CAM YFE d          18.627  21.389  47.851  0.00  0.00    -0.043 A 
ATOM      4  CAU YFE d          16.026  20.486  47.995  0.00  0.00     0.092 A 
ATOM      5  CAY YFE d          16.329  21.799  48.362  0.00  0.00     0.080 A 
ATOM      6  CAV YFE d          17.648  22.274  48.274  0.00  0.00    -0.035 A 
ATOM      7  H10 YFE d          19.658  21.720  47.799  0.00  0.00     0.088 H 
ENDROOT
BRANCH   6   8
ATOM      8  CAP YFE d          18.132  23.683  48.659  0.00  0.00    -0.036 C 
ATOM      9  H15 YFE d          17.265  24.360  48.653  0.00  0.00     0.040 H 
ATOM     10  H16 YFE d          18.862  24.015  47.906  0.00  0.00     0.040 H 
BRANCH   8  11
ATOM     11  CAO YFE d          18.790  23.763  50.025  0.00  0.00    -0.037 C 
ATOM     12  H17 YFE d          19.841  24.059  49.895  0.00  0.00     0.040 H 
ATOM     13  H18 YFE d          18.744  22.771  50.499  0.00  0.00     0.040 H 
BRANCH  11  14
ATOM     14  CAT YFE d          18.097  24.785  50.948  0.00  0.00    -0.058 A 
ATOM     15  CAK YFE d          18.716  25.268  52.100  0.00  0.00    -0.077 A 
ATOM     16  CAI YFE d          18.065  26.200  52.919  0.00  0.00    -0.082 A 
ATOM     17  H19 YFE d          19.708  24.920  52.365  0.00  0.00     0.084 H 
ATOM     18  CAH YFE d          16.788  26.644  52.581  0.00  0.00    -0.083 A 
ATOM     19  H20 YFE d          18.553  26.574  53.812  0.00  0.00     0.083 H 
ATOM     20  CAJ YFE d          16.159  26.162  51.423  0.00  0.00    -0.082 A 
ATOM     21  H21 YFE d          16.279  27.363  53.213  0.00  0.00     0.083 H 
ATOM     22  CAL YFE d          16.817  25.235  50.616  0.00  0.00    -0.077 A 
ATOM     23  H22 YFE d          15.167  26.509  51.157  0.00  0.00     0.083 H 
ATOM     24  H23 YFE d          16.331  24.859  49.722  0.00  0.00     0.084 H 
ENDBRANCH  11  14
ENDBRANCH   8  11
ENDBRANCH   6   8
BRANCH   5  25
ATOM     25  CAS YFE d          15.175  22.708  48.828  0.00  0.00     0.212 C 
ATOM     26  OAE YFE d          14.961  23.744  48.154  0.00  0.00    -0.644 OA
ATOM     27  OAD YFE d          14.535  22.395  49.858  0.00  0.00    -0.644 OA
ENDBRANCH   5  25
BRANCH   2  28
ATOM     28  OAQ YFE d          19.309  19.266  47.052  0.00  0.00    -0.355 OA
BRANCH  28  29
ATOM     29  CAA YFE d          19.910  18.555  48.170  0.00  0.00     0.010 C 
ATOM     30  H11 YFE d          19.716  19.106  49.102  0.00  0.00     0.066 H 
ATOM     31  H12 YFE d          20.996  18.473  48.012  0.00  0.00     0.066 H 
ATOM     32  H13 YFE d          19.473  17.548  48.242  0.00  0.00     0.066 H 
ENDBRANCH  28  29
ENDBRANCH   2  28
BRANCH   4  33
ATOM     33  OAF YFE d          14.735  20.068  48.077  0.00  0.00    -0.359 OA
ATOM     34  H14 YFE d          14.210  20.743  48.492  0.00  0.00     0.217 HD
ENDBRANCH   4  33
BRANCH   1  35
ATOM     35  CAN YFE d          16.638  18.124  47.186  0.00  0.00    -0.020 C 
ATOM     36  H8  YFE d          17.476  17.458  47.438  0.00  0.00     0.046 H 
ATOM     37  H9  YFE d          15.742  17.812  47.743  0.00  0.00     0.046 H 
BRANCH  35  38
ATOM     38  CAG YFE d          16.383  18.060  45.805  0.00  0.00    -0.097 C 
ATOM     39  CAR YFE d          17.169  17.754  44.673  0.00  0.00    -0.091 C 
ATOM     40  H7  YFE d          15.350  18.300  45.552  0.00  0.00     0.077 H 
BRANCH  39  41
ATOM     41  CAB YFE d          18.654  17.352  44.739  0.00  0.00    -0.055 C 
ATOM     42  H1  YFE d          19.236  17.986  44.054  0.00  0.00     0.033 H 
ATOM     43  H2  YFE d          18.761  16.297  44.445  0.00  0.00     0.033 H 
ATOM     44  H3  YFE d          19.025  17.486  45.766  0.00  0.00     0.033 H 
ENDBRANCH  39  41
BRANCH  39  45
ATOM     45  CAC YFE d          16.509  17.790  43.274  0.00  0.00    -0.055 C 
ATOM     46  H4  YFE d          16.744  18.744  42.782  0.00  0.00     0.033 H 
ATOM     47  H5  YFE d          15.418  17.691  43.381  0.00  0.00     0.033 H 
ATOM     48  H6  YFE d          16.895  16.959  42.666  0.00  0.00     0.033 H 
ENDBRANCH  39  45
ENDBRANCH  35  38
ENDBRANCH   1  35
TORSDOF 11
ENDMDL
MODEL 7
REMARK VINA RESULT:      -5.8      1.723      8.321
REMARK  11 active torsions:
REMARK  status: ('A' for Active; 'I' for Inactive)
REMARK    1  A    between atoms: CAB_1  and  CAR_2 
REMARK    2  A    between atoms: CAR_2  and  CAC_3 
REMARK    3  A    between atoms: CAG_4  and  CAN_5 
REMARK    4  A    between atoms: CAN_5  and  CAX_6 
REMARK    5  A    between atoms: CAW_7  and  OAQ_9 
REMARK    6  A    between atoms: OAQ_9  and  CAA_10 
REMARK    7  A    between atoms: CAU_11  and  OAF_12 
REMARK    8  A    between atoms: CAY_13  and  CAS_14 
REMARK    9  A    between atoms: CAV_17  and  CAP_18 
REMARK   10  A    between atoms: CAP_18  and  CAO_19 
REMARK   11  A    between atoms: CAO_19  and  CAT_20 
ROOT
ATOM      1  CAX YFE d          17.398  23.555  49.544  0.00  0.00     0.013 A 
ATOM      2  CAW YFE d          18.411  23.414  48.592  0.00  0.00     0.078 A 
ATOM      3  CAM YFE d          18.358  22.438  47.597  0.00  0.00    -0.043 A 
ATOM      4  CAU YFE d          16.338  22.652  49.461  0.00  0.00     0.092 A 
ATOM      5  CAY YFE d          16.270  21.671  48.469  0.00  0.00     0.080 A 
ATOM      6  CAV YFE d          17.303  21.543  47.526  0.00  0.00    -0.035 A 
ATOM      7  H10 YFE d          19.156  22.380  46.866  0.00  0.00     0.088 H 
ENDROOT
BRANCH   6   8
ATOM      8  CAP YFE d          17.356  20.527  46.371  0.00  0.00    -0.036 C 
ATOM      9  H15 YFE d          18.150  20.837  45.675  0.00  0.00     0.040 H 
ATOM     10  H16 YFE d          16.386  20.543  45.852  0.00  0.00     0.040 H 
BRANCH   8  11
ATOM     11  CAO YFE d          17.637  19.101  46.810  0.00  0.00    -0.037 C 
ATOM     12  H17 YFE d          16.715  18.672  47.231  0.00  0.00     0.040 H 
ATOM     13  H18 YFE d          18.420  19.116  47.581  0.00  0.00     0.040 H 
BRANCH  11  14
ATOM     14  CAT YFE d          18.108  18.212  45.642  0.00  0.00    -0.058 A 
ATOM     15  CAK YFE d          17.259  17.875  44.589  0.00  0.00    -0.077 A 
ATOM     16  CAI YFE d          17.715  17.069  43.538  0.00  0.00    -0.082 A 
ATOM     17  H19 YFE d          16.238  18.239  44.584  0.00  0.00     0.084 H 
ATOM     18  CAH YFE d          19.027  16.598  43.548  0.00  0.00    -0.083 A 
ATOM     19  H20 YFE d          17.050  16.813  42.721  0.00  0.00     0.083 H 
ATOM     20  CAJ YFE d          19.888  16.933  44.604  0.00  0.00    -0.082 A 
ATOM     21  H21 YFE d          19.383  15.971  42.738  0.00  0.00     0.083 H 
ATOM     22  CAL YFE d          19.422  17.736  45.644  0.00  0.00    -0.077 A 
ATOM     23  H22 YFE d          20.909  16.570  44.611  0.00  0.00     0.083 H 
ATOM     24  H23 YFE d          20.085  17.994  46.463  0.00  0.00     0.084 H 
ENDBRANCH  11  14
ENDBRANCH   8  11
ENDBRANCH   6   8
BRANCH   5  25
ATOM     25  CAS YFE d          15.054  20.725  48.466  0.00  0.00     0.212 C 
ATOM     26  OAE YFE d          13.931  21.244  48.260  0.00  0.00    -0.644 OA
ATOM     27  OAD YFE d          15.233  19.507  48.699  0.00  0.00    -0.644 OA
ENDBRANCH   5  25
BRANCH   2  28
ATOM     28  OAQ YFE d          19.489  24.246  48.629  0.00  0.00    -0.355 OA
BRANCH  28  29
ATOM     29  CAA YFE d          19.472  25.148  47.488  0.00  0.00     0.010 C 
ATOM     30  H11 YFE d          18.460  25.562  47.362  0.00  0.00     0.066 H 
ATOM     31  H12 YFE d          19.757  24.596  46.580  0.00  0.00     0.066 H 
ATOM     32  H13 YFE d          20.185  25.968  47.657  0.00  0.00     0.066 H 
ENDBRANCH  28  29
ENDBRANCH   2  28
BRANCH   4  33
ATOM     33  OAF YFE d          15.327  22.734  50.366  0.00  0.00    -0.359 OA
ATOM     34  H14 YFE d          15.587  23.303  51.081  0.00  0.00     0.217 HD
ENDBRANCH   4  33
BRANCH   1  35
ATOM     35  CAN YFE d          17.432  24.655  50.645  0.00  0.00    -0.020 C 
ATOM     36  H8  YFE d          17.053  24.241  51.591  0.00  0.00     0.046 H 
ATOM     37  H9  YFE d          18.465  25.005  50.785  0.00  0.00     0.046 H 
BRANCH  35  38
ATOM     38  CAG YFE d          16.620  25.728  50.240  0.00  0.00    -0.097 C 
ATOM     39  CAR YFE d          16.064  26.844  50.901  0.00  0.00    -0.091 C 
ATOM     40  H7  YFE d          16.363  25.690  49.182  0.00  0.00     0.077 H 
BRANCH  39  41
ATOM     41  CAB YFE d          16.288  27.161  52.391  0.00  0.00    -0.055 C 
ATOM     42  H1  YFE d          16.895  26.367  52.848  0.00  0.00     0.033 H 
ATOM     43  H2  YFE d          15.316  27.221  52.904  0.00  0.00     0.033 H 
ATOM     44  H3  YFE d          16.812  28.124  52.487  0.00  0.00     0.033 H 
ENDBRANCH  39  41
BRANCH  39  45
ATOM     45  CAC YFE d          15.199  27.838  50.090  0.00  0.00    -0.055 C 
ATOM     46  H4  YFE d          15.853  28.517  49.525  0.00  0.00     0.033 H 
ATOM     47  H5  YFE d          14.570  28.422  50.778  0.00  0.00     0.033 H 
ATOM     48  H6  YFE d          14.558  27.281  49.391  0.00  0.00     0.033 H 
ENDBRANCH  39  45
ENDBRANCH  35  38
ENDBRANCH   1  35
TORSDOF 11
ENDMDL
MODEL 8
REMARK VINA RESULT:      -5.8      1.991      3.527
REMARK  11 active torsions:
REMARK  status: ('A' for Active; 'I' for Inactive)
REMARK    1  A    between atoms: CAB_1  and  CAR_2 
REMARK    2  A    between atoms: CAR_2  and  CAC_3 
REMARK    3  A    between atoms: CAG_4  and  CAN_5 
REMARK    4  A    between atoms: CAN_5  and  CAX_6 
REMARK    5  A    between atoms: CAW_7  and  OAQ_9 
REMARK    6  A    between atoms: OAQ_9  and  CAA_10 
REMARK    7  A    between atoms: CAU_11  and  OAF_12 
REMARK    8  A    between atoms: CAY_13  and  CAS_14 
REMARK    9  A    between atoms: CAV_17  and  CAP_18 
REMARK   10  A    between atoms: CAP_18  and  CAO_19 
REMARK   11  A    between atoms: CAO_19  and  CAT_20 
ROOT
ATOM      1  CAX YFE d          17.187  21.791  47.691  0.00  0.00     0.013 A 
ATOM      2  CAW YFE d          18.531  21.968  48.026  0.00  0.00     0.078 A 
ATOM      3  CAM YFE d          18.962  23.045  48.802  0.00  0.00    -0.043 A 
ATOM      4  CAU YFE d          16.297  22.760  48.155  0.00  0.00     0.092 A 
ATOM      5  CAY YFE d          16.713  23.842  48.934  0.00  0.00     0.080 A 
ATOM      6  CAV YFE d          18.071  24.006  49.253  0.00  0.00    -0.035 A 
ATOM      7  H10 YFE d          20.012  23.131  49.056  0.00  0.00     0.088 H 
ENDROOT
BRANCH   6   8
ATOM      8  CAP YFE d          18.671  25.132  50.114  0.00  0.00    -0.036 C 
ATOM      9  H15 YFE d          18.078  26.044  49.951  0.00  0.00     0.040 H 
ATOM     10  H16 YFE d          19.706  25.304  49.784  0.00  0.00     0.040 H 
BRANCH   8  11
ATOM     11  CAO YFE d          18.690  24.835  51.602  0.00  0.00    -0.037 C 
ATOM     12  H17 YFE d          19.704  25.018  51.987  0.00  0.00     0.040 H 
ATOM     13  H18 YFE d          18.425  23.778  51.755  0.00  0.00     0.040 H 
BRANCH  11  14
ATOM     14  CAT YFE d          17.696  25.714  52.386  0.00  0.00    -0.058 A 
ATOM     15  CAK YFE d          18.032  26.997  52.813  0.00  0.00    -0.077 A 
ATOM     16  CAI YFE d          17.107  27.776  53.521  0.00  0.00    -0.082 A 
ATOM     17  H19 YFE d          19.016  27.396  52.596  0.00  0.00     0.084 H 
ATOM     18  CAH YFE d          15.843  27.261  53.803  0.00  0.00    -0.083 A 
ATOM     19  H20 YFE d          17.374  28.775  53.847  0.00  0.00     0.083 H 
ATOM     20  CAJ YFE d          15.497  25.970  53.377  0.00  0.00    -0.082 A 
ATOM     21  H21 YFE d          15.125  27.859  54.353  0.00  0.00     0.083 H 
ATOM     22  CAL YFE d          16.427  25.204  52.673  0.00  0.00    -0.077 A 
ATOM     23  H22 YFE d          14.514  25.569  53.593  0.00  0.00     0.083 H 
ATOM     24  H23 YFE d          16.162  24.205  52.345  0.00  0.00     0.084 H 
ENDBRANCH  11  14
ENDBRANCH   8  11
ENDBRANCH   6   8
BRANCH   5  25
ATOM     25  CAS YFE d          15.648  24.856  49.397  0.00  0.00     0.212 C 
ATOM     26  OAE YFE d          15.865  26.063  49.138  0.00  0.00    -0.644 OA
ATOM     27  OAD YFE d          14.650  24.439  50.029  0.00  0.00    -0.644 OA
ENDBRANCH   5  25
BRANCH   2  28
ATOM     28  OAQ YFE d          19.458  21.074  47.585  0.00  0.00    -0.355 OA
BRANCH  28  29
ATOM     29  CAA YFE d          19.337  19.820  48.313  0.00  0.00     0.010 C 
ATOM     30  H11 YFE d          20.339  19.415  48.515  0.00  0.00     0.066 H 
ATOM     31  H12 YFE d          18.765  19.099  47.709  0.00  0.00     0.066 H 
ATOM     32  H13 YFE d          18.813  19.996  49.264  0.00  0.00     0.066 H 
ENDBRANCH  28  29
ENDBRANCH   2  28
BRANCH   4  33
ATOM     33  OAF YFE d          14.976  22.645  47.852  0.00  0.00    -0.359 OA
ATOM     34  H14 YFE d          14.688  23.426  47.394  0.00  0.00     0.217 HD
ENDBRANCH   4  33
BRANCH   1  35
ATOM     35  CAN YFE d          16.688  20.582  46.847  0.00  0.00    -0.020 C 
ATOM     36  H8  YFE d          16.418  20.923  45.837  0.00  0.00     0.046 H 
ATOM     37  H9  YFE d          17.485  19.826  46.778  0.00  0.00     0.046 H 
BRANCH  35  38
ATOM     38  CAG YFE d          15.560  20.024  47.474  0.00  0.00    -0.097 C 
ATOM     39  CAR YFE d          15.201  18.718  47.870  0.00  0.00    -0.091 C 
ATOM     40  H7  YFE d          14.794  20.764  47.705  0.00  0.00     0.077 H 
BRANCH  39  41
ATOM     41  CAB YFE d          16.106  17.485  47.692  0.00  0.00    -0.055 C 
ATOM     42  H1  YFE d          17.009  17.602  48.308  0.00  0.00     0.033 H 
ATOM     43  H2  YFE d          16.392  17.390  46.634  0.00  0.00     0.033 H 
ATOM     44  H3  YFE d          15.562  16.582  48.007  0.00  0.00     0.033 H 
ENDBRANCH  39  41
BRANCH  39  45
ATOM     45  CAC YFE d          13.832  18.496  48.555  0.00  0.00    -0.055 C 
ATOM     46  H4  YFE d          13.141  19.300  48.263  0.00  0.00     0.033 H 
ATOM     47  H5  YFE d          13.963  18.503  49.647  0.00  0.00     0.033 H 
ATOM     48  H6  YFE d          13.418  17.527  48.241  0.00  0.00     0.033 H 
ENDBRANCH  39  45
ENDBRANCH  35  38
ENDBRANCH   1  35
TORSDOF 11
ENDMDL
MODEL 9
REMARK VINA RESULT:      -5.8      1.927      7.550
REMARK  11 active torsions:
REMARK  status: ('A' for Active; 'I' for Inactive)
REMARK    1  A    between atoms: CAB_1  and  CAR_2 
REMARK    2  A    between atoms: CAR_2  and  CAC_3 
REMARK    3  A    between atoms: CAG_4  and  CAN_5 
REMARK    4  A    between atoms: CAN_5  and  CAX_6 
REMARK    5  A    between atoms: CAW_7  and  OAQ_9 
REMARK    6  A    between atoms: OAQ_9  and  CAA_10 
REMARK    7  A    between atoms: CAU_11  and  OAF_12 
REMARK    8  A    between atoms: CAY_13  and  CAS_14 
REMARK    9  A    between atoms: CAV_17  and  CAP_18 
REMARK   10  A    between atoms: CAP_18  and  CAO_19 
REMARK   11  A    between atoms: CAO_19  and  CAT_20 
ROOT
ATOM      1  CAX YFE d          16.522  26.084  49.824  0.00  0.00     0.013 A 
ATOM      2  CAW YFE d          15.295  25.509  50.160  0.00  0.00     0.078 A 
ATOM      3  CAM YFE d          15.055  24.142  50.013  0.00  0.00    -0.043 A 
ATOM      4  CAU YFE d          17.492  25.223  49.311  0.00  0.00     0.092 A 
ATOM      5  CAY YFE d          17.268  23.853  49.160  0.00  0.00     0.080 A 
ATOM      6  CAV YFE d          16.024  23.296  49.497  0.00  0.00    -0.035 A 
ATOM      7  H10 YFE d          14.094  23.735  50.307  0.00  0.00     0.088 H 
ENDROOT
BRANCH   6   8
ATOM      8  CAP YFE d          15.640  21.809  49.402  0.00  0.00    -0.036 C 
ATOM      9  H15 YFE d          14.911  21.589  50.197  0.00  0.00     0.040 H 
ATOM     10  H16 YFE d          16.547  21.206  49.560  0.00  0.00     0.040 H 
BRANCH   8  11
ATOM     11  CAO YFE d          15.029  21.408  48.071  0.00  0.00    -0.037 C 
ATOM     12  H17 YFE d          15.300  22.161  47.316  0.00  0.00     0.040 H 
ATOM     13  H18 YFE d          13.935  21.375  48.180  0.00  0.00     0.040 H 
BRANCH  11  14
ATOM     14  CAT YFE d          15.522  20.028  47.594  0.00  0.00    -0.058 A 
ATOM     15  CAK YFE d          16.579  19.898  46.694  0.00  0.00    -0.077 A 
ATOM     16  CAI YFE d          17.009  18.632  46.280  0.00  0.00    -0.082 A 
ATOM     17  H19 YFE d          17.071  20.786  46.312  0.00  0.00     0.084 H 
ATOM     18  CAH YFE d          16.372  17.492  46.769  0.00  0.00    -0.083 A 
ATOM     19  H20 YFE d          17.834  18.538  45.583  0.00  0.00     0.083 H 
ATOM     20  CAJ YFE d          15.308  17.614  47.675  0.00  0.00    -0.082 A 
ATOM     21  H21 YFE d          16.700  16.509  46.449  0.00  0.00     0.083 H 
ATOM     22  CAL YFE d          14.889  18.881  48.079  0.00  0.00    -0.077 A 
ATOM     23  H22 YFE d          14.814  16.728  48.058  0.00  0.00     0.083 H 
ATOM     24  H23 YFE d          14.064  18.977  48.777  0.00  0.00     0.084 H 
ENDBRANCH  11  14
ENDBRANCH   8  11
ENDBRANCH   6   8
BRANCH   5  25
ATOM     25  CAS YFE d          18.408  22.990  48.585  0.00  0.00     0.212 C 
ATOM     26  OAE YFE d          18.243  22.529  47.431  0.00  0.00    -0.644 OA
ATOM     27  OAD YFE d          19.414  22.763  49.296  0.00  0.00    -0.644 OA
ENDBRANCH   5  25
BRANCH   2  28
ATOM     28  OAQ YFE d          14.293  26.295  50.643  0.00  0.00    -0.355 OA
BRANCH  28  29
ATOM     29  CAA YFE d          14.090  26.041  52.061  0.00  0.00     0.010 C 
ATOM     30  H11 YFE d          15.065  25.990  52.568  0.00  0.00     0.066 H 
ATOM     31  H12 YFE d          13.558  25.087  52.191  0.00  0.00     0.066 H 
ATOM     32  H13 YFE d          13.491  26.855  52.498  0.00  0.00     0.066 H 
ENDBRANCH  28  29
ENDBRANCH   2  28
BRANCH   4  33
ATOM     33  OAF YFE d          18.704  25.728  48.957  0.00  0.00    -0.359 OA
ATOM     34  H14 YFE d          19.153  26.044  49.732  0.00  0.00     0.217 HD
ENDBRANCH   4  33
BRANCH   1  35
ATOM     35  CAN YFE d          16.811  27.603  50.006  0.00  0.00    -0.020 C 
ATOM     36  H8  YFE d          17.710  27.878  49.436  0.00  0.00     0.046 H 
ATOM     37  H9  YFE d          15.953  28.188  49.642  0.00  0.00     0.046 H 
BRANCH  35  38
ATOM     38  CAG YFE d          17.019  27.865  51.371  0.00  0.00    -0.097 C 
ATOM     39  CAR YFE d          17.825  27.283  52.373  0.00  0.00    -0.091 C 
ATOM     40  H7  YFE d          16.427  28.704  51.737  0.00  0.00     0.077 H 
BRANCH  39  41
ATOM     41  CAB YFE d          18.782  26.102  52.128  0.00  0.00    -0.055 C 
ATOM     42  H1  YFE d          18.617  25.699  51.118  0.00  0.00     0.033 H 
ATOM     43  H2  YFE d          18.591  25.315  52.873  0.00  0.00     0.033 H 
ATOM     44  H3  YFE d          19.822  26.447  52.219  0.00  0.00     0.033 H 
ENDBRANCH  39  41
BRANCH  39  45
ATOM     45  CAC YFE d          17.781  27.872  53.803  0.00  0.00    -0.055 C 
ATOM     46  H4  YFE d          16.738  28.083  54.080  0.00  0.00     0.033 H 
ATOM     47  H5  YFE d          18.365  28.803  53.833  0.00  0.00     0.033 H 
ATOM     48  H6  YFE d          18.208  27.147  54.511  0.00  0.00     0.033 H 
ENDBRANCH  39  45
ENDBRANCH  35  38
ENDBRANCH   1  35
TORSDOF 11
ENDMDL
MODEL 10
REMARK VINA RESULT:      -5.2      2.232      3.954
REMARK  11 active torsions:
REMARK  status: ('A' for Active; 'I' for Inactive)
REMARK    1  A    between atoms: CAB_1  and  CAR_2 
REMARK    2  A    between atoms: CAR_2  and  CAC_3 
REMARK    3  A    between atoms: CAG_4  and  CAN_5 
REMARK    4  A    between atoms: CAN_5  and  CAX_6 
REMARK    5  A    between atoms: CAW_7  and  OAQ_9 
REMARK    6  A    between atoms: OAQ_9  and  CAA_10 
REMARK    7  A    between atoms: CAU_11  and  OAF_12 
REMARK    8  A    between atoms: CAY_13  and  CAS_14 
REMARK    9  A    between atoms: CAV_17  and  CAP_18 
REMARK   10  A    between atoms: CAP_18  and  CAO_19 
REMARK   11  A    between atoms: CAO_19  and  CAT_20 
ROOT
ATOM      1  CAX YFE d          16.959  23.061  49.007  0.00  0.00     0.013 A 
ATOM      2  CAW YFE d          18.336  23.276  49.085  0.00  0.00     0.078 A 
ATOM      3  CAM YFE d          18.879  24.556  49.202  0.00  0.00    -0.043 A 
ATOM      4  CAU YFE d          16.151  24.198  49.030  0.00  0.00     0.092 A 
ATOM      5  CAY YFE d          16.679  25.486  49.148  0.00  0.00     0.080 A 
ATOM      6  CAV YFE d          18.068  25.680  49.218  0.00  0.00    -0.035 A 
ATOM      7  H10 YFE d          19.954  24.674  49.281  0.00  0.00     0.088 H 
ENDROOT
BRANCH   6   8
ATOM      8  CAP YFE d          18.789  27.031  49.368  0.00  0.00    -0.036 C 
ATOM      9  H15 YFE d          18.090  27.830  49.078  0.00  0.00     0.040 H 
ATOM     10  H16 YFE d          19.655  27.038  48.689  0.00  0.00     0.040 H 
BRANCH   8  11
ATOM     11  CAO YFE d          19.286  27.318  50.773  0.00  0.00    -0.037 C 
ATOM     12  H17 YFE d          19.543  28.385  50.847  0.00  0.00     0.040 H 
ATOM     13  H18 YFE d          20.183  26.711  50.963  0.00  0.00     0.040 H 
BRANCH  11  14
ATOM     14  CAT YFE d          18.229  26.988  51.846  0.00  0.00    -0.058 A 
ATOM     15  CAK YFE d          18.348  25.873  52.673  0.00  0.00    -0.077 A 
ATOM     16  CAI YFE d          17.375  25.599  53.642  0.00  0.00    -0.082 A 
ATOM     17  H19 YFE d          19.201  25.212  52.565  0.00  0.00     0.084 H 
ATOM     18  CAH YFE d          16.276  26.446  53.776  0.00  0.00    -0.083 A 
ATOM     19  H20 YFE d          17.476  24.731  54.284  0.00  0.00     0.083 H 
ATOM     20  CAJ YFE d          16.149  27.571  52.947  0.00  0.00    -0.082 A 
ATOM     21  H21 YFE d          15.519  26.236  54.523  0.00  0.00     0.083 H 
ATOM     22  CAL YFE d          17.125  27.833  51.986  0.00  0.00    -0.077 A 
ATOM     23  H22 YFE d          15.297  28.232  53.053  0.00  0.00     0.083 H 
ATOM     24  H23 YFE d          17.027  28.700  51.343  0.00  0.00     0.084 H 
ENDBRANCH  11  14
ENDBRANCH   8  11
ENDBRANCH   6   8
BRANCH   5  25
ATOM     25  CAS YFE d          15.697  26.675  49.165  0.00  0.00     0.212 C 
ATOM     26  OAE YFE d          14.659  26.543  49.854  0.00  0.00    -0.644 OA
ATOM     27  OAD YFE d          15.960  27.686  48.474  0.00  0.00    -0.644 OA
ENDBRANCH   5  25
BRANCH   2  28
ATOM     28  OAQ YFE d          19.186  22.212  49.044  0.00  0.00    -0.355 OA
BRANCH  28  29
ATOM     29  CAA YFE d          19.910  22.192  47.782  0.00  0.00     0.010 C 
ATOM     30  H11 YFE d          20.083  21.150  47.475  0.00  0.00     0.066 H 
ATOM     31  H12 YFE d          20.876  22.704  47.905  0.00  0.00     0.066 H 
ATOM     32  H13 YFE d          19.318  22.708  47.011  0.00  0.00     0.066 H 
ENDBRANCH  28  29
ENDBRANCH   2  28
BRANCH   4  33
ATOM     33  OAF YFE d          14.801  24.053  48.947  0.00  0.00    -0.359 OA
ATOM     34  H14 YFE d          14.507  23.446  49.616  0.00  0.00     0.217 HD
ENDBRANCH   4  33
BRANCH   1  35
ATOM     35  CAN YFE d          16.339  21.638  48.901  0.00  0.00    -0.020 C 
ATOM     36  H8  YFE d          16.644  21.036  49.770  0.00  0.00     0.046 H 
ATOM     37  H9  YFE d          15.242  21.714  48.876  0.00  0.00     0.046 H 
BRANCH  35  38
ATOM     38  CAG YFE d          16.798  21.029  47.720  0.00  0.00    -0.097 C 
ATOM     39  CAR YFE d          16.313  19.992  46.895  0.00  0.00    -0.091 C 
ATOM     40  H7  YFE d          17.737  21.452  47.362  0.00  0.00     0.077 H 
BRANCH  39  41
ATOM     41  CAB YFE d          14.994  19.238  47.147  0.00  0.00    -0.055 C 
ATOM     42  H1  YFE d          14.378  19.806  47.860  0.00  0.00     0.033 H 
ATOM     43  H2  YFE d          15.214  18.243  47.563  0.00  0.00     0.033 H 
ATOM     44  H3  YFE d          14.448  19.126  46.199  0.00  0.00     0.033 H 
ENDBRANCH  39  41
BRANCH  39  45
ATOM     45  CAC YFE d          17.125  19.594  45.640  0.00  0.00    -0.055 C 
ATOM     46  H4  YFE d          18.198  19.608  45.878  0.00  0.00     0.033 H 
ATOM     47  H5  YFE d          16.919  20.309  44.829  0.00  0.00     0.033 H 
ATOM     48  H6  YFE d          16.834  18.583  45.321  0.00  0.00     0.033 H 
ENDBRANCH  39  45
ENDBRANCH  35  38
ENDBRANCH   1  35
TORSDOF 11
ENDMDL
