REMARK  8 active torsions:
REMARK  status: ('A' for Active; 'I' for Inactive)
REMARK    1  A    between atoms: C2_2  and  C6_6 
REMARK    2  A    between atoms: C3_3  and  O20_16 
REMARK    3  A    between atoms: C5_5  and  C9_9 
REMARK    4  A    between atoms: C11_11  and  N29_21 
REMARK    5  A    between atoms: O20_16  and  C21_17 
REMARK    6  A    between atoms: C21_17  and  C22_18 
REMARK    7  A    between atoms: N29_21  and  C30_22 
REMARK    8  A    between atoms: C30_22  and  C31_23 
ROOT
ATOM      1  C9  MOL d          46.201  11.887   1.026  0.00  0.00    -0.015 A 
ATOM      2  C10 MOL d          47.518  11.315   1.060  0.00  0.00    -0.046 A 
ATOM      3  C11 MOL d          47.737   9.983   0.601  0.00  0.00     0.029 A 
ATOM      4  C12 MOL d          46.629   9.203   0.097  0.00  0.00    -0.058 A 
ATOM      5  C13 MOL d          45.310   9.766   0.056  0.00  0.00    -0.080 A 
ATOM      6  C14 MOL d          45.108  11.105   0.524  0.00  0.00    -0.072 A 
ATOM      7  H1  MOL d          48.350  11.899   1.437  0.00  0.00     0.088 H 
ATOM      8  H2  MOL d          46.795   8.190  -0.251  0.00  0.00     0.086 H 
ATOM      9  H3  MOL d          44.477   9.186  -0.324  0.00  0.00     0.083 H 
ATOM     10  H4  MOL d          44.113  11.534   0.498  0.00  0.00     0.084 H 
ENDROOT
BRANCH   1  11
ATOM     11  C5  MOL d          45.945  13.282   1.509  0.00  0.00     0.036 A 
ATOM     12  S1  MOL d          44.924  14.323   0.664  0.00  0.00    -0.078 SA
ATOM     13  C2  MOL d          45.096  15.646   1.730  0.00  0.00     0.117 A 
ATOM     14  C3  MOL d          45.970  15.289   2.791  0.00  0.00     0.112 A 
ATOM     15  C4  MOL d          46.444  13.956   2.653  0.00  0.00     0.064 A 
ATOM     16 BR19 MOL d          47.632  13.187   3.913  0.00  0.00    -0.047 Br
BRANCH  13  17
ATOM     17  C6  MOL d          44.414  16.859   1.485  0.00  0.00     0.219 C 
ATOM     18  O7  MOL d          44.447  17.780   2.299  0.00  0.00    -0.643 OA
ATOM     19  O8  MOL d          43.789  16.957   0.424  0.00  0.00    -0.643 OA
ENDBRANCH  13  17
BRANCH  14  20
ATOM     20  O20 MOL d          46.366  16.114   3.900  0.00  0.00    -0.338 OA
BRANCH  20  21
ATOM     21  C21 MOL d          47.582  16.846   3.710  0.00  0.00     0.106 C 
ATOM     22  H5  MOL d          47.449  17.570   2.892  0.00  0.00     0.091 H 
ATOM     23  H6  MOL d          48.392  16.148   3.454  0.00  0.00     0.091 H 
BRANCH  21  24
ATOM     24  C22 MOL d          47.942  17.592   4.994  0.00  0.00     0.198 C 
ATOM     25  O25 MOL d          47.163  17.543   5.963  0.00  0.00    -0.646 OA
ATOM     26  O26 MOL d          49.003  18.222   5.027  0.00  0.00    -0.646 OA
ENDBRANCH  21  24
ENDBRANCH  20  21
ENDBRANCH  14  20
ENDBRANCH   1  11
BRANCH   3  27
ATOM     27  N29 MOL d          49.032   9.500   0.669  0.00  0.00    -0.386 N 
ATOM     28  H7  MOL d          49.797  10.188   0.620  0.00  0.00     0.160 HD
BRANCH  27  29
ATOM     29  C30 MOL d          49.404   8.082   0.806  0.00  0.00     0.016 C 
ATOM     30  H8  MOL d          50.399   7.937   0.360  0.00  0.00     0.071 H 
ATOM     31  H9  MOL d          48.666   7.473   0.263  0.00  0.00     0.071 H 
BRANCH  29  32
ATOM     32  C31 MOL d          49.449   7.612   2.245  0.00  0.00    -0.041 A 
ATOM     33  C34 MOL d          48.233   7.195   2.895  0.00  0.00    -0.075 A 
ATOM     34  C35 MOL d          48.268   6.745   4.253  0.00  0.00    -0.082 A 
ATOM     35  H10 MOL d          47.293   7.222   2.356  0.00  0.00     0.084 H 
ATOM     36  C36 MOL d          49.526   6.719   4.944  0.00  0.00    -0.083 A 
ATOM     37  H11 MOL d          47.359   6.429   4.752  0.00  0.00     0.083 H 
ATOM     38  C37 MOL d          50.746   7.135   4.300  0.00  0.00    -0.082 A 
ATOM     39  H12 MOL d          49.559   6.379   5.973  0.00  0.00     0.083 H 
ATOM     40  C38 MOL d          50.706   7.585   2.937  0.00  0.00    -0.075 A 
ATOM     41  H13 MOL d          51.686   7.109   4.840  0.00  0.00     0.083 H 
ATOM     42  H14 MOL d          51.614   7.901   2.437  0.00  0.00     0.084 H 
ENDBRANCH  29  32
ENDBRANCH  27  29
ENDBRANCH   3  27
TORSDOF 8
