MODEL 1
REMARK VINA RESULT:      -7.0      0.000      0.000
REMARK  8 active torsions:
REMARK  status: ('A' for Active; 'I' for Inactive)
REMARK    1  A    between atoms: C2_2  and  C6_6 
REMARK    2  A    between atoms: C3_3  and  O20_16 
REMARK    3  A    between atoms: C5_5  and  C9_9 
REMARK    4  A    between atoms: C11_11  and  N29_21 
REMARK    5  A    between atoms: O20_16  and  C21_17 
REMARK    6  A    between atoms: C21_17  and  C22_18 
REMARK    7  A    between atoms: N29_21  and  C30_22 
REMARK    8  A    between atoms: C30_22  and  C31_23 
ROOT
ATOM      1  C9  MOL d          45.993  11.517   0.438  0.00  0.00    -0.015 A 
ATOM      2  C10 MOL d          47.325  11.043   0.186  0.00  0.00    -0.046 A 
ATOM      3  C11 MOL d          47.537   9.737  -0.346  0.00  0.00     0.029 A 
ATOM      4  C12 MOL d          46.405   8.885  -0.635  0.00  0.00    -0.058 A 
ATOM      5  C13 MOL d          45.070   9.349  -0.390  0.00  0.00    -0.080 A 
ATOM      6  C14 MOL d          44.877  10.663   0.148  0.00  0.00    -0.072 A 
ATOM      7  H1  MOL d          48.174  11.681   0.402  0.00  0.00     0.088 H 
ATOM      8  H2  MOL d          46.566   7.891  -1.038  0.00  0.00     0.086 H 
ATOM      9  H3  MOL d          44.219   8.715  -0.608  0.00  0.00     0.083 H 
ATOM     10  H4  MOL d          43.870  11.018   0.338  0.00  0.00     0.084 H 
ENDROOT
BRANCH   1  11
ATOM     11  C5  MOL d          45.746  12.882   1.003  0.00  0.00     0.036 A 
ATOM     12  S1  MOL d          44.809  14.012   0.173  0.00  0.00    -0.078 SA
ATOM     13  C2  MOL d          44.950  15.251   1.339  0.00  0.00     0.117 A 
ATOM     14  C3  MOL d          45.746  14.794   2.424  0.00  0.00     0.112 A 
ATOM     15  C4  MOL d          46.190  13.459   2.220  0.00  0.00     0.064 A 
ATOM     16 BR19 MOL d          47.275  12.567   3.492  0.00  0.00    -0.047 Br
BRANCH  13  17
ATOM     17  C6  MOL d          44.319  16.500   1.140  0.00  0.00     0.219 C 
ATOM     18  O7  MOL d          44.304  17.351   2.028  0.00  0.00    -0.643 OA
ATOM     19  O8  MOL d          43.788  16.701   0.043  0.00  0.00    -0.643 OA
ENDBRANCH  13  17
BRANCH  14  20
ATOM     20  O20 MOL d          46.094  15.527   3.611  0.00  0.00    -0.338 OA
BRANCH  20  21
ATOM     21  C21 MOL d          47.496  15.743   3.803  0.00  0.00     0.106 C 
ATOM     22  H5  MOL d          47.972  15.940   2.831  0.00  0.00     0.091 H 
ATOM     23  H6  MOL d          47.945  14.847   4.257  0.00  0.00     0.091 H 
BRANCH  21  24
ATOM     24  C22 MOL d          47.712  16.941   4.726  0.00  0.00     0.198 C 
ATOM     25  O25 MOL d          46.776  17.328   5.448  0.00  0.00    -0.646 OA
ATOM     26  O26 MOL d          48.819  17.489   4.724  0.00  0.00    -0.646 OA
ENDBRANCH  21  24
ENDBRANCH  20  21
ENDBRANCH  14  20
ENDBRANCH   1  11
BRANCH   3  27
ATOM     27  N29 MOL d          48.848   9.350  -0.557  0.00  0.00    -0.386 N 
ATOM     28  H7  MOL d          49.488  10.047  -0.963  0.00  0.00     0.160 HD
BRANCH  27  29
ATOM     29  C30 MOL d          49.402   8.021  -0.249  0.00  0.00     0.016 C 
ATOM     30  H8  MOL d          50.400   7.944  -0.705  0.00  0.00     0.071 H 
ATOM     31  H9  MOL d          48.740   7.257  -0.682  0.00  0.00     0.071 H 
BRANCH  29  32
ATOM     32  C31 MOL d          49.531   7.757   1.237  0.00  0.00    -0.041 A 
ATOM     33  C34 MOL d          48.352   7.471   2.013  0.00  0.00    -0.075 A 
ATOM     34  C35 MOL d          48.466   7.216   3.417  0.00  0.00    -0.082 A 
ATOM     35  H10 MOL d          47.380   7.450   1.535  0.00  0.00     0.084 H 
ATOM     36  C36 MOL d          49.766   7.251   4.026  0.00  0.00    -0.083 A 
ATOM     37  H11 MOL d          47.586   7.000   4.011  0.00  0.00     0.083 H 
ATOM     38  C37 MOL d          50.949   7.537   3.255  0.00  0.00    -0.082 A 
ATOM     39  H12 MOL d          49.859   7.059   5.089  0.00  0.00     0.083 H 
ATOM     40  C38 MOL d          50.830   7.791   1.847  0.00  0.00    -0.075 A 
ATOM     41  H13 MOL d          51.922   7.560   3.734  0.00  0.00     0.083 H 
ATOM     42  H14 MOL d          51.710   8.007   1.252  0.00  0.00     0.084 H 
ENDBRANCH  29  32
ENDBRANCH  27  29
ENDBRANCH   3  27
TORSDOF 8
ENDMDL
MODEL 2
REMARK VINA RESULT:      -6.6      1.465      2.068
REMARK  8 active torsions:
REMARK  status: ('A' for Active; 'I' for Inactive)
REMARK    1  A    between atoms: C2_2  and  C6_6 
REMARK    2  A    between atoms: C3_3  and  O20_16 
REMARK    3  A    between atoms: C5_5  and  C9_9 
REMARK    4  A    between atoms: C11_11  and  N29_21 
REMARK    5  A    between atoms: O20_16  and  C21_17 
REMARK    6  A    between atoms: C21_17  and  C22_18 
REMARK    7  A    between atoms: N29_21  and  C30_22 
REMARK    8  A    between atoms: C30_22  and  C31_23 
ROOT
ATOM      1  C9  MOL d          47.167  11.862   0.741  0.00  0.00    -0.015 A 
ATOM      2  C10 MOL d          46.799  10.582   1.279  0.00  0.00    -0.046 A 
ATOM      3  C11 MOL d          47.552   9.417   0.948  0.00  0.00     0.029 A 
ATOM      4  C12 MOL d          48.694   9.524   0.068  0.00  0.00    -0.058 A 
ATOM      5  C13 MOL d          49.072  10.798  -0.472  0.00  0.00    -0.080 A 
ATOM      6  C14 MOL d          48.302  11.957  -0.131  0.00  0.00    -0.072 A 
ATOM      7  H1  MOL d          45.943  10.501   1.940  0.00  0.00     0.088 H 
ATOM      8  H2  MOL d          49.266   8.638  -0.184  0.00  0.00     0.086 H 
ATOM      9  H3  MOL d          49.930  10.882  -1.130  0.00  0.00     0.083 H 
ATOM     10  H4  MOL d          48.582  12.921  -0.539  0.00  0.00     0.084 H 
ENDROOT
BRANCH   1  11
ATOM     11  C5  MOL d          46.387  13.098   1.069  0.00  0.00     0.036 A 
ATOM     12  S1  MOL d          45.329  13.782  -0.050  0.00  0.00    -0.078 SA
ATOM     13  C2  MOL d          44.826  15.074   0.947  0.00  0.00     0.117 A 
ATOM     14  C3  MOL d          45.487  14.990   2.201  0.00  0.00     0.112 A 
ATOM     15  C4  MOL d          46.366  13.874   2.256  0.00  0.00     0.064 A 
ATOM     16 BR19 MOL d          47.396  13.493   3.800  0.00  0.00    -0.047 Br
BRANCH  13  17
ATOM     17  C6  MOL d          43.883  16.017   0.479  0.00  0.00     0.219 C 
ATOM     18  O7  MOL d          43.517  16.019  -0.695  0.00  0.00    -0.643 OA
ATOM     19  O8  MOL d          43.442  16.834   1.294  0.00  0.00    -0.643 OA
ENDBRANCH  13  17
BRANCH  14  20
ATOM     20  O20 MOL d          45.333  15.878   3.321  0.00  0.00    -0.338 OA
BRANCH  20  21
ATOM     21  C21 MOL d          45.996  17.140   3.193  0.00  0.00     0.106 C 
ATOM     22  H5  MOL d          45.259  17.952   3.283  0.00  0.00     0.091 H 
ATOM     23  H6  MOL d          46.485  17.197   2.209  0.00  0.00     0.091 H 
BRANCH  21  24
ATOM     24  C22 MOL d          47.048  17.286   4.291  0.00  0.00     0.198 C 
ATOM     25  O25 MOL d          46.678  17.490   5.462  0.00  0.00    -0.646 OA
ATOM     26  O26 MOL d          48.238  17.194   3.978  0.00  0.00    -0.646 OA
ENDBRANCH  21  24
ENDBRANCH  20  21
ENDBRANCH  14  20
ENDBRANCH   1  11
BRANCH   3  27
ATOM     27  N29 MOL d          47.133   8.220   1.502  0.00  0.00    -0.386 N 
ATOM     28  H7  MOL d          46.225   8.215   1.987  0.00  0.00     0.160 HD
BRANCH  27  29
ATOM     29  C30 MOL d          47.882   6.953   1.453  0.00  0.00     0.016 C 
ATOM     30  H8  MOL d          48.612   7.010   0.632  0.00  0.00     0.071 H 
ATOM     31  H9  MOL d          47.173   6.135   1.257  0.00  0.00     0.071 H 
BRANCH  29  32
ATOM     32  C31 MOL d          48.625   6.648   2.736  0.00  0.00    -0.041 A 
ATOM     33  C34 MOL d          49.816   5.839   2.693  0.00  0.00    -0.075 A 
ATOM     34  C35 MOL d          50.527   5.550   3.901  0.00  0.00    -0.082 A 
ATOM     35  H10 MOL d          50.174   5.450   1.747  0.00  0.00     0.084 H 
ATOM     36  C36 MOL d          50.032   6.077   5.141  0.00  0.00    -0.083 A 
ATOM     37  H11 MOL d          51.424   4.942   3.880  0.00  0.00     0.083 H 
ATOM     38  C37 MOL d          48.841   6.886   5.192  0.00  0.00    -0.082 A 
ATOM     39  H12 MOL d          50.565   5.861   6.060  0.00  0.00     0.083 H 
ATOM     40  C38 MOL d          48.132   7.174   3.977  0.00  0.00    -0.075 A 
ATOM     41  H13 MOL d          48.482   7.274   6.139  0.00  0.00     0.083 H 
ATOM     42  H14 MOL d          47.234   7.782   3.997  0.00  0.00     0.084 H 
ENDBRANCH  29  32
ENDBRANCH  27  29
ENDBRANCH   3  27
TORSDOF 8
ENDMDL
MODEL 3
REMARK VINA RESULT:      -6.6      2.135      3.722
REMARK  8 active torsions:
REMARK  status: ('A' for Active; 'I' for Inactive)
REMARK    1  A    between atoms: C2_2  and  C6_6 
REMARK    2  A    between atoms: C3_3  and  O20_16 
REMARK    3  A    between atoms: C5_5  and  C9_9 
REMARK    4  A    between atoms: C11_11  and  N29_21 
REMARK    5  A    between atoms: O20_16  and  C21_17 
REMARK    6  A    between atoms: C21_17  and  C22_18 
REMARK    7  A    between atoms: N29_21  and  C30_22 
REMARK    8  A    between atoms: C30_22  and  C31_23 
ROOT
ATOM      1  C9  MOL d          47.692  11.998   1.643  0.00  0.00    -0.015 A 
ATOM      2  C10 MOL d          47.507  10.663   2.141  0.00  0.00    -0.046 A 
ATOM      3  C11 MOL d          48.283   9.586   1.621  0.00  0.00     0.029 A 
ATOM      4  C12 MOL d          49.264   9.837   0.589  0.00  0.00    -0.058 A 
ATOM      5  C13 MOL d          49.459  11.167   0.087  0.00  0.00    -0.080 A 
ATOM      6  C14 MOL d          48.668  12.236   0.619  0.00  0.00    -0.072 A 
ATOM      7  H1  MOL d          46.772  10.474   2.915  0.00  0.00     0.088 H 
ATOM      8  H2  MOL d          49.853   9.018   0.193  0.00  0.00     0.086 H 
ATOM      9  H3  MOL d          50.195  11.360  -0.685  0.00  0.00     0.083 H 
ATOM     10  H4  MOL d          48.809  13.242   0.241  0.00  0.00     0.084 H 
ENDROOT
BRANCH   1  11
ATOM     11  C5  MOL d          46.884  13.144   2.169  0.00  0.00     0.036 A 
ATOM     12  S1  MOL d          47.379  14.009   3.527  0.00  0.00    -0.078 SA
ATOM     13  C2  MOL d          46.061  15.095   3.539  0.00  0.00     0.117 A 
ATOM     14  C3  MOL d          45.193  14.797   2.455  0.00  0.00     0.112 A 
ATOM     15  C4  MOL d          45.666  13.694   1.693  0.00  0.00     0.064 A 
ATOM     16 BR19 MOL d          44.723  13.053   0.180  0.00  0.00    -0.047 Br
BRANCH  13  17
ATOM     17  C6  MOL d          45.965  16.098   4.529  0.00  0.00     0.219 C 
ATOM     18  O7  MOL d          46.900  16.867   4.744  0.00  0.00    -0.643 OA
ATOM     19  O8  MOL d          44.909  16.173   5.165  0.00  0.00    -0.643 OA
ENDBRANCH  13  17
BRANCH  14  20
ATOM     20  O20 MOL d          43.978  15.483   2.107  0.00  0.00    -0.338 OA
BRANCH  20  21
ATOM     21  C21 MOL d          44.155  16.792   1.554  0.00  0.00     0.106 C 
ATOM     22  H5  MOL d          45.085  17.231   1.945  0.00  0.00     0.091 H 
ATOM     23  H6  MOL d          43.303  17.426   1.838  0.00  0.00     0.091 H 
BRANCH  21  24
ATOM     24  C22 MOL d          44.237  16.703   0.031  0.00  0.00     0.198 C 
ATOM     25  O25 MOL d          45.112  17.353  -0.569  0.00  0.00    -0.646 OA
ATOM     26  O26 MOL d          43.425  15.983  -0.558  0.00  0.00    -0.646 OA
ENDBRANCH  21  24
ENDBRANCH  20  21
ENDBRANCH  14  20
ENDBRANCH   1  11
BRANCH   3  27
ATOM     27  N29 MOL d          48.044   8.329   2.147  0.00  0.00    -0.386 N 
ATOM     28  H7  MOL d          47.755   7.588   1.492  0.00  0.00     0.160 HD
BRANCH  27  29
ATOM     29  C30 MOL d          48.171   7.964   3.568  0.00  0.00     0.016 C 
ATOM     30  H8  MOL d          47.271   7.407   3.867  0.00  0.00     0.071 H 
ATOM     31  H9  MOL d          48.244   8.888   4.161  0.00  0.00     0.071 H 
BRANCH  29  32
ATOM     32  C31 MOL d          49.385   7.108   3.860  0.00  0.00    -0.041 A 
ATOM     33  C34 MOL d          49.453   6.367   5.093  0.00  0.00    -0.075 A 
ATOM     34  C35 MOL d          50.595   5.552   5.374  0.00  0.00    -0.082 A 
ATOM     35  H10 MOL d          48.640   6.426   5.807  0.00  0.00     0.084 H 
ATOM     36  C36 MOL d          51.659   5.490   4.411  0.00  0.00    -0.083 A 
ATOM     37  H11 MOL d          50.657   4.990   6.299  0.00  0.00     0.083 H 
ATOM     38  C37 MOL d          51.598   6.229   3.176  0.00  0.00    -0.082 A 
ATOM     39  H12 MOL d          52.527   4.874   4.618  0.00  0.00     0.083 H 
ATOM     40  C38 MOL d          50.449   7.045   2.898  0.00  0.00    -0.075 A 
ATOM     41  H13 MOL d          52.412   6.170   2.462  0.00  0.00     0.083 H 
ATOM     42  H14 MOL d          50.386   7.607   1.974  0.00  0.00     0.084 H 
ENDBRANCH  29  32
ENDBRANCH  27  29
ENDBRANCH   3  27
TORSDOF 8
ENDMDL
MODEL 4
REMARK VINA RESULT:      -5.1      1.830      2.971
REMARK  8 active torsions:
REMARK  status: ('A' for Active; 'I' for Inactive)
REMARK    1  A    between atoms: C2_2  and  C6_6 
REMARK    2  A    between atoms: C3_3  and  O20_16 
REMARK    3  A    between atoms: C5_5  and  C9_9 
REMARK    4  A    between atoms: C11_11  and  N29_21 
REMARK    5  A    between atoms: O20_16  and  C21_17 
REMARK    6  A    between atoms: C21_17  and  C22_18 
REMARK    7  A    between atoms: N29_21  and  C30_22 
REMARK    8  A    between atoms: C30_22  and  C31_23 
ROOT
ATOM      1  C9  MOL d          45.970  11.695   1.125  0.00  0.00    -0.015 A 
ATOM      2  C10 MOL d          46.901  10.604   1.213  0.00  0.00    -0.046 A 
ATOM      3  C11 MOL d          46.605   9.354   0.595  0.00  0.00     0.029 A 
ATOM      4  C12 MOL d          45.363   9.181  -0.125  0.00  0.00    -0.058 A 
ATOM      5  C13 MOL d          44.428  10.265  -0.221  0.00  0.00    -0.080 A 
ATOM      6  C14 MOL d          44.741  11.514   0.408  0.00  0.00    -0.072 A 
ATOM      7  H1  MOL d          47.832  10.732   1.752  0.00  0.00     0.088 H 
ATOM      8  H2  MOL d          45.138   8.230  -0.594  0.00  0.00     0.086 H 
ATOM      9  H3  MOL d          43.498  10.142  -0.763  0.00  0.00     0.083 H 
ATOM     10  H4  MOL d          44.037  12.335   0.341  0.00  0.00     0.084 H 
ENDROOT
BRANCH   1  11
ATOM     11  C5  MOL d          46.256  13.016   1.772  0.00  0.00     0.036 A 
ATOM     12  S1  MOL d          47.271  13.129   3.112  0.00  0.00    -0.078 SA
ATOM     13  C2  MOL d          47.141  14.822   3.293  0.00  0.00     0.117 A 
ATOM     14  C3  MOL d          46.286  15.342   2.284  0.00  0.00     0.112 A 
ATOM     15  C4  MOL d          45.792  14.314   1.436  0.00  0.00     0.064 A 
ATOM     16 BR19 MOL d          44.622  14.691  -0.006  0.00  0.00    -0.047 Br
BRANCH  13  17
ATOM     17  C6  MOL d          47.833  15.489   4.328  0.00  0.00     0.219 C 
ATOM     18  O7  MOL d          48.716  16.307   4.075  0.00  0.00    -0.643 OA
ATOM     19  O8  MOL d          47.515  15.220   5.491  0.00  0.00    -0.643 OA
ENDBRANCH  13  17
BRANCH  14  20
ATOM     20  O20 MOL d          45.927  16.719   2.081  0.00  0.00    -0.338 OA
BRANCH  20  21
ATOM     21  C21 MOL d          45.738  17.481   3.278  0.00  0.00     0.106 C 
ATOM     22  H5  MOL d          45.473  18.516   3.014  0.00  0.00     0.091 H 
ATOM     23  H6  MOL d          46.669  17.479   3.863  0.00  0.00     0.091 H 
BRANCH  21  24
ATOM     24  C22 MOL d          44.614  16.867   4.110  0.00  0.00     0.198 C 
ATOM     25  O25 MOL d          43.878  16.006   3.595  0.00  0.00    -0.646 OA
ATOM     26  O26 MOL d          44.474  17.247   5.277  0.00  0.00    -0.646 OA
ENDBRANCH  21  24
ENDBRANCH  20  21
ENDBRANCH  14  20
ENDBRANCH   1  11
BRANCH   3  27
ATOM     27  N29 MOL d          47.548   8.349   0.726  0.00  0.00    -0.386 N 
ATOM     28  H7  MOL d          48.323   8.337   0.048  0.00  0.00     0.160 HD
BRANCH  27  29
ATOM     29  C30 MOL d          47.532   7.298   1.757  0.00  0.00     0.016 C 
ATOM     30  H8  MOL d          47.351   6.330   1.266  0.00  0.00     0.071 H 
ATOM     31  H9  MOL d          46.713   7.511   2.460  0.00  0.00     0.071 H 
BRANCH  29  32
ATOM     32  C31 MOL d          48.826   7.207   2.539  0.00  0.00    -0.041 A 
ATOM     33  C34 MOL d          50.081   7.413   1.862  0.00  0.00    -0.075 A 
ATOM     34  C35 MOL d          51.307   7.333   2.595  0.00  0.00    -0.082 A 
ATOM     35  H10 MOL d          50.096   7.627   0.800  0.00  0.00     0.084 H 
ATOM     36  C36 MOL d          51.259   7.048   4.001  0.00  0.00    -0.083 A 
ATOM     37  H11 MOL d          52.258   7.486   2.096  0.00  0.00     0.083 H 
ATOM     38  C37 MOL d          50.008   6.841   4.684  0.00  0.00    -0.082 A 
ATOM     39  H12 MOL d          52.185   6.986   4.562  0.00  0.00     0.083 H 
ATOM     40  C38 MOL d          48.779   6.922   3.944  0.00  0.00    -0.075 A 
ATOM     41  H13 MOL d          49.993   6.625   5.746  0.00  0.00     0.083 H 
ATOM     42  H14 MOL d          47.829   6.770   4.442  0.00  0.00     0.084 H 
ENDBRANCH  29  32
ENDBRANCH  27  29
ENDBRANCH   3  27
TORSDOF 8
ENDMDL
MODEL 5
REMARK VINA RESULT:      -5.1      1.622      2.250
REMARK  8 active torsions:
REMARK  status: ('A' for Active; 'I' for Inactive)
REMARK    1  A    between atoms: C2_2  and  C6_6 
REMARK    2  A    between atoms: C3_3  and  O20_16 
REMARK    3  A    between atoms: C5_5  and  C9_9 
REMARK    4  A    between atoms: C11_11  and  N29_21 
REMARK    5  A    between atoms: O20_16  and  C21_17 
REMARK    6  A    between atoms: C21_17  and  C22_18 
REMARK    7  A    between atoms: N29_21  and  C30_22 
REMARK    8  A    between atoms: C30_22  and  C31_23 
ROOT
ATOM      1  C9  MOL d          47.905  11.279  -0.084  0.00  0.00    -0.015 A 
ATOM      2  C10 MOL d          47.461   9.915  -0.157  0.00  0.00    -0.046 A 
ATOM      3  C11 MOL d          48.370   8.880  -0.524  0.00  0.00     0.029 A 
ATOM      4  C12 MOL d          49.747   9.203  -0.824  0.00  0.00    -0.058 A 
ATOM      5  C13 MOL d          50.201  10.562  -0.752  0.00  0.00    -0.080 A 
ATOM      6  C14 MOL d          49.273  11.589  -0.384  0.00  0.00    -0.072 A 
ATOM      7  H1  MOL d          46.429   9.671   0.069  0.00  0.00     0.088 H 
ATOM      8  H2  MOL d          50.438   8.416  -1.104  0.00  0.00     0.086 H 
ATOM      9  H3  MOL d          51.233  10.808  -0.973  0.00  0.00     0.083 H 
ATOM     10  H4  MOL d          49.611  12.618  -0.330  0.00  0.00     0.084 H 
ENDROOT
BRANCH   1  11
ATOM     11  C5  MOL d          46.967  12.384   0.293  0.00  0.00     0.036 A 
ATOM     12  S1  MOL d          46.177  13.296  -0.883  0.00  0.00    -0.078 SA
ATOM     13  C2  MOL d          45.329  14.300   0.208  0.00  0.00     0.117 A 
ATOM     14  C3  MOL d          45.652  13.930   1.540  0.00  0.00     0.112 A 
ATOM     15  C4  MOL d          46.578  12.852   1.575  0.00  0.00     0.064 A 
ATOM     16 BR19 MOL d          47.205  12.131   3.211  0.00  0.00    -0.047 Br
BRANCH  13  17
ATOM     17  C6  MOL d          44.463  15.309  -0.270  0.00  0.00     0.219 C 
ATOM     18  O7  MOL d          44.723  16.499  -0.101  0.00  0.00    -0.643 OA
ATOM     19  O8  MOL d          43.440  14.948  -0.862  0.00  0.00    -0.643 OA
ENDBRANCH  13  17
BRANCH  14  20
ATOM     20  O20 MOL d          45.143  14.519   2.749  0.00  0.00    -0.338 OA
BRANCH  20  21
ATOM     21  C21 MOL d          45.756  15.756   3.128  0.00  0.00     0.106 C 
ATOM     22  H5  MOL d          45.247  16.588   2.619  0.00  0.00     0.091 H 
ATOM     23  H6  MOL d          46.817  15.741   2.837  0.00  0.00     0.091 H 
BRANCH  21  24
ATOM     24  C22 MOL d          45.648  15.944   4.641  0.00  0.00     0.198 C 
ATOM     25  O25 MOL d          46.484  15.397   5.382  0.00  0.00    -0.646 OA
ATOM     26  O26 MOL d          44.727  16.640   5.079  0.00  0.00    -0.646 OA
ENDBRANCH  21  24
ENDBRANCH  20  21
ENDBRANCH  14  20
ENDBRANCH   1  11
BRANCH   3  27
ATOM     27  N29 MOL d          47.867   7.591  -0.576  0.00  0.00    -0.386 N 
ATOM     28  H7  MOL d          47.474   7.273  -1.473  0.00  0.00     0.160 HD
BRANCH  27  29
ATOM     29  C30 MOL d          47.849   6.640   0.547  0.00  0.00     0.016 C 
ATOM     30  H8  MOL d          47.997   5.626   0.149  0.00  0.00     0.071 H 
ATOM     31  H9  MOL d          46.868   6.701   1.041  0.00  0.00     0.071 H 
BRANCH  29  32
ATOM     32  C31 MOL d          48.924   6.913   1.579  0.00  0.00    -0.041 A 
ATOM     33  C34 MOL d          48.605   7.687   2.751  0.00  0.00    -0.075 A 
ATOM     34  C35 MOL d          49.614   7.945   3.732  0.00  0.00    -0.082 A 
ATOM     35  H10 MOL d          47.602   8.074   2.888  0.00  0.00     0.084 H 
ATOM     36  C36 MOL d          50.934   7.421   3.525  0.00  0.00    -0.083 A 
ATOM     37  H11 MOL d          49.385   8.527   4.618  0.00  0.00     0.083 H 
ATOM     38  C37 MOL d          51.260   6.646   2.356  0.00  0.00    -0.082 A 
ATOM     39  H12 MOL d          51.703   7.613   4.266  0.00  0.00     0.083 H 
ATOM     40  C38 MOL d          50.245   6.389   1.374  0.00  0.00    -0.075 A 
ATOM     41  H13 MOL d          52.264   6.260   2.218  0.00  0.00     0.083 H 
ATOM     42  H14 MOL d          50.472   5.807   0.488  0.00  0.00     0.084 H 
ENDBRANCH  29  32
ENDBRANCH  27  29
ENDBRANCH   3  27
TORSDOF 8
ENDMDL
