REMARK  6 active torsions:
REMARK  status: ('A' for Active; 'I' for Inactive)
REMARK    1  A    between atoms: OAE_1  and  CAK_2 
REMARK    2  A    between atoms: CAJ_3  and  OAD_4 
REMARK    3  A    between atoms: CAI_5  and  OAC_6 
REMARK    4  A    between atoms: CAH_7  and  CAA_8 
REMARK    5  A    between atoms: CAL_10  and  CAF_11 
REMARK    6  A    between atoms: CAF_11  and  NAB_12 
ROOT
ATOM      1  CAK ZWZ d          -1.752  26.487  24.509  0.00  0.00     0.091 C 
ATOM      2  CAJ ZWZ d          -1.567  27.675  23.563  0.00  0.00     0.089 C 
ATOM      3  CAI ZWZ d          -0.077  28.009  23.514  0.00  0.00     0.089 C 
ATOM      4  CAH ZWZ d           0.428  28.303  24.931  0.00  0.00     0.126 C 
ATOM      5  NAG ZWZ d           0.147  27.182  25.846  0.00  0.00    -0.060 N 
ATOM      6  CAL ZWZ d          -1.294  26.892  25.915  0.00  0.00     0.152 C 
ATOM      7  H2  ZWZ d          -1.124  25.653  24.162  0.00  0.00     0.090 H 
ATOM      8  H3  ZWZ d          -2.130  28.541  23.942  0.00  0.00     0.091 H 
ATOM      9  H5  ZWZ d           0.089  28.894  22.882  0.00  0.00     0.090 H 
ATOM     10  H7  ZWZ d          -0.097  29.196  25.301  0.00  0.00     0.087 H 
ATOM     11  H11 ZWZ d           0.478  27.421  26.768  0.00  0.00     0.278 HD
ATOM     12  H12 ZWZ d           0.631  26.361  25.517  0.00  0.00     0.278 HD
ATOM     13  H13 ZWZ d          -1.845  27.786  26.241  0.00  0.00     0.091 H 
ENDROOT
BRANCH   6  14
ATOM     14  CAF ZWZ d          -1.522  25.760  26.920  0.00  0.00     0.108 C 
ATOM     15  H14 ZWZ d          -0.711  25.023  26.824  0.00  0.00     0.078 H 
ATOM     16  H15 ZWZ d          -2.486  25.275  26.705  0.00  0.00     0.078 H 
BRANCH  14  17
ATOM     17  NAB ZWZ d          -1.540  26.282  28.296  0.00  0.00    -0.077 N 
ATOM     18  H16 ZWZ d          -1.691  25.523  28.942  0.00  0.00     0.274 HD
ATOM     19  H17 ZWZ d          -2.284  26.956  28.390  0.00  0.00     0.274 HD
ATOM     20  H18 ZWZ d          -0.658  26.725  28.499  0.00  0.00     0.274 HD
ENDBRANCH  14  17
ENDBRANCH   6  14
BRANCH   1  21
ATOM     21  OAE ZWZ d          -3.115  26.059  24.498  0.00  0.00    -0.391 OA
ATOM     22  H1  ZWZ d          -3.357  25.798  23.617  0.00  0.00     0.210 HD
ENDBRANCH   1  21
BRANCH   2  23
ATOM     23  OAD ZWZ d          -2.033  27.348  22.253  0.00  0.00    -0.390 OA
ATOM     24  H4  ZWZ d          -1.541  26.607  21.919  0.00  0.00     0.210 HD
ENDBRANCH   2  23
BRANCH   4  25
ATOM     25  CAA ZWZ d           1.931  28.583  24.940  0.00  0.00    -0.047 C 
ATOM     26  H8  ZWZ d           2.259  28.789  25.969  0.00  0.00     0.030 H 
ATOM     27  H9  ZWZ d           2.145  29.455  24.305  0.00  0.00     0.030 H 
ATOM     28  H10 ZWZ d           2.470  27.706  24.552  0.00  0.00     0.030 H 
ENDBRANCH   4  25
BRANCH   3  29
ATOM     29  OAC ZWZ d           0.593  26.879  22.942  0.00  0.00    -0.391 OA
ATOM     30  H6  ZWZ d           0.257  26.722  22.067  0.00  0.00     0.210 HD
ENDBRANCH   3  29
TORSDOF 6
