MODEL 1
REMARK VINA RESULT:      -7.0      0.000      0.000
REMARK  6 active torsions:
REMARK  status: ('A' for Active; 'I' for Inactive)
REMARK    1  A    between atoms: OAE_1  and  CAK_2 
REMARK    2  A    between atoms: CAJ_3  and  OAD_4 
REMARK    3  A    between atoms: CAI_5  and  OAC_6 
REMARK    4  A    between atoms: CAH_7  and  CAA_8 
REMARK    5  A    between atoms: CAL_10  and  CAF_11 
REMARK    6  A    between atoms: CAF_11  and  NAB_12 
ROOT
ATOM      1  CAK ZWZ d          -1.913  26.394  24.816  0.00  0.00     0.091 C 
ATOM      2  CAJ ZWZ d          -1.703  27.468  23.747  0.00  0.00     0.089 C 
ATOM      3  CAI ZWZ d          -0.203  27.734  23.637  0.00  0.00     0.089 C 
ATOM      4  CAH ZWZ d           0.344  28.153  25.006  0.00  0.00     0.126 C 
ATOM      5  NAG ZWZ d           0.041  27.146  26.038  0.00  0.00    -0.060 N 
ATOM      6  CAL ZWZ d          -1.409  26.924  26.163  0.00  0.00     0.152 C 
ATOM      7  H2  ZWZ d          -1.326  25.503  24.547  0.00  0.00     0.090 H 
ATOM      8  H3  ZWZ d          -2.224  28.392  24.043  0.00  0.00     0.091 H 
ATOM      9  H5  ZWZ d          -0.017  28.541  22.912  0.00  0.00     0.090 H 
ATOM     10  H7  ZWZ d          -0.137  29.101  25.289  0.00  0.00     0.087 H 
ATOM     11  H11 ZWZ d           0.401  27.466  26.924  0.00  0.00     0.278 HD
ATOM     12  H12 ZWZ d           0.485  26.276  25.788  0.00  0.00     0.278 HD
ATOM     13  H13 ZWZ d          -1.917  27.869  26.403  0.00  0.00     0.091 H 
ENDROOT
BRANCH   6  14
ATOM     14  CAF ZWZ d          -1.658  25.913  27.285  0.00  0.00     0.108 C 
ATOM     15  H14 ZWZ d          -0.792  25.239  27.363  0.00  0.00     0.078 H 
ATOM     16  H15 ZWZ d          -2.559  25.328  27.050  0.00  0.00     0.078 H 
BRANCH  14  17
ATOM     17  NAB ZWZ d          -1.851  26.601  28.572  0.00  0.00    -0.077 N 
ATOM     18  H16 ZWZ d          -1.307  27.450  28.585  0.00  0.00     0.274 HD
ATOM     19  H17 ZWZ d          -1.552  25.999  29.323  0.00  0.00     0.274 HD
ATOM     20  H18 ZWZ d          -2.826  26.826  28.690  0.00  0.00     0.274 HD
ENDBRANCH  14  17
ENDBRANCH   6  14
BRANCH   1  21
ATOM     21  OAE ZWZ d          -3.292  26.023  24.875  0.00  0.00    -0.391 OA
ATOM     22  H1  ZWZ d          -3.362  25.100  25.086  0.00  0.00     0.210 HD
ENDBRANCH   1  21
BRANCH   2  23
ATOM     23  OAD ZWZ d          -2.211  27.026  22.487  0.00  0.00    -0.390 OA
ATOM     24  H4  ZWZ d          -2.356  27.778  21.925  0.00  0.00     0.210 HD
ENDBRANCH   2  23
BRANCH   4  25
ATOM     25  CAA ZWZ d           1.857  28.371  24.958  0.00  0.00    -0.047 C 
ATOM     26  H8  ZWZ d           2.210  28.707  25.943  0.00  0.00     0.030 H 
ATOM     27  H9  ZWZ d           2.094  29.135  24.203  0.00  0.00     0.030 H 
ATOM     28  H10 ZWZ d           2.355  27.427  24.692  0.00  0.00     0.030 H 
ENDBRANCH   4  25
BRANCH   3  29
ATOM     29  OAC ZWZ d           0.410  26.524  23.174  0.00  0.00    -0.391 OA
ATOM     30  H6  ZWZ d           1.331  26.527  23.409  0.00  0.00     0.210 HD
ENDBRANCH   3  29
TORSDOF 6
ENDMDL
MODEL 2
REMARK VINA RESULT:      -4.9      1.286      3.414
REMARK  6 active torsions:
REMARK  status: ('A' for Active; 'I' for Inactive)
REMARK    1  A    between atoms: OAE_1  and  CAK_2 
REMARK    2  A    between atoms: CAJ_3  and  OAD_4 
REMARK    3  A    between atoms: CAI_5  and  OAC_6 
REMARK    4  A    between atoms: CAH_7  and  CAA_8 
REMARK    5  A    between atoms: CAL_10  and  CAF_11 
REMARK    6  A    between atoms: CAF_11  and  NAB_12 
ROOT
ATOM      1  CAK ZWZ d          -0.703  27.959  23.861  0.00  0.00     0.091 C 
ATOM      2  CAJ ZWZ d          -1.736  26.839  23.730  0.00  0.00     0.089 C 
ATOM      3  CAI ZWZ d          -2.308  26.562  25.119  0.00  0.00     0.089 C 
ATOM      4  CAH ZWZ d          -1.169  26.201  26.079  0.00  0.00     0.126 C 
ATOM      5  NAG ZWZ d          -0.137  27.253  26.110  0.00  0.00    -0.060 N 
ATOM      6  CAL ZWZ d           0.434  27.486  24.775  0.00  0.00     0.152 C 
ATOM      7  H2  ZWZ d          -1.182  28.835  24.323  0.00  0.00     0.090 H 
ATOM      8  H3  ZWZ d          -1.250  25.931  23.341  0.00  0.00     0.091 H 
ATOM      9  H5  ZWZ d          -3.019  25.724  25.073  0.00  0.00     0.090 H 
ATOM     10  H7  ZWZ d          -0.707  25.269  25.723  0.00  0.00     0.087 H 
ATOM     11  H11 ZWZ d           0.600  26.970  26.738  0.00  0.00     0.278 HD
ATOM     12  H12 ZWZ d          -0.552  28.109  26.443  0.00  0.00     0.278 HD
ATOM     13  H13 ZWZ d           0.864  26.555  24.379  0.00  0.00     0.091 H 
ENDROOT
BRANCH   6  14
ATOM     14  CAF ZWZ d           1.533  28.546  24.886  0.00  0.00     0.108 C 
ATOM     15  H14 ZWZ d           1.070  29.542  24.945  0.00  0.00     0.078 H 
ATOM     16  H15 ZWZ d           2.178  28.493  23.996  0.00  0.00     0.078 H 
BRANCH  14  17
ATOM     17  NAB ZWZ d           2.352  28.322  26.089  0.00  0.00    -0.077 N 
ATOM     18  H16 ZWZ d           2.365  27.338  26.308  0.00  0.00     0.274 HD
ATOM     19  H17 ZWZ d           1.957  28.833  26.864  0.00  0.00     0.274 HD
ATOM     20  H18 ZWZ d           3.292  28.641  25.920  0.00  0.00     0.274 HD
ENDBRANCH  14  17
ENDBRANCH   6  14
BRANCH   1  21
ATOM     21  OAE ZWZ d          -0.223  28.338  22.570  0.00  0.00    -0.391 OA
ATOM     22  H1  ZWZ d          -0.958  28.439  21.977  0.00  0.00     0.210 HD
ENDBRANCH   1  21
BRANCH   2  23
ATOM     23  OAD ZWZ d          -2.785  27.228  22.843  0.00  0.00    -0.390 OA
ATOM     24  H4  ZWZ d          -3.306  27.911  23.250  0.00  0.00     0.210 HD
ENDBRANCH   2  23
BRANCH   4  25
ATOM     25  CAA ZWZ d          -1.688  25.975  27.499  0.00  0.00    -0.047 C 
ATOM     26  H8  ZWZ d          -0.980  25.340  28.051  0.00  0.00     0.030 H 
ATOM     27  H9  ZWZ d          -2.669  25.480  27.457  0.00  0.00     0.030 H 
ATOM     28  H10 ZWZ d          -1.788  26.943  28.012  0.00  0.00     0.030 H 
ENDBRANCH   4  25
BRANCH   3  29
ATOM     29  OAC ZWZ d          -2.993  27.748  25.540  0.00  0.00    -0.391 OA
ATOM     30  H6  ZWZ d          -2.858  27.877  26.472  0.00  0.00     0.210 HD
ENDBRANCH   3  29
TORSDOF 6
ENDMDL
MODEL 3
REMARK VINA RESULT:      -4.1      1.032      1.032
REMARK  6 active torsions:
REMARK  status: ('A' for Active; 'I' for Inactive)
REMARK    1  A    between atoms: OAE_1  and  CAK_2 
REMARK    2  A    between atoms: CAJ_3  and  OAD_4 
REMARK    3  A    between atoms: CAI_5  and  OAC_6 
REMARK    4  A    between atoms: CAH_7  and  CAA_8 
REMARK    5  A    between atoms: CAL_10  and  CAF_11 
REMARK    6  A    between atoms: CAF_11  and  NAB_12 
ROOT
ATOM      1  CAK ZWZ d          -1.792  27.065  24.682  0.00  0.00     0.091 C 
ATOM      2  CAJ ZWZ d          -1.384  28.246  23.798  0.00  0.00     0.089 C 
ATOM      3  CAI ZWZ d           0.142  28.274  23.726  0.00  0.00     0.089 C 
ATOM      4  CAH ZWZ d           0.719  28.374  25.143  0.00  0.00     0.126 C 
ATOM      5  NAG ZWZ d           0.230  27.280  26.001  0.00  0.00    -0.060 N 
ATOM      6  CAL ZWZ d          -1.238  27.284  26.095  0.00  0.00     0.152 C 
ATOM      7  H2  ZWZ d          -1.352  26.144  24.271  0.00  0.00     0.090 H 
ATOM      8  H3  ZWZ d          -1.753  29.184  24.241  0.00  0.00     0.091 H 
ATOM      9  H5  ZWZ d           0.474  29.144  23.140  0.00  0.00     0.090 H 
ATOM     10  H7  ZWZ d           0.392  29.331  25.576  0.00  0.00     0.087 H 
ATOM     11  H11 ZWZ d           0.618  27.392  26.926  0.00  0.00     0.278 HD
ATOM     12  H12 ZWZ d           0.532  26.400  25.614  0.00  0.00     0.278 HD
ATOM     13  H13 ZWZ d          -1.591  28.250  26.485  0.00  0.00     0.091 H 
ENDROOT
BRANCH   6  14
ATOM     14  CAF ZWZ d          -1.675  26.163  27.041  0.00  0.00     0.108 C 
ATOM     15  H14 ZWZ d          -2.661  26.410  27.463  0.00  0.00     0.078 H 
ATOM     16  H15 ZWZ d          -0.940  26.070  27.855  0.00  0.00     0.078 H 
BRANCH  14  17
ATOM     17  NAB ZWZ d          -1.766  24.882  26.323  0.00  0.00    -0.077 N 
ATOM     18  H16 ZWZ d          -2.550  24.354  26.673  0.00  0.00     0.274 HD
ATOM     19  H17 ZWZ d          -0.917  24.356  26.465  0.00  0.00     0.274 HD
ATOM     20  H18 ZWZ d          -1.892  25.056  25.338  0.00  0.00     0.274 HD
ENDBRANCH  14  17
ENDBRANCH   6  14
BRANCH   1  21
ATOM     21  OAE ZWZ d          -3.213  26.923  24.685  0.00  0.00    -0.391 OA
ATOM     22  H1  ZWZ d          -3.608  27.704  25.054  0.00  0.00     0.210 HD
ENDBRANCH   1  21
BRANCH   2  23
ATOM     23  OAD ZWZ d          -1.928  28.099  22.486  0.00  0.00    -0.390 OA
ATOM     24  H4  ZWZ d          -1.737  27.227  22.160  0.00  0.00     0.210 HD
ENDBRANCH   2  23
BRANCH   4  25
ATOM     25  CAA ZWZ d           2.247  28.344  25.125  0.00  0.00    -0.047 C 
ATOM     26  H8  ZWZ d           2.623  29.171  24.505  0.00  0.00     0.030 H 
ATOM     27  H9  ZWZ d           2.590  27.386  24.706  0.00  0.00     0.030 H 
ATOM     28  H10 ZWZ d           2.628  28.452  26.151  0.00  0.00     0.030 H 
ENDBRANCH   4  25
BRANCH   3  29
ATOM     29  OAC ZWZ d           0.558  27.069  23.074  0.00  0.00    -0.391 OA
ATOM     30  H6  ZWZ d           0.430  27.156  22.136  0.00  0.00     0.210 HD
ENDBRANCH   3  29
TORSDOF 6
ENDMDL
