MODEL 1
REMARK VINA RESULT:     -11.6      0.000      0.000
REMARK  7 active torsions:
REMARK  status: ('A' for Active; 'I' for Inactive)
REMARK    1  A    between atoms: C2_4  and  C8_8 
REMARK    2  A    between atoms: C4_6  and  C7_7 
REMARK    3  A    between atoms: C13_9  and  C14_10 
REMARK    4  A    between atoms: C16_16  and  C19_17 
REMARK    5  A    between atoms: C17_18  and  O20_19 
REMARK    6  A    between atoms: C48_24  and  C49_25 
REMARK    7  A    between atoms: C36_28  and  C38_29 
ROOT
ATOM      1  C8  GYN d           5.015  25.421  -8.135  0.00  0.00    -0.048 C 
ATOM      2  C13 GYN d           4.108  26.147  -7.448  0.00  0.00    -0.070 C 
ATOM      3  C12 GYN d           3.788  25.910  -5.987  0.00  0.00    -0.003 C 
ATOM      4  C27 GYN d           4.848  25.045  -5.288  0.00  0.00     0.011 C 
ATOM      5  C10 GYN d           5.150  23.844  -6.185  0.00  0.00    -0.049 C 
ATOM      6  C9  GYN d           5.671  24.186  -7.572  0.00  0.00    -0.041 C 
ATOM      7  C15 GYN d           3.630  27.250  -5.286  0.00  0.00    -0.090 C 
ATOM      8  C16 GYN d           2.489  27.751  -4.763  0.00  0.00    -0.059 C 
ATOM      9  C17 GYN d           2.561  29.112  -4.112  0.00  0.00     0.057 C 
ATOM     10  C18 GYN d           2.038  29.070  -2.681  0.00  0.00    -0.035 C 
ATOM     11  C21 GYN d           3.094  28.724  -1.648  0.00  0.00    -0.038 C 
ATOM     12  C43 GYN d           2.861  27.360  -1.016  0.00  0.00     0.040 C 
ATOM     13  C47 GYN d           3.536  27.186   0.341  0.00  0.00    -0.035 C 
ATOM     14  C48 GYN d           2.625  26.242   1.108  0.00  0.00    -0.026 C 
ATOM     15  O43 GYN d           1.489  27.005  -0.788  0.00  0.00    -0.376 OA
ATOM     16  C37 GYN d           1.484  25.912   0.153  0.00  0.00     0.063 C 
ATOM     17  C36 GYN d           1.694  24.568  -0.511  0.00  0.00    -0.059 C 
ATOM     18  C35 GYN d           2.170  24.523  -1.774  0.00  0.00    -0.098 C 
ATOM     19  C34 GYN d           2.452  23.284  -2.604  0.00  0.00    -0.045 C 
ATOM     20  C33 GYN d           2.941  23.681  -4.005  0.00  0.00    -0.025 C 
ATOM     21  C32 GYN d           4.272  24.432  -4.015  0.00  0.00     0.016 C 
ATOM     22  N31 GYN d           4.935  24.518  -2.934  0.00  0.00    -0.298 NA
ATOM     23  C30 GYN d           6.341  24.830  -2.723  0.00  0.00     0.015 C 
ATOM     24  C46 GYN d           6.609  26.047  -3.596  0.00  0.00    -0.047 C 
ATOM     25  C28 GYN d           6.131  25.873  -5.035  0.00  0.00    -0.051 C 
ATOM     26  H11 GYN d           2.828  25.375  -5.930  0.00  0.00     0.054 H 
ATOM     27  H12 GYN d           4.222  23.266  -6.303  0.00  0.00     0.035 H 
ATOM     28  H13 GYN d           5.907  23.225  -5.681  0.00  0.00     0.035 H 
ATOM     29  H14 GYN d           6.756  24.356  -7.513  0.00  0.00     0.039 H 
ATOM     30  H15 GYN d           5.469  23.340  -8.246  0.00  0.00     0.039 H 
ATOM     31  H16 GYN d           4.524  27.866  -5.196  0.00  0.00     0.078 H 
ATOM     32  H20 GYN d           3.604  29.463  -4.110  0.00  0.00     0.090 H 
ATOM     33  H22 GYN d           1.240  28.314  -2.627  0.00  0.00     0.037 H 
ATOM     34  H23 GYN d           1.624  30.059  -2.435  0.00  0.00     0.037 H 
ATOM     35  H24 GYN d           3.078  29.488  -0.856  0.00  0.00     0.036 H 
ATOM     36  H25 GYN d           4.080  28.723  -2.136  0.00  0.00     0.036 H 
ATOM     37  H26 GYN d           3.289  26.624  -1.711  0.00  0.00     0.083 H 
ATOM     38  H27 GYN d           3.618  28.152   0.859  0.00  0.00     0.037 H 
ATOM     39  H28 GYN d           4.537  26.747   0.222  0.00  0.00     0.037 H 
ATOM     40  H29 GYN d           3.166  25.327   1.392  0.00  0.00     0.043 H 
ATOM     41  H33 GYN d           0.528  25.888   0.696  0.00  0.00     0.091 H 
ATOM     42  H37 GYN d           2.374  25.481  -2.249  0.00  0.00     0.077 H 
ATOM     43  H38 GYN d           1.530  22.691  -2.696  0.00  0.00     0.039 H 
ATOM     44  H39 GYN d           3.227  22.682  -2.106  0.00  0.00     0.039 H 
ATOM     45  H40 GYN d           2.179  24.325  -4.467  0.00  0.00     0.042 H 
ATOM     46  H41 GYN d           3.059  22.764  -4.602  0.00  0.00     0.042 H 
ATOM     47  H42 GYN d           6.975  23.986  -3.031  0.00  0.00     0.067 H 
ATOM     48  H43 GYN d           6.531  25.064  -1.665  0.00  0.00     0.067 H 
ATOM     49  H44 GYN d           7.692  26.237  -3.608  0.00  0.00     0.035 H 
ATOM     50  H45 GYN d           6.090  26.913  -3.157  0.00  0.00     0.035 H 
ATOM     51  H46 GYN d           5.956  26.879  -5.444  0.00  0.00     0.034 H 
ATOM     52  H47 GYN d           6.946  25.388  -5.592  0.00  0.00     0.034 H 
ENDROOT
BRANCH   1  53
ATOM     53  C2  GYN d           5.444  25.861  -9.507  0.00  0.00     0.071 C 
ATOM     54  O1  GYN d           6.437  26.882  -9.389  0.00  0.00    -0.311 OA
ATOM     55  C5  GYN d           7.453  26.563 -10.366  0.00  0.00     0.263 C 
ATOM     56  O6  GYN d           8.429  27.267 -10.537  0.00  0.00    -0.265 OA
ATOM     57  C4  GYN d           7.185  25.324 -11.141  0.00  0.00     0.029 C 
ATOM     58  C3  GYN d           6.032  24.720 -10.348  0.00  0.00    -0.025 C 
ATOM     59  H4  GYN d           6.862  25.562 -12.164  0.00  0.00     0.055 H 
ATOM     60  H2  GYN d           5.270  24.318 -11.032  0.00  0.00     0.038 H 
ATOM     61  H3  GYN d           6.400  23.916  -9.694  0.00  0.00     0.038 H 
ATOM     62  H1  GYN d           4.566  26.266 -10.031  0.00  0.00     0.091 H 
BRANCH  57  63
ATOM     63  C7  GYN d           8.421  24.443 -11.221  0.00  0.00    -0.064 C 
ATOM     64  H5  GYN d           8.163  23.421 -10.904  0.00  0.00     0.028 H 
ATOM     65  H6  GYN d           9.203  24.845 -10.560  0.00  0.00     0.028 H 
ATOM     66  H7  GYN d           8.791  24.423 -12.257  0.00  0.00     0.028 H 
ENDBRANCH  57  63
ENDBRANCH   1  53
BRANCH   2  67
ATOM     67  C14 GYN d           3.371  27.271  -8.144  0.00  0.00    -0.054 C 
ATOM     68  H8  GYN d           4.098  27.965  -8.591  0.00  0.00     0.033 H 
ATOM     69  H9  GYN d           2.752  27.811  -7.413  0.00  0.00     0.033 H 
ATOM     70  H10 GYN d           2.727  26.856  -8.932  0.00  0.00     0.033 H 
ENDBRANCH   2  67
BRANCH   8  71
ATOM     71  C19 GYN d           1.168  27.021  -4.821  0.00  0.00    -0.052 C 
ATOM     72  H17 GYN d           1.301  25.992  -4.457  0.00  0.00     0.033 H 
ATOM     73  H18 GYN d           0.806  26.998  -5.860  0.00  0.00     0.033 H 
ATOM     74  H19 GYN d           0.433  27.541  -4.189  0.00  0.00     0.033 H 
ENDBRANCH   8  71
BRANCH   9  75
ATOM     75  O20 GYN d           1.740  30.013  -4.870  0.00  0.00    -0.391 OA
ATOM     76  H21 GYN d           1.806  29.799  -5.794  0.00  0.00     0.210 HD
ENDBRANCH   9  75
BRANCH  17  77
ATOM     77  C38 GYN d           1.346  23.303   0.240  0.00  0.00    -0.052 C 
ATOM     78  H34 GYN d           2.254  22.889   0.701  0.00  0.00     0.033 H 
ATOM     79  H35 GYN d           0.923  22.566  -0.458  0.00  0.00     0.033 H 
ATOM     80  H36 GYN d           0.609  23.533   1.023  0.00  0.00     0.033 H 
ENDBRANCH  17  77
BRANCH  14  81
ATOM     81  C49 GYN d           2.095  26.933   2.365  0.00  0.00    -0.070 C 
ATOM     82  H30 GYN d           2.338  28.006   2.325  0.00  0.00     0.028 H 
ATOM     83  H31 GYN d           2.561  26.486   3.255  0.00  0.00     0.028 H 
ATOM     84  H32 GYN d           1.004  26.807   2.421  0.00  0.00     0.028 H 
ENDBRANCH  14  81
TORSDOF 7
ENDMDL
MODEL 2
REMARK VINA RESULT:      -9.0      1.314      1.529
REMARK  7 active torsions:
REMARK  status: ('A' for Active; 'I' for Inactive)
REMARK    1  A    between atoms: C2_4  and  C8_8 
REMARK    2  A    between atoms: C4_6  and  C7_7 
REMARK    3  A    between atoms: C13_9  and  C14_10 
REMARK    4  A    between atoms: C16_16  and  C19_17 
REMARK    5  A    between atoms: C17_18  and  O20_19 
REMARK    6  A    between atoms: C48_24  and  C49_25 
REMARK    7  A    between atoms: C36_28  and  C38_29 
ROOT
ATOM      1  C8  GYN d           5.216  24.407  -7.353  0.00  0.00    -0.048 C 
ATOM      2  C13 GYN d           4.165  25.197  -7.055  0.00  0.00    -0.070 C 
ATOM      3  C12 GYN d           3.660  25.413  -5.643  0.00  0.00    -0.003 C 
ATOM      4  C27 GYN d           4.678  24.966  -4.583  0.00  0.00     0.011 C 
ATOM      5  C10 GYN d           5.204  23.585  -4.980  0.00  0.00    -0.049 C 
ATOM      6  C9  GYN d           5.886  23.516  -6.337  0.00  0.00    -0.041 C 
ATOM      7  C15 GYN d           3.294  26.878  -5.461  0.00  0.00    -0.090 C 
ATOM      8  C16 GYN d           2.052  27.374  -5.264  0.00  0.00    -0.059 C 
ATOM      9  C17 GYN d           1.918  28.871  -5.112  0.00  0.00     0.057 C 
ATOM     10  C18 GYN d           1.203  29.234  -3.816  0.00  0.00    -0.035 C 
ATOM     11  C21 GYN d           2.127  29.382  -2.622  0.00  0.00    -0.038 C 
ATOM     12  C43 GYN d           1.919  28.282  -1.591  0.00  0.00     0.040 C 
ATOM     13  C47 GYN d           2.407  28.647  -0.193  0.00  0.00    -0.035 C 
ATOM     14  C48 GYN d           1.478  27.900   0.749  0.00  0.00    -0.026 C 
ATOM     15  O43 GYN d           0.563  27.851  -1.402  0.00  0.00    -0.376 OA
ATOM     16  C37 GYN d           0.516  27.135  -0.152  0.00  0.00     0.063 C 
ATOM     17  C36 GYN d           0.929  25.685  -0.292  0.00  0.00    -0.059 C 
ATOM     18  C35 GYN d           1.581  25.290  -1.406  0.00  0.00    -0.098 C 
ATOM     19  C34 GYN d           2.080  23.893  -1.728  0.00  0.00    -0.045 C 
ATOM     20  C33 GYN d           2.729  23.868  -3.121  0.00  0.00    -0.025 C 
ATOM     21  C32 GYN d           3.981  24.735  -3.245  0.00  0.00     0.016 C 
ATOM     22  N31 GYN d           4.474  25.254  -2.195  0.00  0.00    -0.298 NA
ATOM     23  C30 GYN d           5.805  25.792  -1.956  0.00  0.00     0.015 C 
ATOM     24  C46 GYN d           6.092  26.680  -3.157  0.00  0.00    -0.047 C 
ATOM     25  C28 GYN d           5.840  25.985  -4.493  0.00  0.00    -0.051 C 
ATOM     26  H11 GYN d           2.750  24.810  -5.509  0.00  0.00     0.054 H 
ATOM     27  H12 GYN d           4.353  22.888  -4.991  0.00  0.00     0.035 H 
ATOM     28  H13 GYN d           5.930  23.265  -4.217  0.00  0.00     0.035 H 
ATOM     29  H14 GYN d           6.934  23.832  -6.224  0.00  0.00     0.039 H 
ATOM     30  H15 GYN d           5.853  22.478  -6.699  0.00  0.00     0.039 H 
ATOM     31  H16 GYN d           4.112  27.596  -5.493  0.00  0.00     0.078 H 
ATOM     32  H20 GYN d           2.918  29.332  -5.120  0.00  0.00     0.090 H 
ATOM     33  H22 GYN d           0.471  28.443  -3.593  0.00  0.00     0.037 H 
ATOM     34  H23 GYN d           0.677  30.189  -3.967  0.00  0.00     0.037 H 
ATOM     35  H24 GYN d           1.935  30.354  -2.145  0.00  0.00     0.036 H 
ATOM     36  H25 GYN d           3.168  29.345  -2.973  0.00  0.00     0.036 H 
ATOM     37  H26 GYN d           2.502  27.418  -1.945  0.00  0.00     0.083 H 
ATOM     38  H27 GYN d           2.335  29.733  -0.029  0.00  0.00     0.037 H 
ATOM     39  H28 GYN d           3.448  28.324  -0.049  0.00  0.00     0.037 H 
ATOM     40  H29 GYN d           2.048  27.204   1.383  0.00  0.00     0.043 H 
ATOM     41  H33 GYN d          -0.502  27.170   0.263  0.00  0.00     0.091 H 
ATOM     42  H37 GYN d           1.770  26.057  -2.154  0.00  0.00     0.077 H 
ATOM     43  H38 GYN d           1.233  23.191  -1.710  0.00  0.00     0.039 H 
ATOM     44  H39 GYN d           2.824  23.590  -0.976  0.00  0.00     0.039 H 
ATOM     45  H40 GYN d           1.989  24.224  -3.853  0.00  0.00     0.042 H 
ATOM     46  H41 GYN d           3.006  22.828  -3.353  0.00  0.00     0.042 H 
ATOM     47  H42 GYN d           6.544  24.980  -1.889  0.00  0.00     0.067 H 
ATOM     48  H43 GYN d           5.823  26.381  -1.027  0.00  0.00     0.067 H 
ATOM     49  H44 GYN d           7.147  26.990  -3.119  0.00  0.00     0.035 H 
ATOM     50  H45 GYN d           5.446  27.569  -3.098  0.00  0.00     0.035 H 
ATOM     51  H46 GYN d           5.641  26.771  -5.236  0.00  0.00     0.034 H 
ATOM     52  H47 GYN d           6.763  25.452  -4.762  0.00  0.00     0.034 H 
ENDROOT
BRANCH   1  53
ATOM     53  C2  GYN d           5.798  24.423  -8.740  0.00  0.00     0.071 C 
ATOM     54  O1  GYN d           4.980  25.230  -9.588  0.00  0.00    -0.311 OA
ATOM     55  C5  GYN d           5.889  26.029 -10.376  0.00  0.00     0.263 C 
ATOM     56  O6  GYN d           5.499  26.805 -11.226  0.00  0.00    -0.265 OA
ATOM     57  C4  GYN d           7.325  25.800 -10.068  0.00  0.00     0.029 C 
ATOM     58  C3  GYN d           7.227  24.982  -8.786  0.00  0.00    -0.025 C 
ATOM     59  H4  GYN d           7.808  25.211 -10.861  0.00  0.00     0.055 H 
ATOM     60  H2  GYN d           7.957  24.159  -8.802  0.00  0.00     0.038 H 
ATOM     61  H3  GYN d           7.414  25.622  -7.911  0.00  0.00     0.038 H 
ATOM     62  H1  GYN d           5.812  23.392  -9.121  0.00  0.00     0.091 H 
BRANCH  57  63
ATOM     63  C7  GYN d           8.076  27.112  -9.920  0.00  0.00    -0.064 C 
ATOM     64  H5  GYN d           7.578  27.889 -10.518  0.00  0.00     0.028 H 
ATOM     65  H6  GYN d           9.111  26.984 -10.271  0.00  0.00     0.028 H 
ATOM     66  H7  GYN d           8.084  27.413  -8.862  0.00  0.00     0.028 H 
ENDBRANCH  57  63
ENDBRANCH   1  53
BRANCH   2  67
ATOM     67  C14 GYN d           3.443  25.929  -8.166  0.00  0.00    -0.054 C 
ATOM     68  H8  GYN d           2.691  26.605  -7.731  0.00  0.00     0.033 H 
ATOM     69  H9  GYN d           2.945  25.202  -8.822  0.00  0.00     0.033 H 
ATOM     70  H10 GYN d           4.167  26.514  -8.751  0.00  0.00     0.033 H 
ENDBRANCH   2  67
BRANCH   8  71
ATOM     71  C19 GYN d           0.818  26.505  -5.210  0.00  0.00    -0.052 C 
ATOM     72  H17 GYN d           1.116  25.449  -5.135  0.00  0.00     0.033 H 
ATOM     73  H18 GYN d           0.223  26.655  -6.123  0.00  0.00     0.033 H 
ATOM     74  H19 GYN d           0.216  26.779  -4.331  0.00  0.00     0.033 H 
ENDBRANCH   8  71
BRANCH   9  75
ATOM     75  O20 GYN d           1.142  29.363  -6.215  0.00  0.00    -0.391 OA
ATOM     76  H21 GYN d           0.375  28.814  -6.331  0.00  0.00     0.210 HD
ENDBRANCH   9  75
BRANCH  17  77
ATOM     77  C38 GYN d           0.584  24.703   0.804  0.00  0.00    -0.052 C 
ATOM     78  H34 GYN d           1.510  24.307   1.246  0.00  0.00     0.033 H 
ATOM     79  H35 GYN d          -0.003  23.874   0.383  0.00  0.00     0.033 H 
ATOM     80  H36 GYN d          -0.005  25.212   1.581  0.00  0.00     0.033 H 
ENDBRANCH  17  77
BRANCH  14  81
ATOM     81  C49 GYN d           0.719  28.893   1.632  0.00  0.00    -0.070 C 
ATOM     82  H30 GYN d           1.260  29.850   1.656  0.00  0.00     0.028 H 
ATOM     83  H31 GYN d           0.641  28.491   2.652  0.00  0.00     0.028 H 
ATOM     84  H32 GYN d          -0.289  29.051   1.222  0.00  0.00     0.028 H 
ENDBRANCH  14  81
TORSDOF 7
ENDMDL
