MODEL 1
REMARK VINA RESULT:      -9.8      0.000      0.000
REMARK  3 active torsions:
REMARK  status: ('A' for Active; 'I' for Inactive)
REMARK    1  A    between atoms: C10_12  and  C9_11 
REMARK    2  A    between atoms: C12_14  and  N2_15 
REMARK    3  A    between atoms: C14_17  and  C15_18 
ROOT
ATOM      1  C1  HUP d           0.612  69.012  60.938  0.00  0.00     0.245 A 
ATOM      2  O1  HUP d           0.077  69.525  59.919  0.00  0.00    -0.268 OA
ATOM      3  N1  HUP d           1.922  68.532  60.872  0.00  0.00    -0.327 N 
ATOM      4  C2  HUP d          -0.051  68.876  62.227  0.00  0.00    -0.017 A 
ATOM      5  C3  HUP d           0.602  68.297  63.296  0.00  0.00    -0.067 A 
ATOM      6  C4  HUP d           1.964  67.800  63.210  0.00  0.00     0.005 A 
ATOM      7  C5  HUP d           2.621  67.940  61.946  0.00  0.00     0.022 A 
ATOM      8  C6  HUP d           4.034  67.482  61.668  0.00  0.00    -0.016 C 
ATOM      9  C7  HUP d           4.764  66.877  62.947  0.00  0.00    -0.008 C 
ATOM     10  C8  HUP d           5.455  67.967  63.793  0.00  0.00    -0.093 C 
ATOM     11  C10 HUP d           3.738  64.836  64.124  0.00  0.00    -0.101 C 
ATOM     12  C11 HUP d           3.749  66.133  63.846  0.00  0.00    -0.036 C 
ATOM     13  C12 HUP d           2.718  67.124  64.437  0.00  0.00     0.179 C 
ATOM     14  C13 HUP d           3.443  68.202  65.294  0.00  0.00    -0.006 C 
ATOM     15  C14 HUP d           4.851  68.566  64.857  0.00  0.00    -0.084 C 
ATOM     16  H1  HUP d           2.402  68.614  59.998  0.00  0.00     0.169 HD
ATOM     17  H2  HUP d          -1.073  69.235  62.349  0.00  0.00     0.092 H 
ATOM     18  H3  HUP d           0.074  68.209  64.244  0.00  0.00     0.084 H 
ATOM     19  H4  HUP d           4.616  68.343  61.308  0.00  0.00     0.043 H 
ATOM     20  H5  HUP d           4.001  66.709  60.886  0.00  0.00     0.043 H 
ATOM     21  H6  HUP d           5.528  66.163  62.603  0.00  0.00     0.053 H 
ATOM     22  H7  HUP d           6.467  68.271  63.527  0.00  0.00     0.078 H 
ATOM     23  H11 HUP d           2.954  64.500  64.801  0.00  0.00     0.076 H 
ATOM     24  H15 HUP d           3.497  67.829  66.328  0.00  0.00     0.044 H 
ATOM     25  H16 HUP d           2.834  69.118  65.266  0.00  0.00     0.044 H 
ENDROOT
BRANCH  13  26
ATOM     26  N2  HUP d           1.732  66.423  65.307  0.00  0.00    -0.062 N 
ATOM     27  H12 HUP d           2.064  66.424  66.259  0.00  0.00     0.276 HD
ATOM     28  H13 HUP d           1.620  65.473  64.991  0.00  0.00     0.276 HD
ATOM     29  H14 HUP d           0.845  66.899  65.261  0.00  0.00     0.276 HD
ENDBRANCH  13  26
BRANCH  11  30
ATOM     30  C9  HUP d           4.672  63.778  63.622  0.00  0.00    -0.059 C 
ATOM     31  H8  HUP d           5.584  64.250  63.228  0.00  0.00     0.032 H 
ATOM     32  H9  HUP d           4.181  63.205  62.821  0.00  0.00     0.032 H 
ATOM     33  H10 HUP d           4.937  63.100  64.448  0.00  0.00     0.032 H 
ENDBRANCH  11  30
BRANCH  15  34
ATOM     34  C15 HUP d           5.512  69.631  65.707  0.00  0.00    -0.055 C 
ATOM     35  H17 HUP d           6.517  69.294  66.000  0.00  0.00     0.033 H 
ATOM     36  H18 HUP d           4.907  69.808  66.608  0.00  0.00     0.033 H 
ATOM     37  H19 HUP d           5.592  70.563  65.129  0.00  0.00     0.033 H 
ENDBRANCH  15  34
TORSDOF 3
ENDMDL
MODEL 2
REMARK VINA RESULT:      -9.5      1.377      3.475
REMARK  3 active torsions:
REMARK  status: ('A' for Active; 'I' for Inactive)
REMARK    1  A    between atoms: C10_12  and  C9_11 
REMARK    2  A    between atoms: C12_14  and  N2_15 
REMARK    3  A    between atoms: C14_17  and  C15_18 
ROOT
ATOM      1  C1  HUP d           0.520  68.946  61.391  0.00  0.00     0.245 A 
ATOM      2  O1  HUP d          -0.608  69.388  61.044  0.00  0.00    -0.268 OA
ATOM      3  N1  HUP d           0.835  68.824  62.747  0.00  0.00    -0.327 N 
ATOM      4  C2  HUP d           1.558  68.536  60.456  0.00  0.00    -0.017 A 
ATOM      5  C3  HUP d           2.772  68.066  60.917  0.00  0.00    -0.067 A 
ATOM      6  C4  HUP d           3.085  67.948  62.329  0.00  0.00     0.005 A 
ATOM      7  C5  HUP d           2.062  68.343  63.250  0.00  0.00     0.022 A 
ATOM      8  C6  HUP d           2.207  68.291  64.753  0.00  0.00    -0.016 C 
ATOM      9  C7  HUP d           3.600  67.686  65.233  0.00  0.00    -0.008 C 
ATOM     10  C8  HUP d           3.559  66.147  65.344  0.00  0.00    -0.093 C 
ATOM     11  C10 HUP d           5.780  68.834  64.503  0.00  0.00    -0.101 C 
ATOM     12  C11 HUP d           4.724  68.073  64.245  0.00  0.00    -0.036 C 
ATOM     13  C12 HUP d           4.486  67.416  62.864  0.00  0.00     0.179 C 
ATOM     14  C13 HUP d           4.462  65.866  63.007  0.00  0.00    -0.006 C 
ATOM     15  C14 HUP d           3.951  65.325  64.331  0.00  0.00    -0.084 C 
ATOM     16  H1  HUP d           0.138  69.097  63.410  0.00  0.00     0.169 HD
ATOM     17  H2  HUP d           1.376  68.601  59.385  0.00  0.00     0.092 H 
ATOM     18  H3  HUP d           3.526  67.772  60.189  0.00  0.00     0.084 H 
ATOM     19  H4  HUP d           1.398  67.668  65.161  0.00  0.00     0.043 H 
ATOM     20  H5  HUP d           2.117  69.314  65.147  0.00  0.00     0.043 H 
ATOM     21  H6  HUP d           3.835  68.104  66.224  0.00  0.00     0.053 H 
ATOM     22  H7  HUP d           3.201  65.701  66.271  0.00  0.00     0.078 H 
ATOM     23  H11 HUP d           6.480  68.974  63.680  0.00  0.00     0.076 H 
ATOM     24  H15 HUP d           5.491  65.500  62.869  0.00  0.00     0.044 H 
ATOM     25  H16 HUP d           3.820  65.465  62.209  0.00  0.00     0.044 H 
ENDROOT
BRANCH  13  26
ATOM     26  N2  HUP d           5.562  67.777  61.899  0.00  0.00    -0.062 N 
ATOM     27  H12 HUP d           6.188  66.996  61.786  0.00  0.00     0.276 HD
ATOM     28  H13 HUP d           6.074  68.571  62.249  0.00  0.00     0.276 HD
ATOM     29  H14 HUP d           5.151  68.009  61.008  0.00  0.00     0.276 HD
ENDBRANCH  13  26
BRANCH  11  30
ATOM     30  C9  HUP d           6.126  69.525  65.787  0.00  0.00    -0.059 C 
ATOM     31  H8  HUP d           6.517  70.530  65.568  0.00  0.00     0.032 H 
ATOM     32  H9  HUP d           6.891  68.942  66.321  0.00  0.00     0.032 H 
ATOM     33  H10 HUP d           5.225  69.610  66.412  0.00  0.00     0.032 H 
ENDBRANCH  11  30
BRANCH  15  34
ATOM     34  C15 HUP d           3.928  63.814  64.421  0.00  0.00    -0.055 C 
ATOM     35  H17 HUP d           4.741  63.398  63.807  0.00  0.00     0.033 H 
ATOM     36  H18 HUP d           2.962  63.439  64.052  0.00  0.00     0.033 H 
ATOM     37  H19 HUP d           4.065  63.507  65.468  0.00  0.00     0.033 H 
ENDBRANCH  15  34
TORSDOF 3
ENDMDL
MODEL 3
REMARK VINA RESULT:      -7.9      2.762      4.671
REMARK  3 active torsions:
REMARK  status: ('A' for Active; 'I' for Inactive)
REMARK    1  A    between atoms: C10_12  and  C9_11 
REMARK    2  A    between atoms: C12_14  and  N2_15 
REMARK    3  A    between atoms: C14_17  and  C15_18 
ROOT
ATOM      1  C1  HUP d           5.974  70.043  65.880  0.00  0.00     0.245 A 
ATOM      2  O1  HUP d           6.891  70.748  66.380  0.00  0.00    -0.268 OA
ATOM      3  N1  HUP d           6.163  69.426  64.641  0.00  0.00    -0.327 N 
ATOM      4  C2  HUP d           4.684  69.810  66.517  0.00  0.00    -0.017 A 
ATOM      5  C3  HUP d           3.728  69.028  65.901  0.00  0.00    -0.067 A 
ATOM      6  C4  HUP d           3.941  68.396  64.611  0.00  0.00     0.005 A 
ATOM      7  C5  HUP d           5.210  68.616  63.988  0.00  0.00     0.022 A 
ATOM      8  C6  HUP d           5.609  68.043  62.648  0.00  0.00    -0.016 C 
ATOM      9  C7  HUP d           4.497  67.100  62.008  0.00  0.00    -0.008 C 
ATOM     10  C8  HUP d           4.624  65.640  62.491  0.00  0.00    -0.093 C 
ATOM     11  C10 HUP d           2.165  68.066  61.528  0.00  0.00    -0.101 C 
ATOM     12  C11 HUP d           3.084  67.612  62.370  0.00  0.00    -0.036 C 
ATOM     13  C12 HUP d           2.838  67.501  63.894  0.00  0.00     0.179 C 
ATOM     14  C13 HUP d           2.959  66.017  64.348  0.00  0.00    -0.006 C 
ATOM     15  C14 HUP d           3.924  65.153  63.554  0.00  0.00    -0.084 C 
ATOM     16  H1  HUP d           7.041  69.569  64.183  0.00  0.00     0.169 HD
ATOM     17  H2  HUP d           4.473  70.257  67.487  0.00  0.00     0.092 H 
ATOM     18  H3  HUP d           2.775  68.878  66.404  0.00  0.00     0.084 H 
ATOM     19  H4  HUP d           6.530  67.456  62.780  0.00  0.00     0.043 H 
ATOM     20  H5  HUP d           5.801  68.876  61.955  0.00  0.00     0.043 H 
ATOM     21  H6  HUP d           4.616  67.119  60.914  0.00  0.00     0.053 H 
ATOM     22  H7  HUP d           5.300  64.972  61.961  0.00  0.00     0.078 H 
ATOM     23  H11 HUP d           1.214  68.360  61.971  0.00  0.00     0.076 H 
ATOM     24  H15 HUP d           1.961  65.560  64.276  0.00  0.00     0.044 H 
ATOM     25  H16 HUP d           3.290  66.013  65.397  0.00  0.00     0.044 H 
ENDROOT
BRANCH  13  26
ATOM     26  N2  HUP d           1.479  67.989  64.260  0.00  0.00    -0.062 N 
ATOM     27  H12 HUP d           1.276  67.735  65.215  0.00  0.00     0.276 HD
ATOM     28  H13 HUP d           0.795  67.571  63.649  0.00  0.00     0.276 HD
ATOM     29  H14 HUP d           1.445  68.992  64.166  0.00  0.00     0.276 HD
ENDBRANCH  13  26
BRANCH  11  30
ATOM     30  C9  HUP d           2.274  68.224  60.041  0.00  0.00    -0.059 C 
ATOM     31  H8  HUP d           1.549  68.977  59.698  0.00  0.00     0.032 H 
ATOM     32  H9  HUP d           2.061  67.261  59.554  0.00  0.00     0.032 H 
ATOM     33  H10 HUP d           3.293  68.550  59.781  0.00  0.00     0.032 H 
ENDBRANCH  11  30
BRANCH  15  34
ATOM     34  C15 HUP d           4.024  63.723  64.040  0.00  0.00    -0.055 C 
ATOM     35  H17 HUP d           4.345  63.714  65.092  0.00  0.00     0.033 H 
ATOM     36  H18 HUP d           4.759  63.179  63.428  0.00  0.00     0.033 H 
ATOM     37  H19 HUP d           3.042  63.236  63.952  0.00  0.00     0.033 H 
ENDBRANCH  15  34
TORSDOF 3
ENDMDL
MODEL 4
REMARK VINA RESULT:      -7.8      2.700      4.798
REMARK  3 active torsions:
REMARK  status: ('A' for Active; 'I' for Inactive)
REMARK    1  A    between atoms: C10_12  and  C9_11 
REMARK    2  A    between atoms: C12_14  and  N2_15 
REMARK    3  A    between atoms: C14_17  and  C15_18 
ROOT
ATOM      1  C1  HUP d           5.802  70.191  65.817  0.00  0.00     0.245 A 
ATOM      2  O1  HUP d           6.211  70.993  66.699  0.00  0.00    -0.268 OA
ATOM      3  N1  HUP d           4.736  69.332  66.096  0.00  0.00    -0.327 N 
ATOM      4  C2  HUP d           6.372  70.085  64.482  0.00  0.00    -0.017 A 
ATOM      5  C3  HUP d           5.871  69.175  63.574  0.00  0.00    -0.067 A 
ATOM      6  C4  HUP d           4.763  68.287  63.880  0.00  0.00     0.005 A 
ATOM      7  C5  HUP d           4.195  68.395  65.190  0.00  0.00     0.022 A 
ATOM      8  C6  HUP d           3.042  67.555  65.687  0.00  0.00    -0.016 C 
ATOM      9  C7  HUP d           2.460  66.564  64.584  0.00  0.00    -0.008 C 
ATOM     10  C8  HUP d           1.383  67.238  63.708  0.00  0.00    -0.093 C 
ATOM     11  C10 HUP d           4.016  64.809  63.534  0.00  0.00    -0.101 C 
ATOM     12  C11 HUP d           3.594  66.061  63.661  0.00  0.00    -0.036 C 
ATOM     13  C12 HUP d           4.188  67.230  62.840  0.00  0.00     0.179 C 
ATOM     14  C13 HUP d           3.081  67.879  61.958  0.00  0.00    -0.006 C 
ATOM     15  C14 HUP d           1.670  67.834  62.516  0.00  0.00    -0.084 C 
ATOM     16  H1  HUP d           4.325  69.385  67.006  0.00  0.00     0.169 HD
ATOM     17  H2  HUP d           7.203  70.729  64.197  0.00  0.00     0.092 H 
ATOM     18  H3  HUP d           6.324  69.120  62.585  0.00  0.00     0.084 H 
ATOM     19  H4  HUP d           2.235  68.227  66.013  0.00  0.00     0.043 H 
ATOM     20  H5  HUP d           3.390  66.958  66.544  0.00  0.00     0.043 H 
ATOM     21  H6  HUP d           2.007  65.703  65.098  0.00  0.00     0.053 H 
ATOM     22  H7  HUP d           0.352  67.237  64.057  0.00  0.00     0.078 H 
ATOM     23  H11 HUP d           4.813  64.645  62.811  0.00  0.00     0.076 H 
ATOM     24  H15 HUP d           3.076  67.360  60.988  0.00  0.00     0.044 H 
ATOM     25  H16 HUP d           3.349  68.935  61.807  0.00  0.00     0.044 H 
ENDROOT
BRANCH  13  26
ATOM     26  N2  HUP d           5.281  66.761  61.943  0.00  0.00    -0.062 N 
ATOM     27  H12 HUP d           5.745  67.557  61.533  0.00  0.00     0.276 HD
ATOM     28  H13 HUP d           4.894  66.186  61.212  0.00  0.00     0.276 HD
ATOM     29  H14 HUP d           5.947  66.223  62.476  0.00  0.00     0.276 HD
ENDBRANCH  13  26
BRANCH  11  30
ATOM     30  C9  HUP d           3.530  63.594  64.264  0.00  0.00    -0.059 C 
ATOM     31  H8  HUP d           2.987  63.903  65.170  0.00  0.00     0.032 H 
ATOM     32  H9  HUP d           4.390  62.969  64.548  0.00  0.00     0.032 H 
ATOM     33  H10 HUP d           2.857  63.019  63.611  0.00  0.00     0.032 H 
ENDBRANCH  11  30
BRANCH  15  34
ATOM     34  C15 HUP d           0.629  68.491  61.636  0.00  0.00    -0.055 C 
ATOM     35  H17 HUP d           0.772  68.168  60.595  0.00  0.00     0.033 H 
ATOM     36  H18 HUP d           0.734  69.584  61.698  0.00  0.00     0.033 H 
ATOM     37  H19 HUP d          -0.376  68.200  61.976  0.00  0.00     0.033 H 
ENDBRANCH  15  34
TORSDOF 3
ENDMDL
