MODEL 1
REMARK VINA RESULT:      -6.7      0.000      0.000
REMARK  17 active torsions:
REMARK  status: ('A' for Active; 'I' for Inactive)
REMARK    1  A    between atoms: C_1  and  OA_3 
REMARK       I    between atoms: N_11  and  C_1 
REMARK    2  A    between atoms: OA_3  and  CB_4 
REMARK    3  A    between atoms: CB_4  and  CG_5 
REMARK    4  A    between atoms: CA_12  and  N_11 
REMARK    5  A    between atoms: P_13  and  CA_12 
REMARK    6  A    between atoms: CA_12  and  CB_16 
REMARK    7  A    between atoms: P_13  and  N_23 
REMARK    8  A    between atoms: CB_16  and  CG_17 
REMARK    9  A    between atoms: N_23  and  CA_24 
REMARK   10  A    between atoms: CA_24  and  CB_27 
REMARK   11  A    between atoms: CA_24  and  C_25 
REMARK       I    between atoms: C_25  and  N_31 
REMARK   12  A    between atoms: CB_27  and  CG_28 
REMARK   13  A    between atoms: CG_28  and  CD1_29 
REMARK   14  A    between atoms: CG_28  and  CD2_30 
REMARK   15  A    between atoms: N_31  and  CA_32 
REMARK   16  A    between atoms: CA_32  and  CB_35 
REMARK   17  A    between atoms: CA_32  and  C_33 
ROOT
ATOM      1  CA  MOL d          48.874  20.416 -10.957  0.00  0.00     0.112 C 
ATOM      2  H9  MOL d          48.898  21.515 -11.003  0.00  0.00     0.092 H 
ENDROOT
BRANCH   1   3
ATOM      3  N   MOL d          49.418  19.882  -9.678  0.00  0.00    -0.321 N 
ATOM      4  C   MOL d          49.967  20.690  -8.758  0.00  0.00     0.361 C 
ATOM      5  O   MOL d          50.162  21.947  -8.881  0.00  0.00    -0.238 OA
ATOM      6  H8  MOL d          49.373  18.899  -9.500  0.00  0.00     0.165 HD
BRANCH   4   7
ATOM      7  OA  MOL d          50.228  19.926  -7.640  0.00  0.00    -0.299 OA
BRANCH   7   8
ATOM      8  CB  MOL d          50.471  18.514  -7.753  0.00  0.00     0.054 C 
ATOM      9  H1  MOL d          50.975  18.269  -8.699  0.00  0.00     0.082 H 
ATOM     10  H2  MOL d          49.536  17.939  -7.676  0.00  0.00     0.082 H 
BRANCH   8  11
ATOM     11  CG  MOL d          51.358  18.267  -6.585  0.00  0.00    -0.034 A 
ATOM     12  CD1 MOL d          52.077  19.186  -5.814  0.00  0.00    -0.075 A 
ATOM     13  CE1 MOL d          52.855  18.827  -4.682  0.00  0.00    -0.082 A 
ATOM     14  H3  MOL d          52.038  20.233  -6.097  0.00  0.00     0.084 H 
ATOM     15  CZ  MOL d          52.933  17.578  -4.233  0.00  0.00    -0.083 A 
ATOM     16  H5  MOL d          53.408  19.602  -4.163  0.00  0.00     0.083 H 
ATOM     17  CE2 MOL d          52.234  16.762  -5.029  0.00  0.00    -0.082 A 
ATOM     18  H7  MOL d          53.482  17.268  -3.352  0.00  0.00     0.083 H 
ATOM     19  CD2 MOL d          51.433  16.996  -6.164  0.00  0.00    -0.075 A 
ATOM     20  H6  MOL d          52.296  15.717  -4.746  0.00  0.00     0.083 H 
ATOM     21  H4  MOL d          50.906  16.194  -6.670  0.00  0.00     0.084 H 
ENDBRANCH   8  11
ENDBRANCH   7   8
ENDBRANCH   4   7
ENDBRANCH   1   3
BRANCH   1  22
ATOM     22  P   MOL d          47.331  19.839 -11.071  0.00  0.00     0.229 P 
ATOM     23  OP1 MOL d          46.655  19.694  -9.654  0.00  0.00    -0.650 OA
ATOM     24  OP2 MOL d          46.440  20.677 -12.080  0.00  0.00    -0.650 OA
BRANCH  22  25
ATOM     25  N   MOL d          47.641  18.164 -11.909  0.00  0.00    -0.334 N 
ATOM     26  H17 MOL d          48.102  18.083 -12.792  0.00  0.00     0.164 HD
BRANCH  25  27
ATOM     27  CA  MOL d          47.153  16.994 -11.165  0.00  0.00     0.091 C 
ATOM     28  H18 MOL d          46.169  17.270 -10.758  0.00  0.00     0.087 H 
BRANCH  27  29
ATOM     29  CB  MOL d          46.974  15.759 -12.058  0.00  0.00    -0.035 C 
ATOM     30  H19 MOL d          45.918  15.455 -12.024  0.00  0.00     0.037 H 
ATOM     31  H20 MOL d          47.602  14.948 -11.661  0.00  0.00     0.037 H 
BRANCH  29  32
ATOM     32  CG  MOL d          47.357  15.999 -13.500  0.00  0.00    -0.059 C 
ATOM     33  H21 MOL d          47.130  17.027 -13.818  0.00  0.00     0.038 H 
BRANCH  32  34
ATOM     34  CD1 MOL d          48.859  15.731 -13.708  0.00  0.00    -0.073 C 
ATOM     35  H22 MOL d          49.288  16.521 -14.342  0.00  0.00     0.028 H 
ATOM     36  H23 MOL d          48.993  14.755 -14.196  0.00  0.00     0.028 H 
ATOM     37  H24 MOL d          49.369  15.727 -12.733  0.00  0.00     0.028 H 
ENDBRANCH  32  34
BRANCH  32  38
ATOM     38  CD2 MOL d          46.440  15.006 -14.183  0.00  0.00    -0.073 C 
ATOM     39  H25 MOL d          46.732  13.984 -13.902  0.00  0.00     0.028 H 
ATOM     40  H26 MOL d          46.520  15.123 -15.273  0.00  0.00     0.028 H 
ATOM     41  H27 MOL d          45.402  15.191 -13.869  0.00  0.00     0.028 H 
ENDBRANCH  32  38
ENDBRANCH  29  32
ENDBRANCH  27  29
BRANCH  27  42
ATOM     42  C   MOL d          48.037  16.547  -9.990  0.00  0.00     0.241 C 
ATOM     43  O   MOL d          49.271  16.611 -10.050  0.00  0.00    -0.271 OA
ATOM     44  N   MOL d          47.397  16.168  -8.901  0.00  0.00    -0.345 N 
ATOM     45  H28 MOL d          46.397  16.161  -8.935  0.00  0.00     0.163 HD
BRANCH  44  46
ATOM     46  CA  MOL d          48.035  15.754  -7.635  0.00  0.00     0.093 C 
ATOM     47  H29 MOL d          49.128  15.810  -7.747  0.00  0.00     0.089 H 
BRANCH  46  48
ATOM     48  CB  MOL d          47.597  16.712  -6.542  0.00  0.00    -0.048 C 
ATOM     49  H30 MOL d          47.926  17.731  -6.794  0.00  0.00     0.030 H 
ATOM     50  H31 MOL d          48.046  16.407  -5.586  0.00  0.00     0.030 H 
ATOM     51  H32 MOL d          46.500  16.691  -6.455  0.00  0.00     0.030 H 
ENDBRANCH  46  48
BRANCH  46  52
ATOM     52  C   MOL d          47.647  14.298  -7.276  0.00  0.00     0.196 C 
ATOM     53  O   MOL d          46.834  14.067  -6.357  0.00  0.00    -0.646 OA
ATOM     54  OXT MOL d          48.011  13.243  -7.911  0.00  0.00    -0.646 OA
ENDBRANCH  46  52
ENDBRANCH  44  46
ENDBRANCH  27  42
ENDBRANCH  25  27
ENDBRANCH  22  25
ENDBRANCH   1  22
BRANCH   1  55
ATOM     55  CB  MOL d          49.737  19.799 -12.007  0.00  0.00    -0.011 C 
ATOM     56  H10 MOL d          49.128  19.191 -12.692  0.00  0.00     0.044 H 
ATOM     57  H11 MOL d          50.509  19.167 -11.544  0.00  0.00     0.044 H 
BRANCH  55  58
ATOM     58  CG  MOL d          50.377  20.952 -12.753  0.00  0.00    -0.056 A 
ATOM     59  CD1 MOL d          51.317  21.712 -12.045  0.00  0.00    -0.077 A 
ATOM     60  CE1 MOL d          51.973  22.784 -12.664  0.00  0.00    -0.082 A 
ATOM     61  H12 MOL d          51.537  21.470 -11.012  0.00  0.00     0.084 H 
ATOM     62  CZ  MOL d          51.674  23.064 -13.992  0.00  0.00    -0.083 A 
ATOM     63  H14 MOL d          52.696  23.380 -12.120  0.00  0.00     0.083 H 
ATOM     64  CE2 MOL d          50.736  22.268 -14.711  0.00  0.00    -0.082 A 
ATOM     65  H16 MOL d          52.160  23.898 -14.486  0.00  0.00     0.083 H 
ATOM     66  CD2 MOL d          50.098  21.193 -14.075  0.00  0.00    -0.077 A 
ATOM     67  H15 MOL d          50.515  22.493 -15.748  0.00  0.00     0.083 H 
ATOM     68  H13 MOL d          49.399  20.566 -14.616  0.00  0.00     0.084 H 
ENDBRANCH  55  58
ENDBRANCH   1  55
TORSDOF 17
ENDMDL
MODEL 2
REMARK VINA RESULT:      -6.4      3.390      7.885
REMARK  17 active torsions:
REMARK  status: ('A' for Active; 'I' for Inactive)
REMARK    1  A    between atoms: C_1  and  OA_3 
REMARK       I    between atoms: N_11  and  C_1 
REMARK    2  A    between atoms: OA_3  and  CB_4 
REMARK    3  A    between atoms: CB_4  and  CG_5 
REMARK    4  A    between atoms: CA_12  and  N_11 
REMARK    5  A    between atoms: P_13  and  CA_12 
REMARK    6  A    between atoms: CA_12  and  CB_16 
REMARK    7  A    between atoms: P_13  and  N_23 
REMARK    8  A    between atoms: CB_16  and  CG_17 
REMARK    9  A    between atoms: N_23  and  CA_24 
REMARK   10  A    between atoms: CA_24  and  CB_27 
REMARK   11  A    between atoms: CA_24  and  C_25 
REMARK       I    between atoms: C_25  and  N_31 
REMARK   12  A    between atoms: CB_27  and  CG_28 
REMARK   13  A    between atoms: CG_28  and  CD1_29 
REMARK   14  A    between atoms: CG_28  and  CD2_30 
REMARK   15  A    between atoms: N_31  and  CA_32 
REMARK   16  A    between atoms: CA_32  and  CB_35 
REMARK   17  A    between atoms: CA_32  and  C_33 
ROOT
ATOM      1  CA  MOL d          50.572  17.356  -8.396  0.00  0.00     0.112 C 
ATOM      2  H9  MOL d          51.558  17.817  -8.556  0.00  0.00     0.092 H 
ENDROOT
BRANCH   1   3
ATOM      3  N   MOL d          50.273  16.282  -9.383  0.00  0.00    -0.321 N 
ATOM      4  C   MOL d          49.017  15.865  -9.606  0.00  0.00     0.361 C 
ATOM      5  O   MOL d          47.973  16.251  -8.977  0.00  0.00    -0.238 OA
ATOM      6  H8  MOL d          51.024  15.863  -9.892  0.00  0.00     0.165 HD
BRANCH   4   7
ATOM      7  OA  MOL d          49.055  14.988 -10.669  0.00  0.00    -0.299 OA
BRANCH   7   8
ATOM      8  CB  MOL d          47.881  14.736 -11.459  0.00  0.00     0.054 C 
ATOM      9  H1  MOL d          46.969  14.778 -10.846  0.00  0.00     0.082 H 
ATOM     10  H2  MOL d          47.939  13.761 -11.964  0.00  0.00     0.082 H 
BRANCH   8  11
ATOM     11  CG  MOL d          47.930  15.857 -12.436  0.00  0.00    -0.034 A 
ATOM     12  CD1 MOL d          48.908  16.149 -13.393  0.00  0.00    -0.075 A 
ATOM     13  CE1 MOL d          48.813  17.229 -14.311  0.00  0.00    -0.082 A 
ATOM     14  H3  MOL d          49.787  15.516 -13.437  0.00  0.00     0.084 H 
ATOM     15  CZ  MOL d          47.758  18.035 -14.362  0.00  0.00    -0.083 A 
ATOM     16  H5  MOL d          49.635  17.402 -14.997  0.00  0.00     0.083 H 
ATOM     17  CE2 MOL d          46.880  17.702 -13.410  0.00  0.00    -0.082 A 
ATOM     18  H7  MOL d          47.629  18.845 -15.070  0.00  0.00     0.083 H 
ATOM     19  CD2 MOL d          46.861  16.666 -12.454  0.00  0.00    -0.075 A 
ATOM     20  H6  MOL d          46.015  18.354 -13.366  0.00  0.00     0.083 H 
ATOM     21  H4  MOL d          46.030  16.532 -11.772  0.00  0.00     0.084 H 
ENDBRANCH   8  11
ENDBRANCH   7   8
ENDBRANCH   4   7
ENDBRANCH   1   3
BRANCH   1  22
ATOM     22  P   MOL d          50.472  16.645  -6.908  0.00  0.00     0.229 P 
ATOM     23  OP1 MOL d          49.170  17.085  -6.136  0.00  0.00    -0.650 OA
ATOM     24  OP2 MOL d          50.628  15.068  -6.975  0.00  0.00    -0.650 OA
BRANCH  22  25
ATOM     25  N   MOL d          52.060  17.296  -6.097  0.00  0.00    -0.334 N 
ATOM     26  H17 MOL d          52.753  17.805  -6.607  0.00  0.00     0.164 HD
BRANCH  25  27
ATOM     27  CA  MOL d          52.197  16.999  -4.664  0.00  0.00     0.091 C 
ATOM     28  H18 MOL d          51.217  16.631  -4.327  0.00  0.00     0.087 H 
BRANCH  27  29
ATOM     29  CB  MOL d          53.241  15.910  -4.385  0.00  0.00    -0.035 C 
ATOM     30  H19 MOL d          53.847  16.222  -3.522  0.00  0.00     0.037 H 
ATOM     31  H20 MOL d          53.887  15.811  -5.269  0.00  0.00     0.037 H 
BRANCH  29  32
ATOM     32  CG  MOL d          52.635  14.560  -4.080  0.00  0.00    -0.059 C 
ATOM     33  H21 MOL d          51.544  14.560  -4.218  0.00  0.00     0.038 H 
BRANCH  32  34
ATOM     34  CD1 MOL d          53.254  13.478  -4.985  0.00  0.00    -0.073 C 
ATOM     35  H22 MOL d          52.800  13.534  -5.985  0.00  0.00     0.028 H 
ATOM     36  H23 MOL d          53.065  12.485  -4.551  0.00  0.00     0.028 H 
ATOM     37  H24 MOL d          54.338  13.643  -5.065  0.00  0.00     0.028 H 
ENDBRANCH  32  34
BRANCH  32  38
ATOM     38  CD2 MOL d          52.995  14.436  -2.614  0.00  0.00    -0.073 C 
ATOM     39  H25 MOL d          53.323  15.414  -2.234  0.00  0.00     0.028 H 
ATOM     40  H26 MOL d          53.809  13.706  -2.497  0.00  0.00     0.028 H 
ATOM     41  H27 MOL d          52.114  14.098  -2.049  0.00  0.00     0.028 H 
ENDBRANCH  32  38
ENDBRANCH  29  32
ENDBRANCH  27  29
BRANCH  27  42
ATOM     42  C   MOL d          52.579  18.195  -3.778  0.00  0.00     0.241 C 
ATOM     43  O   MOL d          52.799  19.312  -4.262  0.00  0.00    -0.271 OA
ATOM     44  N   MOL d          52.582  17.969  -2.479  0.00  0.00    -0.345 N 
ATOM     45  H28 MOL d          52.378  17.039  -2.174  0.00  0.00     0.163 HD
BRANCH  44  46
ATOM     46  CA  MOL d          52.861  18.979  -1.438  0.00  0.00     0.093 C 
ATOM     47  H29 MOL d          52.239  19.867  -1.620  0.00  0.00     0.089 H 
BRANCH  46  48
ATOM     48  CB  MOL d          52.500  18.386  -0.088  0.00  0.00    -0.048 C 
ATOM     49  H30 MOL d          53.405  18.308   0.532  0.00  0.00     0.030 H 
ATOM     50  H31 MOL d          52.065  17.386  -0.230  0.00  0.00     0.030 H 
ATOM     51  H32 MOL d          51.766  19.036   0.414  0.00  0.00     0.030 H 
ENDBRANCH  46  48
BRANCH  46  52
ATOM     52  C   MOL d          54.351  19.401  -1.469  0.00  0.00     0.196 C 
ATOM     53  O   MOL d          54.680  20.584  -1.241  0.00  0.00    -0.646 OA
ATOM     54  OXT MOL d          55.354  18.613  -1.618  0.00  0.00    -0.646 OA
ENDBRANCH  46  52
ENDBRANCH  44  46
ENDBRANCH  27  42
ENDBRANCH  25  27
ENDBRANCH  22  25
ENDBRANCH   1  22
BRANCH   1  55
ATOM     55  CB  MOL d          49.464  18.338  -8.576  0.00  0.00    -0.011 C 
ATOM     56  H10 MOL d          49.266  18.869  -7.634  0.00  0.00     0.044 H 
ATOM     57  H11 MOL d          48.549  17.825  -8.907  0.00  0.00     0.044 H 
BRANCH  55  58
ATOM     58  CG  MOL d          49.936  19.310  -9.639  0.00  0.00    -0.056 A 
ATOM     59  CD1 MOL d          49.365  19.175 -10.910  0.00  0.00    -0.077 A 
ATOM     60  CE1 MOL d          49.727  20.045 -11.947  0.00  0.00    -0.082 A 
ATOM     61  H12 MOL d          48.637  18.393 -11.094  0.00  0.00     0.084 H 
ATOM     62  CZ  MOL d          50.656  21.043 -11.678  0.00  0.00    -0.083 A 
ATOM     63  H14 MOL d          49.294  19.942 -12.934  0.00  0.00     0.083 H 
ATOM     64  CE2 MOL d          51.212  21.188 -10.373  0.00  0.00    -0.082 A 
ATOM     65  H16 MOL d          50.962  21.718 -12.468  0.00  0.00     0.083 H 
ATOM     66  CD2 MOL d          50.827  20.313  -9.347  0.00  0.00    -0.077 A 
ATOM     67  H15 MOL d          51.931  21.974 -10.174  0.00  0.00     0.083 H 
ATOM     68  H13 MOL d          51.225  20.426  -8.345  0.00  0.00     0.084 H 
ENDBRANCH  55  58
ENDBRANCH   1  55
TORSDOF 17
ENDMDL
MODEL 3
REMARK VINA RESULT:      -6.3      3.264      8.366
REMARK  17 active torsions:
REMARK  status: ('A' for Active; 'I' for Inactive)
REMARK    1  A    between atoms: C_1  and  OA_3 
REMARK       I    between atoms: N_11  and  C_1 
REMARK    2  A    between atoms: OA_3  and  CB_4 
REMARK    3  A    between atoms: CB_4  and  CG_5 
REMARK    4  A    between atoms: CA_12  and  N_11 
REMARK    5  A    between atoms: P_13  and  CA_12 
REMARK    6  A    between atoms: CA_12  and  CB_16 
REMARK    7  A    between atoms: P_13  and  N_23 
REMARK    8  A    between atoms: CB_16  and  CG_17 
REMARK    9  A    between atoms: N_23  and  CA_24 
REMARK   10  A    between atoms: CA_24  and  CB_27 
REMARK   11  A    between atoms: CA_24  and  C_25 
REMARK       I    between atoms: C_25  and  N_31 
REMARK   12  A    between atoms: CB_27  and  CG_28 
REMARK   13  A    between atoms: CG_28  and  CD1_29 
REMARK   14  A    between atoms: CG_28  and  CD2_30 
REMARK   15  A    between atoms: N_31  and  CA_32 
REMARK   16  A    between atoms: CA_32  and  CB_35 
REMARK   17  A    between atoms: CA_32  and  C_33 
ROOT
ATOM      1  CA  MOL d          52.434  16.861  -4.362  0.00  0.00     0.112 C 
ATOM      2  H9  MOL d          51.648  16.762  -3.598  0.00  0.00     0.092 H 
ENDROOT
BRANCH   1   3
ATOM      3  N   MOL d          52.451  15.721  -5.321  0.00  0.00    -0.321 N 
ATOM      4  C   MOL d          52.258  14.458  -4.911  0.00  0.00     0.361 C 
ATOM      5  O   MOL d          52.123  14.072  -3.700  0.00  0.00    -0.238 OA
ATOM      6  H8  MOL d          52.610  15.901  -6.291  0.00  0.00     0.165 HD
BRANCH   4   7
ATOM      7  OA  MOL d          52.177  13.666  -6.037  0.00  0.00    -0.299 OA
BRANCH   7   8
ATOM      8  CB  MOL d          51.178  12.639  -6.145  0.00  0.00     0.054 C 
ATOM      9  H1  MOL d          50.495  12.651  -5.283  0.00  0.00     0.082 H 
ATOM     10  H2  MOL d          51.635  11.643  -6.237  0.00  0.00     0.082 H 
BRANCH   8  11
ATOM     11  CG  MOL d          50.478  13.031  -7.397  0.00  0.00    -0.034 A 
ATOM     12  CD1 MOL d          51.021  13.404  -8.631  0.00  0.00    -0.075 A 
ATOM     13  CE1 MOL d          50.239  13.710  -9.776  0.00  0.00    -0.082 A 
ATOM     14  H3  MOL d          52.101  13.462  -8.719  0.00  0.00     0.084 H 
ATOM     15  CZ  MOL d          48.913  13.628  -9.780  0.00  0.00    -0.083 A 
ATOM     16  H5  MOL d          50.744  14.022 -10.683  0.00  0.00     0.083 H 
ATOM     17  CE2 MOL d          48.471  13.283  -8.566  0.00  0.00    -0.082 A 
ATOM     18  H7  MOL d          48.281  13.814 -10.641  0.00  0.00     0.083 H 
ATOM     19  CD2 MOL d          49.139  12.958  -7.368  0.00  0.00    -0.075 A 
ATOM     20  H6  MOL d          47.391  13.247  -8.488  0.00  0.00     0.083 H 
ATOM     21  H4  MOL d          48.601  12.665  -6.473  0.00  0.00     0.084 H 
ENDBRANCH   8  11
ENDBRANCH   7   8
ENDBRANCH   4   7
ENDBRANCH   1   3
BRANCH   1  22
ATOM     22  P   MOL d          52.220  18.220  -5.277  0.00  0.00     0.229 P 
ATOM     23  OP1 MOL d          52.211  19.525  -4.393  0.00  0.00    -0.650 OA
ATOM     24  OP2 MOL d          53.252  18.314  -6.478  0.00  0.00    -0.650 OA
BRANCH  22  25
ATOM     25  N   MOL d          50.531  17.855  -6.063  0.00  0.00    -0.334 N 
ATOM     26  H17 MOL d          49.712  17.680  -5.517  0.00  0.00     0.164 HD
BRANCH  25  27
ATOM     27  CA  MOL d          50.514  17.848  -7.532  0.00  0.00     0.091 C 
ATOM     28  H18 MOL d          51.503  17.488  -7.854  0.00  0.00     0.087 H 
BRANCH  27  29
ATOM     29  CB  MOL d          49.449  16.906  -8.107  0.00  0.00    -0.035 C 
ATOM     30  H19 MOL d          49.605  15.903  -7.682  0.00  0.00     0.037 H 
ATOM     31  H20 MOL d          49.572  16.864  -9.199  0.00  0.00     0.037 H 
BRANCH  29  32
ATOM     32  CG  MOL d          48.034  17.339  -7.801  0.00  0.00    -0.059 C 
ATOM     33  H21 MOL d          47.998  18.362  -7.398  0.00  0.00     0.038 H 
BRANCH  32  34
ATOM     34  CD1 MOL d          47.166  17.270  -9.070  0.00  0.00    -0.073 C 
ATOM     35  H22 MOL d          46.458  16.433  -8.985  0.00  0.00     0.028 H 
ATOM     36  H23 MOL d          47.811  17.117  -9.948  0.00  0.00     0.028 H 
ATOM     37  H24 MOL d          46.608  18.211  -9.185  0.00  0.00     0.028 H 
ENDBRANCH  32  34
BRANCH  32  38
ATOM     38  CD2 MOL d          47.674  16.325  -6.735  0.00  0.00    -0.073 C 
ATOM     39  H25 MOL d          48.564  16.099  -6.130  0.00  0.00     0.028 H 
ATOM     40  H26 MOL d          47.312  15.403  -7.214  0.00  0.00     0.028 H 
ATOM     41  H27 MOL d          46.885  16.737  -6.089  0.00  0.00     0.028 H 
ENDBRANCH  32  38
ENDBRANCH  29  32
ENDBRANCH  27  29
BRANCH  27  42
ATOM     42  C   MOL d          50.276  19.215  -8.193  0.00  0.00     0.241 C 
ATOM     43  O   MOL d          50.298  20.262  -7.535  0.00  0.00    -0.271 OA
ATOM     44  N   MOL d          50.125  19.201  -9.503  0.00  0.00    -0.345 N 
ATOM     45  H28 MOL d          50.135  18.310  -9.957  0.00  0.00     0.163 HD
BRANCH  44  46
ATOM     46  CA  MOL d          49.942  20.394 -10.354  0.00  0.00     0.093 C 
ATOM     47  H29 MOL d          49.252  21.091  -9.856  0.00  0.00     0.089 H 
BRANCH  46  48
ATOM     48  CB  MOL d          51.290  21.069 -10.529  0.00  0.00    -0.048 C 
ATOM     49  H30 MOL d          51.669  21.391  -9.548  0.00  0.00     0.030 H 
ATOM     50  H31 MOL d          51.179  21.946 -11.185  0.00  0.00     0.030 H 
ATOM     51  H32 MOL d          51.999  20.361 -10.982  0.00  0.00     0.030 H 
ENDBRANCH  46  48
BRANCH  46  52
ATOM     52  C   MOL d          49.344  20.001 -11.728  0.00  0.00     0.196 C 
ATOM     53  O   MOL d          48.203  19.500 -11.804  0.00  0.00    -0.646 OA
ATOM     54  OXT MOL d          49.877  20.231 -12.874  0.00  0.00    -0.646 OA
ENDBRANCH  46  52
ENDBRANCH  44  46
ENDBRANCH  27  42
ENDBRANCH  25  27
ENDBRANCH  22  25
ENDBRANCH   1  22
BRANCH   1  55
ATOM     55  CB  MOL d          53.799  16.852  -3.759  0.00  0.00    -0.011 C 
ATOM     56  H10 MOL d          54.479  17.490  -4.343  0.00  0.00     0.044 H 
ATOM     57  H11 MOL d          54.195  15.827  -3.727  0.00  0.00     0.044 H 
BRANCH  55  58
ATOM     58  CG  MOL d          53.639  17.399  -2.355  0.00  0.00    -0.056 A 
ATOM     59  CD1 MOL d          52.747  16.719  -1.516  0.00  0.00    -0.077 A 
ATOM     60  CE1 MOL d          52.554  17.143  -0.195  0.00  0.00    -0.082 A 
ATOM     61  H12 MOL d          52.203  15.859  -1.890  0.00  0.00     0.084 H 
ATOM     62  CZ  MOL d          53.272  18.243   0.258  0.00  0.00    -0.083 A 
ATOM     63  H14 MOL d          51.861  16.625   0.458  0.00  0.00     0.083 H 
ATOM     64  CE2 MOL d          54.196  18.911  -0.596  0.00  0.00    -0.082 A 
ATOM     65  H16 MOL d          53.127  18.597   1.273  0.00  0.00     0.083 H 
ATOM     66  CD2 MOL d          54.382  18.463  -1.912  0.00  0.00    -0.077 A 
ATOM     67  H15 MOL d          54.755  19.765  -0.229  0.00  0.00     0.083 H 
ATOM     68  H13 MOL d          55.098  18.949  -2.565  0.00  0.00     0.084 H 
ENDBRANCH  55  58
ENDBRANCH   1  55
TORSDOF 17
ENDMDL
MODEL 4
REMARK VINA RESULT:      -6.3      2.443      6.371
REMARK  17 active torsions:
REMARK  status: ('A' for Active; 'I' for Inactive)
REMARK    1  A    between atoms: C_1  and  OA_3 
REMARK       I    between atoms: N_11  and  C_1 
REMARK    2  A    between atoms: OA_3  and  CB_4 
REMARK    3  A    between atoms: CB_4  and  CG_5 
REMARK    4  A    between atoms: CA_12  and  N_11 
REMARK    5  A    between atoms: P_13  and  CA_12 
REMARK    6  A    between atoms: CA_12  and  CB_16 
REMARK    7  A    between atoms: P_13  and  N_23 
REMARK    8  A    between atoms: CB_16  and  CG_17 
REMARK    9  A    between atoms: N_23  and  CA_24 
REMARK   10  A    between atoms: CA_24  and  CB_27 
REMARK   11  A    between atoms: CA_24  and  C_25 
REMARK       I    between atoms: C_25  and  N_31 
REMARK   12  A    between atoms: CB_27  and  CG_28 
REMARK   13  A    between atoms: CG_28  and  CD1_29 
REMARK   14  A    between atoms: CG_28  and  CD2_30 
REMARK   15  A    between atoms: N_31  and  CA_32 
REMARK   16  A    between atoms: CA_32  and  CB_35 
REMARK   17  A    between atoms: CA_32  and  C_33 
ROOT
ATOM      1  CA  MOL d          50.515  20.151 -10.626  0.00  0.00     0.112 C 
ATOM      2  H9  MOL d          51.217  19.314 -10.750  0.00  0.00     0.092 H 
ENDROOT
BRANCH   1   3
ATOM      3  N   MOL d          49.341  20.058 -11.539  0.00  0.00    -0.321 N 
ATOM      4  C   MOL d          48.750  18.883 -11.803  0.00  0.00     0.361 C 
ATOM      5  O   MOL d          49.142  17.736 -11.397  0.00  0.00    -0.238 OA
ATOM      6  H8  MOL d          48.986  20.890 -11.964  0.00  0.00     0.165 HD
BRANCH   4   7
ATOM      7  OA  MOL d          47.618  19.147 -12.544  0.00  0.00    -0.299 OA
BRANCH   7   8
ATOM      8  CB  MOL d          47.636  19.046 -13.978  0.00  0.00     0.054 C 
ATOM      9  H1  MOL d          48.552  19.485 -14.399  0.00  0.00     0.082 H 
ATOM     10  H2  MOL d          46.757  19.532 -14.425  0.00  0.00     0.082 H 
BRANCH   8  11
ATOM     11  CG  MOL d          47.600  17.573 -14.176  0.00  0.00    -0.034 A 
ATOM     12  CD1 MOL d          48.616  16.717 -14.617  0.00  0.00    -0.075 A 
ATOM     13  CE1 MOL d          48.471  15.309 -14.717  0.00  0.00    -0.082 A 
ATOM     14  H3  MOL d          49.567  17.155 -14.899  0.00  0.00     0.084 H 
ATOM     15  CZ  MOL d          47.360  14.675 -14.358  0.00  0.00    -0.083 A 
ATOM     16  H5  MOL d          49.301  14.726 -15.102  0.00  0.00     0.083 H 
ATOM     17  CE2 MOL d          46.436  15.558 -13.965  0.00  0.00    -0.082 A 
ATOM     18  H7  MOL d          47.221  13.601 -14.382  0.00  0.00     0.083 H 
ATOM     19  CD2 MOL d          46.461  16.961 -13.823  0.00  0.00    -0.075 A 
ATOM     20  H6  MOL d          45.485  15.109 -13.704  0.00  0.00     0.083 H 
ATOM     21  H4  MOL d          45.606  17.514 -13.450  0.00  0.00     0.084 H 
ENDBRANCH   8  11
ENDBRANCH   7   8
ENDBRANCH   4   7
ENDBRANCH   1   3
BRANCH   1  22
ATOM     22  P   MOL d          49.896  20.199  -9.095  0.00  0.00     0.229 P 
ATOM     23  OP1 MOL d          50.183  21.580  -8.391  0.00  0.00    -0.650 OA
ATOM     24  OP2 MOL d          48.360  19.807  -9.047  0.00  0.00    -0.650 OA
BRANCH  22  25
ATOM     25  N   MOL d          50.832  18.757  -8.290  0.00  0.00    -0.334 N 
ATOM     26  H17 MOL d          51.467  18.178  -8.801  0.00  0.00     0.164 HD
BRANCH  25  27
ATOM     27  CA  MOL d          50.556  18.555  -6.860  0.00  0.00     0.091 C 
ATOM     28  H18 MOL d          49.743  19.247  -6.598  0.00  0.00     0.087 H 
BRANCH  27  29
ATOM     29  CB  MOL d          50.092  17.127  -6.545  0.00  0.00    -0.035 C 
ATOM     30  H19 MOL d          49.754  17.093  -5.500  0.00  0.00     0.037 H 
ATOM     31  H20 MOL d          50.946  16.446  -6.676  0.00  0.00     0.037 H 
BRANCH  29  32
ATOM     32  CG  MOL d          48.962  16.652  -7.429  0.00  0.00    -0.059 C 
ATOM     33  H21 MOL d          48.897  17.237  -8.358  0.00  0.00     0.038 H 
BRANCH  32  34
ATOM     34  CD1 MOL d          49.149  15.166  -7.786  0.00  0.00    -0.073 C 
ATOM     35  H22 MOL d          50.144  15.018  -8.230  0.00  0.00     0.028 H 
ATOM     36  H23 MOL d          48.376  14.862  -8.507  0.00  0.00     0.028 H 
ATOM     37  H24 MOL d          49.059  14.556  -6.875  0.00  0.00     0.028 H 
ENDBRANCH  32  34
BRANCH  32  38
ATOM     38  CD2 MOL d          47.783  16.940  -6.525  0.00  0.00    -0.073 C 
ATOM     39  H25 MOL d          47.698  16.145  -5.769  0.00  0.00     0.028 H 
ATOM     40  H26 MOL d          46.862  16.976  -7.123  0.00  0.00     0.028 H 
ATOM     41  H27 MOL d          47.934  17.908  -6.024  0.00  0.00     0.028 H 
ENDBRANCH  32  38
ENDBRANCH  29  32
ENDBRANCH  27  29
BRANCH  27  42
ATOM     42  C   MOL d          51.736  18.839  -5.917  0.00  0.00     0.241 C 
ATOM     43  O   MOL d          52.470  19.820  -6.080  0.00  0.00    -0.271 OA
ATOM     44  N   MOL d          51.862  18.018  -4.892  0.00  0.00    -0.345 N 
ATOM     45  H28 MOL d          51.214  17.259  -4.829  0.00  0.00     0.163 HD
BRANCH  44  46
ATOM     46  CA  MOL d          52.881  18.130  -3.829  0.00  0.00     0.093 C 
ATOM     47  H29 MOL d          53.591  18.927  -4.092  0.00  0.00     0.089 H 
BRANCH  46  48
ATOM     48  CB  MOL d          52.182  18.494  -2.532  0.00  0.00    -0.048 C 
ATOM     49  H30 MOL d          51.615  17.627  -2.165  0.00  0.00     0.030 H 
ATOM     50  H31 MOL d          51.495  19.335  -2.709  0.00  0.00     0.030 H 
ATOM     51  H32 MOL d          52.932  18.787  -1.781  0.00  0.00     0.030 H 
ENDBRANCH  46  48
BRANCH  46  52
ATOM     52  C   MOL d          53.661  16.800  -3.676  0.00  0.00     0.196 C 
ATOM     53  O   MOL d          54.752  16.770  -3.069  0.00  0.00    -0.646 OA
ATOM     54  OXT MOL d          53.248  15.639  -4.038  0.00  0.00    -0.646 OA
ENDBRANCH  46  52
ENDBRANCH  44  46
ENDBRANCH  27  42
ENDBRANCH  25  27
ENDBRANCH  22  25
ENDBRANCH   1  22
BRANCH   1  55
ATOM     55  CB  MOL d          51.144  21.459 -10.972  0.00  0.00    -0.011 C 
ATOM     56  H10 MOL d          52.210  21.320 -11.205  0.00  0.00     0.044 H 
ATOM     57  H11 MOL d          51.042  22.165 -10.135  0.00  0.00     0.044 H 
BRANCH  55  58
ATOM     58  CG  MOL d          50.400  21.972 -12.188  0.00  0.00    -0.056 A 
ATOM     59  CD1 MOL d          50.956  21.667 -13.437  0.00  0.00    -0.077 A 
ATOM     60  CE1 MOL d          50.323  22.083 -14.615  0.00  0.00    -0.082 A 
ATOM     61  H12 MOL d          51.882  21.106 -13.493  0.00  0.00     0.084 H 
ATOM     62  CZ  MOL d          49.133  22.794 -14.511  0.00  0.00    -0.083 A 
ATOM     63  H14 MOL d          50.751  21.856 -15.585  0.00  0.00     0.083 H 
ATOM     64  CE2 MOL d          48.563  23.076 -13.236  0.00  0.00    -0.082 A 
ATOM     65  H16 MOL d          48.634  23.138 -15.409  0.00  0.00     0.083 H 
ATOM     66  CD2 MOL d          49.208  22.641 -12.069  0.00  0.00    -0.077 A 
ATOM     67  H15 MOL d          47.632  23.627 -13.168  0.00  0.00     0.083 H 
ATOM     68  H13 MOL d          48.773  22.829 -11.094  0.00  0.00     0.084 H 
ENDBRANCH  55  58
ENDBRANCH   1  55
TORSDOF 17
ENDMDL
MODEL 5
REMARK VINA RESULT:      -6.3      2.453      5.990
REMARK  17 active torsions:
REMARK  status: ('A' for Active; 'I' for Inactive)
REMARK    1  A    between atoms: C_1  and  OA_3 
REMARK       I    between atoms: N_11  and  C_1 
REMARK    2  A    between atoms: OA_3  and  CB_4 
REMARK    3  A    between atoms: CB_4  and  CG_5 
REMARK    4  A    between atoms: CA_12  and  N_11 
REMARK    5  A    between atoms: P_13  and  CA_12 
REMARK    6  A    between atoms: CA_12  and  CB_16 
REMARK    7  A    between atoms: P_13  and  N_23 
REMARK    8  A    between atoms: CB_16  and  CG_17 
REMARK    9  A    between atoms: N_23  and  CA_24 
REMARK   10  A    between atoms: CA_24  and  CB_27 
REMARK   11  A    between atoms: CA_24  and  C_25 
REMARK       I    between atoms: C_25  and  N_31 
REMARK   12  A    between atoms: CB_27  and  CG_28 
REMARK   13  A    between atoms: CG_28  and  CD1_29 
REMARK   14  A    between atoms: CG_28  and  CD2_30 
REMARK   15  A    between atoms: N_31  and  CA_32 
REMARK   16  A    between atoms: CA_32  and  CB_35 
REMARK   17  A    between atoms: CA_32  and  C_33 
ROOT
ATOM      1  CA  MOL d          50.185  18.385  -7.705  0.00  0.00     0.112 C 
ATOM      2  H9  MOL d          50.579  17.451  -8.132  0.00  0.00     0.092 H 
ENDROOT
BRANCH   1   3
ATOM      3  N   MOL d          50.849  18.758  -6.425  0.00  0.00    -0.321 N 
ATOM      4  C   MOL d          51.529  17.857  -5.700  0.00  0.00     0.361 C 
ATOM      5  O   MOL d          51.626  16.607  -5.951  0.00  0.00    -0.238 OA
ATOM      6  H8  MOL d          50.786  19.701  -6.099  0.00  0.00     0.165 HD
BRANCH   4   7
ATOM      7  OA  MOL d          52.146  18.536  -4.671  0.00  0.00    -0.299 OA
BRANCH   7   8
ATOM      8  CB  MOL d          53.560  18.411  -4.450  0.00  0.00     0.054 C 
ATOM      9  H1  MOL d          54.117  19.223  -4.941  0.00  0.00     0.082 H 
ATOM     10  H2  MOL d          53.938  17.441  -4.805  0.00  0.00     0.082 H 
BRANCH   8  11
ATOM     11  CG  MOL d          53.644  18.515  -2.968  0.00  0.00    -0.034 A 
ATOM     12  CD1 MOL d          54.452  19.349  -2.187  0.00  0.00    -0.075 A 
ATOM     13  CE1 MOL d          54.402  19.390  -0.769  0.00  0.00    -0.082 A 
ATOM     14  H3  MOL d          55.156  20.000  -2.694  0.00  0.00     0.084 H 
ATOM     15  CZ  MOL d          53.546  18.661  -0.061  0.00  0.00    -0.083 A 
ATOM     16  H5  MOL d          55.089  20.043  -0.243  0.00  0.00     0.083 H 
ATOM     17  CE2 MOL d          52.824  17.883  -0.874  0.00  0.00    -0.082 A 
ATOM     18  H7  MOL d          53.448  18.691   1.018  0.00  0.00     0.083 H 
ATOM     19  CD2 MOL d          52.782  17.755  -2.278  0.00  0.00    -0.075 A 
ATOM     20  H6  MOL d          52.138  17.225  -0.354  0.00  0.00     0.083 H 
ATOM     21  H4  MOL d          52.092  17.079  -2.771  0.00  0.00     0.084 H 
ENDBRANCH   8  11
ENDBRANCH   7   8
ENDBRANCH   4   7
ENDBRANCH   1   3
BRANCH   1  22
ATOM     22  P   MOL d          50.419  19.663  -8.727  0.00  0.00     0.229 P 
ATOM     23  OP1 MOL d          49.490  20.882  -8.360  0.00  0.00    -0.650 OA
ATOM     24  OP2 MOL d          51.944  20.081  -8.839  0.00  0.00    -0.650 OA
BRANCH  22  25
ATOM     25  N   MOL d          49.966  18.871 -10.392  0.00  0.00    -0.334 N 
ATOM     26  H17 MOL d          50.253  17.947 -10.642  0.00  0.00     0.164 HD
BRANCH  25  27
ATOM     27  CA  MOL d          49.164  19.716 -11.287  0.00  0.00     0.091 C 
ATOM     28  H18 MOL d          48.901  20.617 -10.713  0.00  0.00     0.087 H 
BRANCH  27  29
ATOM     29  CB  MOL d          49.936  20.151 -12.539  0.00  0.00    -0.035 C 
ATOM     30  H19 MOL d          49.348  19.872 -13.425  0.00  0.00     0.037 H 
ATOM     31  H20 MOL d          50.899  19.620 -12.556  0.00  0.00     0.037 H 
BRANCH  29  32
ATOM     32  CG  MOL d          50.207  21.637 -12.593  0.00  0.00    -0.059 C 
ATOM     33  H21 MOL d          49.341  22.223 -12.252  0.00  0.00     0.038 H 
BRANCH  32  34
ATOM     34  CD1 MOL d          51.426  21.991 -11.721  0.00  0.00    -0.073 C 
ATOM     35  H22 MOL d          51.579  21.205 -10.968  0.00  0.00     0.028 H 
ATOM     36  H23 MOL d          51.249  22.953 -11.217  0.00  0.00     0.028 H 
ATOM     37  H24 MOL d          52.321  22.069 -12.356  0.00  0.00     0.028 H 
ENDBRANCH  32  34
BRANCH  32  38
ATOM     38  CD2 MOL d          50.425  21.809 -14.081  0.00  0.00    -0.073 C 
ATOM     39  H25 MOL d          51.141  21.054 -14.436  0.00  0.00     0.028 H 
ATOM     40  H26 MOL d          50.825  22.814 -14.279  0.00  0.00     0.028 H 
ATOM     41  H27 MOL d          49.468  21.685 -14.608  0.00  0.00     0.028 H 
ENDBRANCH  32  38
ENDBRANCH  29  32
ENDBRANCH  27  29
BRANCH  27  42
ATOM     42  C   MOL d          47.856  19.084 -11.790  0.00  0.00     0.241 C 
ATOM     43  O   MOL d          46.766  19.361 -11.276  0.00  0.00    -0.271 OA
ATOM     44  N   MOL d          47.967  18.297 -12.842  0.00  0.00    -0.345 N 
ATOM     45  H28 MOL d          48.886  18.139 -13.204  0.00  0.00     0.163 HD
BRANCH  44  46
ATOM     46  CA  MOL d          46.844  17.628 -13.531  0.00  0.00     0.093 C 
ATOM     47  H29 MOL d          45.994  17.545 -12.838  0.00  0.00     0.089 H 
BRANCH  46  48
ATOM     48  CB  MOL d          46.436  18.480 -14.719  0.00  0.00    -0.048 C 
ATOM     49  H30 MOL d          45.582  18.012 -15.230  0.00  0.00     0.030 H 
ATOM     50  H31 MOL d          47.281  18.563 -15.418  0.00  0.00     0.030 H 
ATOM     51  H32 MOL d          46.150  19.483 -14.370  0.00  0.00     0.030 H 
ENDBRANCH  46  48
BRANCH  46  52
ATOM     52  C   MOL d          47.252  16.206 -13.991  0.00  0.00     0.196 C 
ATOM     53  O   MOL d          48.380  15.749 -13.716  0.00  0.00    -0.646 OA
ATOM     54  OXT MOL d          46.486  15.356 -14.574  0.00  0.00    -0.646 OA
ENDBRANCH  46  52
ENDBRANCH  44  46
ENDBRANCH  27  42
ENDBRANCH  25  27
ENDBRANCH  22  25
ENDBRANCH   1  22
BRANCH   1  55
ATOM     55  CB  MOL d          48.741  18.266  -7.347  0.00  0.00    -0.011 C 
ATOM     56  H10 MOL d          48.186  19.148  -7.697  0.00  0.00     0.044 H 
ATOM     57  H11 MOL d          48.625  18.168  -6.258  0.00  0.00     0.044 H 
BRANCH  55  58
ATOM     58  CG  MOL d          48.240  17.018  -8.044  0.00  0.00    -0.056 A 
ATOM     59  CD1 MOL d          49.016  15.861  -7.895  0.00  0.00    -0.077 A 
ATOM     60  CE1 MOL d          48.615  14.657  -8.488  0.00  0.00    -0.082 A 
ATOM     61  H12 MOL d          49.932  15.898  -7.316  0.00  0.00     0.084 H 
ATOM     62  CZ  MOL d          47.432  14.640  -9.216  0.00  0.00    -0.083 A 
ATOM     63  H14 MOL d          49.215  13.760  -8.381  0.00  0.00     0.083 H 
ATOM     64  CE2 MOL d          46.637  15.816  -9.340  0.00  0.00    -0.082 A 
ATOM     65  H16 MOL d          47.110  13.722  -9.695  0.00  0.00     0.083 H 
ATOM     66  CD2 MOL d          47.051  17.008  -8.729  0.00  0.00    -0.077 A 
ATOM     67  H15 MOL d          45.713  15.788  -9.906  0.00  0.00     0.083 H 
ATOM     68  H13 MOL d          46.444  17.904  -8.797  0.00  0.00     0.084 H 
ENDBRANCH  55  58
ENDBRANCH   1  55
TORSDOF 17
ENDMDL
MODEL 6
REMARK VINA RESULT:      -5.8      2.399      5.938
REMARK  17 active torsions:
REMARK  status: ('A' for Active; 'I' for Inactive)
REMARK    1  A    between atoms: C_1  and  OA_3 
REMARK       I    between atoms: N_11  and  C_1 
REMARK    2  A    between atoms: OA_3  and  CB_4 
REMARK    3  A    between atoms: CB_4  and  CG_5 
REMARK    4  A    between atoms: CA_12  and  N_11 
REMARK    5  A    between atoms: P_13  and  CA_12 
REMARK    6  A    between atoms: CA_12  and  CB_16 
REMARK    7  A    between atoms: P_13  and  N_23 
REMARK    8  A    between atoms: CB_16  and  CG_17 
REMARK    9  A    between atoms: N_23  and  CA_24 
REMARK   10  A    between atoms: CA_24  and  CB_27 
REMARK   11  A    between atoms: CA_24  and  C_25 
REMARK       I    between atoms: C_25  and  N_31 
REMARK   12  A    between atoms: CB_27  and  CG_28 
REMARK   13  A    between atoms: CG_28  and  CD1_29 
REMARK   14  A    between atoms: CG_28  and  CD2_30 
REMARK   15  A    between atoms: N_31  and  CA_32 
REMARK   16  A    between atoms: CA_32  and  CB_35 
REMARK   17  A    between atoms: CA_32  and  C_33 
ROOT
ATOM      1  CA  MOL d          50.150  18.138  -8.358  0.00  0.00     0.112 C 
ATOM      2  H9  MOL d          50.946  17.717  -8.990  0.00  0.00     0.092 H 
ENDROOT
BRANCH   1   3
ATOM      3  N   MOL d          50.539  18.221  -6.922  0.00  0.00    -0.321 N 
ATOM      4  C   MOL d          51.796  18.510  -6.553  0.00  0.00     0.361 C 
ATOM      5  O   MOL d          52.794  18.664  -7.336  0.00  0.00    -0.238 OA
ATOM      6  H8  MOL d          49.848  18.058  -6.219  0.00  0.00     0.165 HD
BRANCH   4   7
ATOM      7  OA  MOL d          51.799  18.665  -5.183  0.00  0.00    -0.299 OA
BRANCH   7   8
ATOM      8  CB  MOL d          52.180  17.580  -4.320  0.00  0.00     0.054 C 
ATOM      9  H1  MOL d          52.955  16.953  -4.784  0.00  0.00     0.082 H 
ATOM     10  H2  MOL d          51.314  16.956  -4.054  0.00  0.00     0.082 H 
BRANCH   8  11
ATOM     11  CG  MOL d          52.708  18.309  -3.136  0.00  0.00    -0.034 A 
ATOM     12  CD1 MOL d          52.140  18.453  -1.865  0.00  0.00    -0.075 A 
ATOM     13  CE1 MOL d          52.773  19.136  -0.793  0.00  0.00    -0.082 A 
ATOM     14  H3  MOL d          51.163  18.017  -1.688  0.00  0.00     0.084 H 
ATOM     15  CZ  MOL d          53.986  19.668  -0.899  0.00  0.00    -0.083 A 
ATOM     16  H5  MOL d          52.245  19.229   0.149  0.00  0.00     0.083 H 
ATOM     17  CE2 MOL d          54.452  19.503  -2.141  0.00  0.00    -0.082 A 
ATOM     18  H7  MOL d          54.520  20.163  -0.096  0.00  0.00     0.083 H 
ATOM     19  CD2 MOL d          53.926  18.851  -3.276  0.00  0.00    -0.075 A 
ATOM     20  H6  MOL d          55.421  19.958  -2.309  0.00  0.00     0.083 H 
ATOM     21  H4  MOL d          54.475  18.792  -4.209  0.00  0.00     0.084 H 
ENDBRANCH   8  11
ENDBRANCH   7   8
ENDBRANCH   4   7
ENDBRANCH   1   3
BRANCH   1  22
ATOM     22  P   MOL d          49.766  19.679  -8.814  0.00  0.00     0.229 P 
ATOM     23  OP1 MOL d          48.209  19.874  -8.964  0.00  0.00    -0.650 OA
ATOM     24  OP2 MOL d          50.422  20.773  -7.872  0.00  0.00    -0.650 OA
BRANCH  22  25
ATOM     25  N   MOL d          50.682  19.795 -10.473  0.00  0.00    -0.334 N 
ATOM     26  H17 MOL d          51.600  19.421 -10.606  0.00  0.00     0.164 HD
BRANCH  25  27
ATOM     27  CA  MOL d          49.944  20.474 -11.547  0.00  0.00     0.091 C 
ATOM     28  H18 MOL d          49.254  21.176 -11.056  0.00  0.00     0.087 H 
BRANCH  27  29
ATOM     29  CB  MOL d          50.863  21.275 -12.479  0.00  0.00    -0.035 C 
ATOM     30  H19 MOL d          50.262  21.654 -13.318  0.00  0.00     0.037 H 
ATOM     31  H20 MOL d          51.643  20.601 -12.862  0.00  0.00     0.037 H 
BRANCH  29  32
ATOM     32  CG  MOL d          51.532  22.448 -11.802  0.00  0.00    -0.059 C 
ATOM     33  H21 MOL d          52.341  22.125 -11.130  0.00  0.00     0.038 H 
BRANCH  32  34
ATOM     34  CD1 MOL d          52.111  23.414 -12.852  0.00  0.00    -0.073 C 
ATOM     35  H22 MOL d          51.754  24.434 -12.648  0.00  0.00     0.028 H 
ATOM     36  H23 MOL d          51.784  23.104 -13.855  0.00  0.00     0.028 H 
ATOM     37  H24 MOL d          53.210  23.394 -12.803  0.00  0.00     0.028 H 
ENDBRANCH  32  34
BRANCH  32  38
ATOM     38  CD2 MOL d          50.362  23.000 -11.016  0.00  0.00    -0.073 C 
ATOM     39  H25 MOL d          49.637  23.452 -11.708  0.00  0.00     0.028 H 
ATOM     40  H26 MOL d          50.722  23.763 -10.311  0.00  0.00     0.028 H 
ATOM     41  H27 MOL d          49.879  22.184 -10.458  0.00  0.00     0.028 H 
ENDBRANCH  32  38
ENDBRANCH  29  32
ENDBRANCH  27  29
BRANCH  27  42
ATOM     42  C   MOL d          49.111  19.555 -12.454  0.00  0.00     0.241 C 
ATOM     43  O   MOL d          49.358  19.445 -13.661  0.00  0.00    -0.271 OA
ATOM     44  N   MOL d          48.177  18.846 -11.851  0.00  0.00    -0.345 N 
ATOM     45  H28 MOL d          48.056  18.988 -10.869  0.00  0.00     0.163 HD
BRANCH  44  46
ATOM     46  CA  MOL d          47.297  17.859 -12.508  0.00  0.00     0.093 C 
ATOM     47  H29 MOL d          46.615  17.429 -11.760  0.00  0.00     0.089 H 
BRANCH  46  48
ATOM     48  CB  MOL d          46.482  18.576 -13.569  0.00  0.00    -0.048 C 
ATOM     49  H30 MOL d          46.910  18.371 -14.561  0.00  0.00     0.030 H 
ATOM     50  H31 MOL d          46.502  19.659 -13.377  0.00  0.00     0.030 H 
ATOM     51  H32 MOL d          45.442  18.219 -13.537  0.00  0.00     0.030 H 
ENDBRANCH  46  48
BRANCH  46  52
ATOM     52  C   MOL d          48.129  16.714 -13.138  0.00  0.00     0.196 C 
ATOM     53  O   MOL d          47.832  16.258 -14.262  0.00  0.00    -0.646 OA
ATOM     54  OXT MOL d          49.210  16.216 -12.655  0.00  0.00    -0.646 OA
ENDBRANCH  46  52
ENDBRANCH  44  46
ENDBRANCH  27  42
ENDBRANCH  25  27
ENDBRANCH  22  25
ENDBRANCH   1  22
BRANCH   1  55
ATOM     55  CB  MOL d          48.930  17.279  -8.357  0.00  0.00    -0.011 C 
ATOM     56  H10 MOL d          48.117  17.769  -8.913  0.00  0.00     0.044 H 
ATOM     57  H11 MOL d          48.602  17.083  -7.325  0.00  0.00     0.044 H 
BRANCH  55  58
ATOM     58  CG  MOL d          49.329  15.986  -9.037  0.00  0.00    -0.056 A 
ATOM     59  CD1 MOL d          48.289  15.116  -9.392  0.00  0.00    -0.077 A 
ATOM     60  CE1 MOL d          48.566  13.908 -10.044  0.00  0.00    -0.082 A 
ATOM     61  H12 MOL d          47.264  15.380  -9.159  0.00  0.00     0.084 H 
ATOM     62  CZ  MOL d          49.890  13.602 -10.335  0.00  0.00    -0.083 A 
ATOM     63  H14 MOL d          47.767  13.229 -10.315  0.00  0.00     0.083 H 
ATOM     64  CE2 MOL d          50.938  14.506  -9.994  0.00  0.00    -0.082 A 
ATOM     65  H16 MOL d          50.129  12.666 -10.827  0.00  0.00     0.083 H 
ATOM     66  CD2 MOL d          50.638  15.715  -9.350  0.00  0.00    -0.077 A 
ATOM     67  H15 MOL d          51.966  14.258 -10.231  0.00  0.00     0.083 H 
ATOM     68  H13 MOL d          51.423  16.421  -9.105  0.00  0.00     0.084 H 
ENDBRANCH  55  58
ENDBRANCH   1  55
TORSDOF 17
ENDMDL
MODEL 7
REMARK VINA RESULT:      -5.8      2.274      6.501
REMARK  17 active torsions:
REMARK  status: ('A' for Active; 'I' for Inactive)
REMARK    1  A    between atoms: C_1  and  OA_3 
REMARK       I    between atoms: N_11  and  C_1 
REMARK    2  A    between atoms: OA_3  and  CB_4 
REMARK    3  A    between atoms: CB_4  and  CG_5 
REMARK    4  A    between atoms: CA_12  and  N_11 
REMARK    5  A    between atoms: P_13  and  CA_12 
REMARK    6  A    between atoms: CA_12  and  CB_16 
REMARK    7  A    between atoms: P_13  and  N_23 
REMARK    8  A    between atoms: CB_16  and  CG_17 
REMARK    9  A    between atoms: N_23  and  CA_24 
REMARK   10  A    between atoms: CA_24  and  CB_27 
REMARK   11  A    between atoms: CA_24  and  C_25 
REMARK       I    between atoms: C_25  and  N_31 
REMARK   12  A    between atoms: CB_27  and  CG_28 
REMARK   13  A    between atoms: CG_28  and  CD1_29 
REMARK   14  A    between atoms: CG_28  and  CD2_30 
REMARK   15  A    between atoms: N_31  and  CA_32 
REMARK   16  A    between atoms: CA_32  and  CB_35 
REMARK   17  A    between atoms: CA_32  and  C_33 
ROOT
ATOM      1  CA  MOL d          49.360  17.472  -8.054  0.00  0.00     0.112 C 
ATOM      2  H9  MOL d          49.956  16.664  -8.505  0.00  0.00     0.092 H 
ENDROOT
BRANCH   1   3
ATOM      3  N   MOL d          50.052  18.124  -6.907  0.00  0.00    -0.321 N 
ATOM      4  C   MOL d          50.957  17.465  -6.168  0.00  0.00     0.361 C 
ATOM      5  O   MOL d          51.271  16.231  -6.287  0.00  0.00    -0.238 OA
ATOM      6  H8  MOL d          49.838  19.074  -6.684  0.00  0.00     0.165 HD
BRANCH   4   7
ATOM      7  OA  MOL d          51.521  18.373  -5.298  0.00  0.00    -0.299 OA
BRANCH   7   8
ATOM      8  CB  MOL d          52.930  18.347  -5.016  0.00  0.00     0.054 C 
ATOM      9  H1  MOL d          53.460  19.151  -5.547  0.00  0.00     0.082 H 
ATOM     10  H2  MOL d          53.374  17.376  -5.282  0.00  0.00     0.082 H 
BRANCH   8  11
ATOM     11  CG  MOL d          52.947  18.565  -3.545  0.00  0.00    -0.034 A 
ATOM     12  CD1 MOL d          51.925  18.360  -2.611  0.00  0.00    -0.075 A 
ATOM     13  CE1 MOL d          52.082  18.559  -1.214  0.00  0.00    -0.082 A 
ATOM     14  H3  MOL d          50.957  18.031  -2.976  0.00  0.00     0.084 H 
ATOM     15  CZ  MOL d          53.238  18.922  -0.668  0.00  0.00    -0.083 A 
ATOM     16  H5  MOL d          51.225  18.408  -0.567  0.00  0.00     0.083 H 
ATOM     17  CE2 MOL d          54.156  19.111  -1.622  0.00  0.00    -0.082 A 
ATOM     18  H7  MOL d          53.412  19.046   0.394  0.00  0.00     0.083 H 
ATOM     19  CD2 MOL d          54.120  18.949  -3.022  0.00  0.00    -0.075 A 
ATOM     20  H6  MOL d          55.112  19.458  -1.246  0.00  0.00     0.083 H 
ATOM     21  H4  MOL d          54.993  19.124  -3.642  0.00  0.00     0.084 H 
ENDBRANCH   8  11
ENDBRANCH   7   8
ENDBRANCH   4   7
ENDBRANCH   1   3
BRANCH   1  22
ATOM     22  P   MOL d          49.052  18.676  -9.142  0.00  0.00     0.229 P 
ATOM     23  OP1 MOL d          47.534  19.100  -9.131  0.00  0.00    -0.650 OA
ATOM     24  OP2 MOL d          50.025  19.916  -8.970  0.00  0.00    -0.650 OA
BRANCH  22  25
ATOM     25  N   MOL d          49.564  17.828 -10.762  0.00  0.00    -0.334 N 
ATOM     26  H17 MOL d          50.253  17.104 -10.794  0.00  0.00     0.164 HD
BRANCH  25  27
ATOM     27  CA  MOL d          48.874  18.312 -11.965  0.00  0.00     0.091 C 
ATOM     28  H18 MOL d          49.410  17.886 -12.826  0.00  0.00     0.087 H 
BRANCH  27  29
ATOM     29  CB  MOL d          47.412  17.852 -12.033  0.00  0.00    -0.035 C 
ATOM     30  H19 MOL d          46.792  18.706 -12.344  0.00  0.00     0.037 H 
ATOM     31  H20 MOL d          47.104  17.521 -11.030  0.00  0.00     0.037 H 
BRANCH  29  32
ATOM     32  CG  MOL d          47.183  16.717 -13.003  0.00  0.00    -0.059 C 
ATOM     33  H21 MOL d          46.272  16.868 -13.601  0.00  0.00     0.038 H 
BRANCH  32  34
ATOM     34  CD1 MOL d          48.386  16.572 -13.953  0.00  0.00    -0.073 C 
ATOM     35  H22 MOL d          48.025  16.411 -14.980  0.00  0.00     0.028 H 
ATOM     36  H23 MOL d          48.998  15.714 -13.641  0.00  0.00     0.028 H 
ATOM     37  H24 MOL d          48.993  17.488 -13.918  0.00  0.00     0.028 H 
ENDBRANCH  32  34
BRANCH  32  38
ATOM     38  CD2 MOL d          47.007  15.571 -12.029  0.00  0.00    -0.073 C 
ATOM     39  H25 MOL d          47.981  15.311 -11.590  0.00  0.00     0.028 H 
ATOM     40  H26 MOL d          46.600  14.698 -12.560  0.00  0.00     0.028 H 
ATOM     41  H27 MOL d          46.312  15.872 -11.231  0.00  0.00     0.028 H 
ENDBRANCH  32  38
ENDBRANCH  29  32
ENDBRANCH  27  29
BRANCH  27  42
ATOM     42  C   MOL d          48.849  19.840 -12.139  0.00  0.00     0.241 C 
ATOM     43  O   MOL d          47.785  20.469 -12.155  0.00  0.00    -0.271 OA
ATOM     44  N   MOL d          50.027  20.430 -12.191  0.00  0.00    -0.345 N 
ATOM     45  H28 MOL d          50.836  19.845 -12.157  0.00  0.00     0.163 HD
BRANCH  44  46
ATOM     46  CA  MOL d          50.247  21.887 -12.297  0.00  0.00     0.093 C 
ATOM     47  H29 MOL d          49.429  22.414 -11.785  0.00  0.00     0.089 H 
BRANCH  46  48
ATOM     48  CB  MOL d          51.560  22.223 -11.614  0.00  0.00    -0.048 C 
ATOM     49  H30 MOL d          51.907  23.210 -11.953  0.00  0.00     0.030 H 
ATOM     50  H31 MOL d          52.312  21.462 -11.870  0.00  0.00     0.030 H 
ATOM     51  H32 MOL d          51.413  22.240 -10.524  0.00  0.00     0.030 H 
ENDBRANCH  46  48
BRANCH  46  52
ATOM     52  C   MOL d          50.273  22.331 -13.781  0.00  0.00     0.196 C 
ATOM     53  O   MOL d          49.670  23.362 -14.146  0.00  0.00    -0.646 OA
ATOM     54  OXT MOL d          50.959  21.784 -14.719  0.00  0.00    -0.646 OA
ENDBRANCH  46  52
ENDBRANCH  44  46
ENDBRANCH  27  42
ENDBRANCH  25  27
ENDBRANCH  22  25
ENDBRANCH   1  22
BRANCH   1  55
ATOM     55  CB  MOL d          48.086  16.962  -7.470  0.00  0.00    -0.011 C 
ATOM     56  H10 MOL d          47.226  17.483  -7.916  0.00  0.00     0.044 H 
ATOM     57  H11 MOL d          48.078  17.111  -6.380  0.00  0.00     0.044 H 
BRANCH  55  58
ATOM     58  CG  MOL d          48.036  15.485  -7.800  0.00  0.00    -0.056 A 
ATOM     59  CD1 MOL d          47.069  14.724  -7.130  0.00  0.00    -0.077 A 
ATOM     60  CE1 MOL d          46.939  13.354  -7.390  0.00  0.00    -0.082 A 
ATOM     61  H12 MOL d          46.417  15.199  -6.405  0.00  0.00     0.084 H 
ATOM     62  CZ  MOL d          47.783  12.776  -8.330  0.00  0.00    -0.083 A 
ATOM     63  H14 MOL d          46.197  12.759  -6.870  0.00  0.00     0.083 H 
ATOM     64  CE2 MOL d          48.745  13.564  -9.026  0.00  0.00    -0.082 A 
ATOM     65  H16 MOL d          47.709  11.715  -8.537  0.00  0.00     0.083 H 
ATOM     66  CD2 MOL d          48.852  14.937  -8.758  0.00  0.00    -0.077 A 
ATOM     67  H15 MOL d          49.395  13.103  -9.761  0.00  0.00     0.083 H 
ATOM     68  H13 MOL d          49.565  15.552  -9.296  0.00  0.00     0.084 H 
ENDBRANCH  55  58
ENDBRANCH   1  55
TORSDOF 17
ENDMDL
MODEL 8
REMARK VINA RESULT:      -5.7      2.694      6.486
REMARK  17 active torsions:
REMARK  status: ('A' for Active; 'I' for Inactive)
REMARK    1  A    between atoms: C_1  and  OA_3 
REMARK       I    between atoms: N_11  and  C_1 
REMARK    2  A    between atoms: OA_3  and  CB_4 
REMARK    3  A    between atoms: CB_4  and  CG_5 
REMARK    4  A    between atoms: CA_12  and  N_11 
REMARK    5  A    between atoms: P_13  and  CA_12 
REMARK    6  A    between atoms: CA_12  and  CB_16 
REMARK    7  A    between atoms: P_13  and  N_23 
REMARK    8  A    between atoms: CB_16  and  CG_17 
REMARK    9  A    between atoms: N_23  and  CA_24 
REMARK   10  A    between atoms: CA_24  and  CB_27 
REMARK   11  A    between atoms: CA_24  and  C_25 
REMARK       I    between atoms: C_25  and  N_31 
REMARK   12  A    between atoms: CB_27  and  CG_28 
REMARK   13  A    between atoms: CG_28  and  CD1_29 
REMARK   14  A    between atoms: CG_28  and  CD2_30 
REMARK   15  A    between atoms: N_31  and  CA_32 
REMARK   16  A    between atoms: CA_32  and  CB_35 
REMARK   17  A    between atoms: CA_32  and  C_33 
ROOT
ATOM      1  CA  MOL d          50.201  17.121  -6.808  0.00  0.00     0.112 C 
ATOM      2  H9  MOL d          50.616  16.103  -6.868  0.00  0.00     0.092 H 
ENDROOT
BRANCH   1   3
ATOM      3  N   MOL d          50.757  17.902  -5.668  0.00  0.00    -0.321 N 
ATOM      4  C   MOL d          51.830  17.476  -4.984  0.00  0.00     0.361 C 
ATOM      5  O   MOL d          52.436  16.364  -5.152  0.00  0.00    -0.238 OA
ATOM      6  H8  MOL d          50.322  18.763  -5.408  0.00  0.00     0.165 HD
BRANCH   4   7
ATOM      7  OA  MOL d          52.186  18.479  -4.107  0.00  0.00    -0.299 OA
BRANCH   7   8
ATOM      8  CB  MOL d          53.549  18.636  -3.682  0.00  0.00     0.054 C 
ATOM      9  H1  MOL d          53.930  19.640  -3.918  0.00  0.00     0.082 H 
ATOM     10  H2  MOL d          54.202  17.879  -4.141  0.00  0.00     0.082 H 
BRANCH   8  11
ATOM     11  CG  MOL d          53.432  18.431  -2.214  0.00  0.00    -0.034 A 
ATOM     12  CD1 MOL d          52.580  17.576  -1.508  0.00  0.00    -0.075 A 
ATOM     13  CE1 MOL d          52.599  17.433  -0.095  0.00  0.00    -0.082 A 
ATOM     14  H3  MOL d          51.863  16.988  -2.072  0.00  0.00     0.084 H 
ATOM     15  CZ  MOL d          53.466  18.079   0.678  0.00  0.00    -0.083 A 
ATOM     16  H5  MOL d          51.879  16.771   0.371  0.00  0.00     0.083 H 
ATOM     17  CE2 MOL d          54.232  18.884  -0.066  0.00  0.00    -0.082 A 
ATOM     18  H7  MOL d          53.541  17.970   1.753  0.00  0.00     0.083 H 
ATOM     19  CD2 MOL d          54.306  19.109  -1.456  0.00  0.00    -0.075 A 
ATOM     20  H6  MOL d          54.930  19.479   0.511  0.00  0.00     0.083 H 
ATOM     21  H4  MOL d          55.029  19.792  -1.887  0.00  0.00     0.084 H 
ENDBRANCH   8  11
ENDBRANCH   7   8
ENDBRANCH   4   7
ENDBRANCH   1   3
BRANCH   1  22
ATOM     22  P   MOL d          50.545  17.995  -8.168  0.00  0.00     0.229 P 
ATOM     23  OP1 MOL d          51.776  18.954  -7.950  0.00  0.00    -0.650 OA
ATOM     24  OP2 MOL d          50.713  17.080  -9.452  0.00  0.00    -0.650 OA
BRANCH  22  25
ATOM     25  N   MOL d          48.913  18.937  -8.403  0.00  0.00    -0.334 N 
ATOM     26  H17 MOL d          48.178  18.914  -7.726  0.00  0.00     0.164 HD
BRANCH  25  27
ATOM     27  CA  MOL d          48.810  19.702  -9.654  0.00  0.00     0.091 C 
ATOM     28  H18 MOL d          48.814  20.765  -9.371  0.00  0.00     0.087 H 
BRANCH  27  29
ATOM     29  CB  MOL d          49.992  19.451 -10.599  0.00  0.00    -0.035 C 
ATOM     30  H19 MOL d          49.609  18.988 -11.520  0.00  0.00     0.037 H 
ATOM     31  H20 MOL d          50.692  18.761 -10.106  0.00  0.00     0.037 H 
BRANCH  29  32
ATOM     32  CG  MOL d          50.741  20.709 -10.972  0.00  0.00    -0.059 C 
ATOM     33  H21 MOL d          51.830  20.552 -10.969  0.00  0.00     0.038 H 
BRANCH  32  34
ATOM     34  CD1 MOL d          50.311  21.195 -12.368  0.00  0.00    -0.073 C 
ATOM     35  H22 MOL d          49.560  20.506 -12.781  0.00  0.00     0.028 H 
ATOM     36  H23 MOL d          51.186  21.224 -13.033  0.00  0.00     0.028 H 
ATOM     37  H24 MOL d          49.878  22.203 -12.288  0.00  0.00     0.028 H 
ENDBRANCH  32  34
BRANCH  32  38
ATOM     38  CD2 MOL d          50.321  21.612  -9.833  0.00  0.00    -0.073 C 
ATOM     39  H25 MOL d          49.487  22.251 -10.160  0.00  0.00     0.028 H 
ATOM     40  H26 MOL d          51.170  22.244  -9.533  0.00  0.00     0.028 H 
ATOM     41  H27 MOL d          50.001  20.999  -8.978  0.00  0.00     0.028 H 
ENDBRANCH  32  38
ENDBRANCH  29  32
ENDBRANCH  27  29
BRANCH  27  42
ATOM     42  C   MOL d          47.540  19.443 -10.480  0.00  0.00     0.241 C 
ATOM     43  O   MOL d          46.445  19.908 -10.142  0.00  0.00    -0.271 OA
ATOM     44  N   MOL d          47.710  18.765 -11.598  0.00  0.00    -0.345 N 
ATOM     45  H28 MOL d          48.634  18.439 -11.801  0.00  0.00     0.163 HD
BRANCH  44  46
ATOM     46  CA  MOL d          46.649  18.447 -12.575  0.00  0.00     0.093 C 
ATOM     47  H29 MOL d          45.667  18.590 -12.100  0.00  0.00     0.089 H 
BRANCH  46  48
ATOM     48  CB  MOL d          46.778  19.401 -13.748  0.00  0.00    -0.048 C 
ATOM     49  H30 MOL d          46.198  19.015 -14.600  0.00  0.00     0.030 H 
ATOM     50  H31 MOL d          47.836  19.489 -14.035  0.00  0.00     0.030 H 
ATOM     51  H32 MOL d          46.393  20.391 -13.461  0.00  0.00     0.030 H 
ENDBRANCH  46  48
BRANCH  46  52
ATOM     52  C   MOL d          46.762  16.977 -13.049  0.00  0.00     0.196 C 
ATOM     53  O   MOL d          46.572  16.680 -14.247  0.00  0.00    -0.646 OA
ATOM     54  OXT MOL d          47.144  15.982 -12.332  0.00  0.00    -0.646 OA
ENDBRANCH  46  52
ENDBRANCH  44  46
ENDBRANCH  27  42
ENDBRANCH  25  27
ENDBRANCH  22  25
ENDBRANCH   1  22
BRANCH   1  55
ATOM     55  CB  MOL d          48.730  17.107  -6.559  0.00  0.00    -0.011 C 
ATOM     56  H10 MOL d          48.272  18.038  -6.924  0.00  0.00     0.044 H 
ATOM     57  H11 MOL d          48.526  16.996  -5.484  0.00  0.00     0.044 H 
BRANCH  55  58
ATOM     58  CG  MOL d          48.188  15.917  -7.324  0.00  0.00    -0.056 A 
ATOM     59  CD1 MOL d          47.000  16.119  -8.038  0.00  0.00    -0.077 A 
ATOM     60  CE1 MOL d          46.439  15.079  -8.790  0.00  0.00    -0.082 A 
ATOM     61  H12 MOL d          46.511  17.086  -8.007  0.00  0.00     0.084 H 
ATOM     62  CZ  MOL d          47.094  13.853  -8.815  0.00  0.00    -0.083 A 
ATOM     63  H14 MOL d          45.517  15.227  -9.339  0.00  0.00     0.083 H 
ATOM     64  CE2 MOL d          48.316  13.667  -8.107  0.00  0.00    -0.082 A 
ATOM     65  H16 MOL d          46.670  13.031  -9.380  0.00  0.00     0.083 H 
ATOM     66  CD2 MOL d          48.866  14.724  -7.368  0.00  0.00    -0.077 A 
ATOM     67  H15 MOL d          48.820  12.708  -8.138  0.00  0.00     0.083 H 
ATOM     68  H13 MOL d          49.806  14.602  -6.843  0.00  0.00     0.084 H 
ENDBRANCH  55  58
ENDBRANCH   1  55
TORSDOF 17
ENDMDL
MODEL 9
REMARK VINA RESULT:      -5.4      2.021      6.266
REMARK  17 active torsions:
REMARK  status: ('A' for Active; 'I' for Inactive)
REMARK    1  A    between atoms: C_1  and  OA_3 
REMARK       I    between atoms: N_11  and  C_1 
REMARK    2  A    between atoms: OA_3  and  CB_4 
REMARK    3  A    between atoms: CB_4  and  CG_5 
REMARK    4  A    between atoms: CA_12  and  N_11 
REMARK    5  A    between atoms: P_13  and  CA_12 
REMARK    6  A    between atoms: CA_12  and  CB_16 
REMARK    7  A    between atoms: P_13  and  N_23 
REMARK    8  A    between atoms: CB_16  and  CG_17 
REMARK    9  A    between atoms: N_23  and  CA_24 
REMARK   10  A    between atoms: CA_24  and  CB_27 
REMARK   11  A    between atoms: CA_24  and  C_25 
REMARK       I    between atoms: C_25  and  N_31 
REMARK   12  A    between atoms: CB_27  and  CG_28 
REMARK   13  A    between atoms: CG_28  and  CD1_29 
REMARK   14  A    between atoms: CG_28  and  CD2_30 
REMARK   15  A    between atoms: N_31  and  CA_32 
REMARK   16  A    between atoms: CA_32  and  CB_35 
REMARK   17  A    between atoms: CA_32  and  C_33 
ROOT
ATOM      1  CA  MOL d          48.352  17.649  -8.815  0.00  0.00     0.112 C 
ATOM      2  H9  MOL d          48.232  18.400  -8.020  0.00  0.00     0.092 H 
ENDROOT
BRANCH   1   3
ATOM      3  N   MOL d          47.633  16.378  -8.520  0.00  0.00    -0.321 N 
ATOM      4  C   MOL d          47.250  16.063  -7.273  0.00  0.00     0.361 C 
ATOM      5  O   MOL d          47.507  16.733  -6.215  0.00  0.00    -0.238 OA
ATOM      6  H8  MOL d          47.432  15.746  -9.267  0.00  0.00     0.165 HD
BRANCH   4   7
ATOM      7  OA  MOL d          46.486  14.919  -7.352  0.00  0.00    -0.299 OA
BRANCH   7   8
ATOM      8  CB  MOL d          46.997  13.658  -6.890  0.00  0.00     0.054 C 
ATOM      9  H1  MOL d          46.244  12.862  -6.981  0.00  0.00     0.082 H 
ATOM     10  H2  MOL d          47.340  13.722  -5.847  0.00  0.00     0.082 H 
BRANCH   8  11
ATOM     11  CG  MOL d          48.136  13.436  -7.821  0.00  0.00    -0.034 A 
ATOM     12  CD1 MOL d          49.510  13.534  -7.573  0.00  0.00    -0.075 A 
ATOM     13  CE1 MOL d          50.507  13.245  -8.540  0.00  0.00    -0.082 A 
ATOM     14  H3  MOL d          49.830  13.848  -6.585  0.00  0.00     0.084 H 
ATOM     15  CZ  MOL d          50.216  12.816  -9.764  0.00  0.00    -0.083 A 
ATOM     16  H5  MOL d          51.549  13.380  -8.271  0.00  0.00     0.083 H 
ATOM     17  CE2 MOL d          48.890  12.764  -9.927  0.00  0.00    -0.082 A 
ATOM     18  H7  MOL d          50.946  12.547 -10.518  0.00  0.00     0.083 H 
ATOM     19  CD2 MOL d          47.813  13.021  -9.054  0.00  0.00    -0.075 A 
ATOM     20  H6  MOL d          48.584  12.467 -10.924  0.00  0.00     0.083 H 
ATOM     21  H4  MOL d          46.782  12.891  -9.363  0.00  0.00     0.084 H 
ENDBRANCH   8  11
ENDBRANCH   7   8
ENDBRANCH   4   7
ENDBRANCH   1   3
BRANCH   1  22
ATOM     22  P   MOL d          47.744  18.190 -10.253  0.00  0.00     0.229 P 
ATOM     23  OP1 MOL d          46.443  17.404 -10.671  0.00  0.00    -0.650 OA
ATOM     24  OP2 MOL d          47.530  19.761 -10.271  0.00  0.00    -0.650 OA
BRANCH  22  25
ATOM     25  N   MOL d          49.211  17.846 -11.408  0.00  0.00    -0.334 N 
ATOM     26  H17 MOL d          50.105  17.558 -11.068  0.00  0.00     0.164 HD
BRANCH  25  27
ATOM     27  CA  MOL d          48.935  18.033 -12.840  0.00  0.00     0.091 C 
ATOM     28  H18 MOL d          49.562  17.306 -13.376  0.00  0.00     0.087 H 
BRANCH  27  29
ATOM     29  CB  MOL d          47.469  17.760 -13.199  0.00  0.00    -0.035 C 
ATOM     30  H19 MOL d          47.019  18.696 -13.561  0.00  0.00     0.037 H 
ATOM     31  H20 MOL d          46.943  17.429 -12.291  0.00  0.00     0.037 H 
BRANCH  29  32
ATOM     32  CG  MOL d          47.297  16.704 -14.265  0.00  0.00    -0.059 C 
ATOM     33  H21 MOL d          46.756  17.091 -15.141  0.00  0.00     0.038 H 
BRANCH  32  34
ATOM     34  CD1 MOL d          48.668  16.171 -14.719  0.00  0.00    -0.073 C 
ATOM     35  H22 MOL d          49.366  17.012 -14.840  0.00  0.00     0.028 H 
ATOM     36  H23 MOL d          48.558  15.644 -15.678  0.00  0.00     0.028 H 
ATOM     37  H24 MOL d          49.060  15.476 -13.962  0.00  0.00     0.028 H 
ENDBRANCH  32  34
BRANCH  32  38
ATOM     38  CD2 MOL d          46.451  15.702 -13.507  0.00  0.00    -0.073 C 
ATOM     39  H25 MOL d          47.090  15.130 -12.819  0.00  0.00     0.028 H 
ATOM     40  H26 MOL d          45.972  15.014 -14.219  0.00  0.00     0.028 H 
ATOM     41  H27 MOL d          45.678  16.235 -12.935  0.00  0.00     0.028 H 
ENDBRANCH  32  38
ENDBRANCH  29  32
ENDBRANCH  27  29
BRANCH  27  42
ATOM     42  C   MOL d          49.258  19.430 -13.394  0.00  0.00     0.241 C 
ATOM     43  O   MOL d          49.048  19.718 -14.579  0.00  0.00    -0.271 OA
ATOM     44  N   MOL d          49.697  20.309 -12.515  0.00  0.00    -0.345 N 
ATOM     45  H28 MOL d          49.824  19.994 -11.575  0.00  0.00     0.163 HD
BRANCH  44  46
ATOM     46  CA  MOL d          50.015  21.721 -12.807  0.00  0.00     0.093 C 
ATOM     47  H29 MOL d          50.252  21.825 -13.875  0.00  0.00     0.089 H 
BRANCH  46  48
ATOM     48  CB  MOL d          48.795  22.564 -12.483  0.00  0.00    -0.048 C 
ATOM     49  H30 MOL d          47.937  22.207 -13.071  0.00  0.00     0.030 H 
ATOM     50  H31 MOL d          48.999  23.616 -12.734  0.00  0.00     0.030 H 
ATOM     51  H32 MOL d          48.566  22.481 -11.411  0.00  0.00     0.030 H 
ENDBRANCH  46  48
BRANCH  46  52
ATOM     52  C   MOL d          51.239  22.190 -11.979  0.00  0.00     0.196 C 
ATOM     53  O   MOL d          51.310  21.944 -10.757  0.00  0.00    -0.646 OA
ATOM     54  OXT MOL d          52.294  22.751 -12.448  0.00  0.00    -0.646 OA
ENDBRANCH  46  52
ENDBRANCH  44  46
ENDBRANCH  27  42
ENDBRANCH  25  27
ENDBRANCH  22  25
ENDBRANCH   1  22
BRANCH   1  55
ATOM     55  CB  MOL d          49.776  17.235  -8.977  0.00  0.00    -0.011 C 
ATOM     56  H10 MOL d          50.166  17.579  -9.947  0.00  0.00     0.044 H 
ATOM     57  H11 MOL d          49.865  16.141  -8.915  0.00  0.00     0.044 H 
BRANCH  55  58
ATOM     58  CG  MOL d          50.533  17.891  -7.842  0.00  0.00    -0.056 A 
ATOM     59  CD1 MOL d          50.950  17.054  -6.799  0.00  0.00    -0.077 A 
ATOM     60  CE1 MOL d          51.675  17.573  -5.719  0.00  0.00    -0.082 A 
ATOM     61  H12 MOL d          50.710  15.997  -6.828  0.00  0.00     0.084 H 
ATOM     62  CZ  MOL d          51.974  18.930  -5.714  0.00  0.00    -0.083 A 
ATOM     63  H14 MOL d          51.995  16.931  -4.906  0.00  0.00     0.083 H 
ATOM     64  CE2 MOL d          51.569  19.768  -6.793  0.00  0.00    -0.082 A 
ATOM     65  H16 MOL d          52.523  19.355  -4.882  0.00  0.00     0.083 H 
ATOM     66  CD2 MOL d          50.852  19.226  -7.870  0.00  0.00    -0.077 A 
ATOM     67  H15 MOL d          51.813  20.824  -6.781  0.00  0.00     0.083 H 
ATOM     68  H13 MOL d          50.557  19.848  -8.707  0.00  0.00     0.084 H 
ENDBRANCH  55  58
ENDBRANCH   1  55
TORSDOF 17
ENDMDL
MODEL 10
REMARK VINA RESULT:      -5.4      2.107      6.994
REMARK  17 active torsions:
REMARK  status: ('A' for Active; 'I' for Inactive)
REMARK    1  A    between atoms: C_1  and  OA_3 
REMARK       I    between atoms: N_11  and  C_1 
REMARK    2  A    between atoms: OA_3  and  CB_4 
REMARK    3  A    between atoms: CB_4  and  CG_5 
REMARK    4  A    between atoms: CA_12  and  N_11 
REMARK    5  A    between atoms: P_13  and  CA_12 
REMARK    6  A    between atoms: CA_12  and  CB_16 
REMARK    7  A    between atoms: P_13  and  N_23 
REMARK    8  A    between atoms: CB_16  and  CG_17 
REMARK    9  A    between atoms: N_23  and  CA_24 
REMARK   10  A    between atoms: CA_24  and  CB_27 
REMARK   11  A    between atoms: CA_24  and  C_25 
REMARK       I    between atoms: C_25  and  N_31 
REMARK   12  A    between atoms: CB_27  and  CG_28 
REMARK   13  A    between atoms: CG_28  and  CD1_29 
REMARK   14  A    between atoms: CG_28  and  CD2_30 
REMARK   15  A    between atoms: N_31  and  CA_32 
REMARK   16  A    between atoms: CA_32  and  CB_35 
REMARK   17  A    between atoms: CA_32  and  C_33 
ROOT
ATOM      1  CA  MOL d          51.143  17.369  -7.168  0.00  0.00     0.112 C 
ATOM      2  H9  MOL d          52.057  16.758  -7.135  0.00  0.00     0.092 H 
ENDROOT
BRANCH   1   3
ATOM      3  N   MOL d          51.095  18.268  -8.356  0.00  0.00    -0.321 N 
ATOM      4  C   MOL d          50.912  19.591  -8.226  0.00  0.00     0.361 C 
ATOM      5  O   MOL d          50.685  20.216  -7.134  0.00  0.00    -0.238 OA
ATOM      6  H8  MOL d          51.201  17.876  -9.269  0.00  0.00     0.165 HD
BRANCH   4   7
ATOM      7  OA  MOL d          51.070  20.154  -9.475  0.00  0.00    -0.299 OA
BRANCH   7   8
ATOM      8  CB  MOL d          50.526  21.450  -9.772  0.00  0.00     0.054 C 
ATOM      9  H1  MOL d          51.111  22.250  -9.293  0.00  0.00     0.082 H 
ATOM     10  H2  MOL d          49.475  21.526  -9.457  0.00  0.00     0.082 H 
BRANCH   8  11
ATOM     11  CG  MOL d          50.653  21.498 -11.253  0.00  0.00    -0.034 A 
ATOM     12  CD1 MOL d          49.953  20.771 -12.222  0.00  0.00    -0.075 A 
ATOM     13  CE1 MOL d          50.132  20.945 -13.619  0.00  0.00    -0.082 A 
ATOM     14  H3  MOL d          49.232  20.033 -11.886  0.00  0.00     0.084 H 
ATOM     15  CZ  MOL d          50.960  21.851 -14.128  0.00  0.00    -0.083 A 
ATOM     16  H5  MOL d          49.570  20.314 -14.299  0.00  0.00     0.083 H 
ATOM     17  CE2 MOL d          51.600  22.490 -13.144  0.00  0.00    -0.082 A 
ATOM     18  H7  MOL d          51.097  22.043 -15.186  0.00  0.00     0.083 H 
ATOM     19  CD2 MOL d          51.510  22.407 -11.739  0.00  0.00    -0.075 A 
ATOM     20  H6  MOL d          52.330  23.211 -13.493  0.00  0.00     0.083 H 
ATOM     21  H4  MOL d          52.100  23.044 -11.089  0.00  0.00     0.084 H 
ENDBRANCH   8  11
ENDBRANCH   7   8
ENDBRANCH   4   7
ENDBRANCH   1   3
BRANCH   1  22
ATOM     22  P   MOL d          49.788  16.427  -7.258  0.00  0.00     0.229 P 
ATOM     23  OP1 MOL d          50.095  14.926  -6.886  0.00  0.00    -0.650 OA
ATOM     24  OP2 MOL d          48.579  17.019  -6.421  0.00  0.00    -0.650 OA
BRANCH  22  25
ATOM     25  N   MOL d          49.323  16.649  -9.085  0.00  0.00    -0.334 N 
ATOM     26  H17 MOL d          49.658  17.415  -9.634  0.00  0.00     0.164 HD
BRANCH  25  27
ATOM     27  CA  MOL d          48.436  15.614  -9.633  0.00  0.00     0.091 C 
ATOM     28  H18 MOL d          49.049  14.709  -9.756  0.00  0.00     0.087 H 
BRANCH  27  29
ATOM     29  CB  MOL d          47.268  15.280  -8.695  0.00  0.00    -0.035 C 
ATOM     30  H19 MOL d          46.358  15.753  -9.091  0.00  0.00     0.037 H 
ATOM     31  H20 MOL d          47.492  15.691  -7.700  0.00  0.00     0.037 H 
BRANCH  29  32
ATOM     32  CG  MOL d          47.015  13.797  -8.555  0.00  0.00    -0.059 C 
ATOM     33  H21 MOL d          46.153  13.472  -9.156  0.00  0.00     0.038 H 
BRANCH  32  34
ATOM     34  CD1 MOL d          48.257  12.997  -8.987  0.00  0.00    -0.073 C 
ATOM     35  H22 MOL d          48.652  13.413  -9.926  0.00  0.00     0.028 H 
ATOM     36  H23 MOL d          47.980  11.944  -9.140  0.00  0.00     0.028 H 
ATOM     37  H24 MOL d          49.027  13.064  -8.204  0.00  0.00     0.028 H 
ENDBRANCH  32  34
BRANCH  32  38
ATOM     38  CD2 MOL d          46.701  13.724  -7.076  0.00  0.00    -0.073 C 
ATOM     39  H25 MOL d          46.626  12.671  -6.769  0.00  0.00     0.028 H 
ATOM     40  H26 MOL d          45.746  14.232  -6.877  0.00  0.00     0.028 H 
ATOM     41  H27 MOL d          47.504  14.217  -6.507  0.00  0.00     0.028 H 
ENDBRANCH  32  38
ENDBRANCH  29  32
ENDBRANCH  27  29
BRANCH  27  42
ATOM     42  C   MOL d          47.807  15.942 -10.997  0.00  0.00     0.241 C 
ATOM     43  O   MOL d          47.623  15.066 -11.850  0.00  0.00    -0.271 OA
ATOM     44  N   MOL d          47.414  17.190 -11.163  0.00  0.00    -0.345 N 
ATOM     45  H28 MOL d          47.590  17.830 -10.415  0.00  0.00     0.163 HD
BRANCH  44  46
ATOM     46  CA  MOL d          46.736  17.719 -12.363  0.00  0.00     0.093 C 
ATOM     47  H29 MOL d          45.754  17.236 -12.466  0.00  0.00     0.089 H 
BRANCH  46  48
ATOM     48  CB  MOL d          46.539  19.213 -12.182  0.00  0.00    -0.048 C 
ATOM     49  H30 MOL d          45.948  19.398 -11.274  0.00  0.00     0.030 H 
ATOM     50  H31 MOL d          46.008  19.622 -13.055  0.00  0.00     0.030 H 
ATOM     51  H32 MOL d          47.520  19.704 -12.088  0.00  0.00     0.030 H 
ENDBRANCH  46  48
BRANCH  46  52
ATOM     52  C   MOL d          47.569  17.427 -13.637  0.00  0.00     0.196 C 
ATOM     53  O   MOL d          47.025  16.951 -14.655  0.00  0.00    -0.646 OA
ATOM     54  OXT MOL d          48.806  17.723 -13.811  0.00  0.00    -0.646 OA
ENDBRANCH  46  52
ENDBRANCH  44  46
ENDBRANCH  27  42
ENDBRANCH  25  27
ENDBRANCH  22  25
ENDBRANCH   1  22
BRANCH   1  55
ATOM     55  CB  MOL d          51.052  18.297  -6.004  0.00  0.00    -0.011 C 
ATOM     56  H10 MOL d          50.071  18.204  -5.516  0.00  0.00     0.044 H 
ATOM     57  H11 MOL d          51.201  19.337  -6.331  0.00  0.00     0.044 H 
BRANCH  55  58
ATOM     58  CG  MOL d          52.156  17.882  -5.052  0.00  0.00    -0.056 A 
ATOM     59  CD1 MOL d          52.815  18.912  -4.369  0.00  0.00    -0.077 A 
ATOM     60  CE1 MOL d          53.834  18.617  -3.454  0.00  0.00    -0.082 A 
ATOM     61  H12 MOL d          52.537  19.944  -4.550  0.00  0.00     0.084 H 
ATOM     62  CZ  MOL d          54.163  17.284  -3.238  0.00  0.00    -0.083 A 
ATOM     63  H14 MOL d          54.353  19.409  -2.927  0.00  0.00     0.083 H 
ATOM     64  CE2 MOL d          53.468  16.243  -3.918  0.00  0.00    -0.082 A 
ATOM     65  H16 MOL d          54.958  17.034  -2.544  0.00  0.00     0.083 H 
ATOM     66  CD2 MOL d          52.444  16.560  -4.823  0.00  0.00    -0.077 A 
ATOM     67  H15 MOL d          53.730  15.207  -3.737  0.00  0.00     0.083 H 
ATOM     68  H13 MOL d          51.892  15.777  -5.330  0.00  0.00     0.084 H 
ENDBRANCH  55  58
ENDBRANCH   1  55
TORSDOF 17
ENDMDL
