REMARK  6 active torsions:
REMARK  status: ('A' for Active; 'I' for Inactive)
REMARK    1  A    between atoms: N16_6  and  C12_7 
REMARK    2  A    between atoms: C9_12  and  N7_13 
REMARK    3  A    between atoms: N7_13  and  C4_14 
REMARK    4  A    between atoms: C6_19  and  C15_20 
REMARK    5  A    between atoms: N25_24  and  C29_25 
REMARK    6  A    between atoms: C26_26  and  C27_27 
ROOT
ATOM      1  C12 Y8L d          22.470  25.869  28.457  0.00  0.00     0.030 A 
ATOM      2  C13 Y8L d          23.389  26.428  27.566  0.00  0.00    -0.055 A 
ATOM      3  C14 Y8L d          23.819  27.755  27.710  0.00  0.00    -0.054 A 
ATOM      4  C11 Y8L d          22.009  26.643  29.518  0.00  0.00    -0.055 A 
ATOM      5  C10 Y8L d          22.471  27.957  29.661  0.00  0.00    -0.054 A 
ATOM      6  C9  Y8L d          23.358  28.543  28.754  0.00  0.00     0.049 A 
ATOM      7  H11 Y8L d          23.776  25.827  26.751  0.00  0.00     0.087 H 
ATOM      8  H12 Y8L d          24.521  28.170  26.996  0.00  0.00     0.087 H 
ATOM      9  H13 Y8L d          21.299  26.232  30.227  0.00  0.00     0.087 H 
ATOM     10  H14 Y8L d          22.128  28.542  30.507  0.00  0.00     0.087 H 
ENDROOT
BRANCH   6  11
ATOM     11  N7  Y8L d          23.753  29.812  28.968  0.00  0.00    -0.188 N 
ATOM     12  H15 Y8L d          23.151  30.378  29.584  0.00  0.00     0.184 HD
BRANCH  11  13
ATOM     13  C4  Y8L d          24.842  30.429  28.472  0.00  0.00     0.727 A 
ATOM     14  N5  Y8L d          25.786  29.832  27.713  0.00  0.00    -0.061 NA
ATOM     15  C6  Y8L d          26.865  30.501  27.258  0.00  0.00     0.096 A 
ATOM     16  C1  Y8L d          26.946  31.872  27.505  0.00  0.00    -0.036 A 
ATOM     17  C2  Y8L d          25.945  32.478  28.244  0.00  0.00     0.023 A 
ATOM     18  H17 Y8L d          27.779  32.452  27.125  0.00  0.00     0.089 H 
ATOM     19  N3  Y8L d          24.930  31.755  28.691  0.00  0.00    -0.075 NA
ATOM     20  H16 Y8L d          25.992  33.540  28.456  0.00  0.00     0.115 H 
BRANCH  15  21
ATOM     21  C15 Y8L d          27.837  29.897  26.443  0.00  0.00     0.062 A 
ATOM     22  S23 Y8L d          29.207  30.663  25.737  0.00  0.00    -0.025 SA
ATOM     23  C24 Y8L d          29.677  29.286  24.871  0.00  0.00     0.291 A 
ATOM     24  O28 Y8L d          30.676  29.188  24.162  0.00  0.00    -0.259 OA
ATOM     25  N25 Y8L d          28.842  28.279  25.139  0.00  0.00    -0.316 N 
ATOM     26  C26 Y8L d          27.837  28.572  25.975  0.00  0.00     0.030 A 
BRANCH  25  27
ATOM     27  C29 Y8L d          29.025  26.926  24.541  0.00  0.00    -0.011 C 
ATOM     28  H18 Y8L d          29.913  26.929  23.892  0.00  0.00     0.057 H 
ATOM     29  H19 Y8L d          28.137  26.665  23.946  0.00  0.00     0.057 H 
ATOM     30  H20 Y8L d          29.160  26.186  25.343  0.00  0.00     0.057 H 
ENDBRANCH  25  27
BRANCH  26  31
ATOM     31  C27 Y8L d          26.804  27.516  26.378  0.00  0.00    -0.036 C 
ATOM     32  H21 Y8L d          26.072  27.963  27.066  0.00  0.00     0.035 H 
ATOM     33  H22 Y8L d          27.312  26.678  26.878  0.00  0.00     0.035 H 
ATOM     34  H23 Y8L d          26.286  27.148  25.480  0.00  0.00     0.035 H 
ENDBRANCH  26  31
ENDBRANCH  15  21
ENDBRANCH  11  13
ENDBRANCH   6  11
BRANCH   1  35
ATOM     35  N16 Y8L d          21.999  24.549  28.282  0.00  0.00    -0.378 N 
ATOM     36  C17 Y8L d          21.030  24.009  29.256  0.00  0.00     0.018 C 
ATOM     37  C18 Y8L d          20.870  22.477  29.251  0.00  0.00     0.096 C 
ATOM     38  H1  Y8L d          21.355  24.313  30.262  0.00  0.00     0.066 H 
ATOM     39  H2  Y8L d          20.047  24.453  29.039  0.00  0.00     0.066 H 
ATOM     40  N19 Y8L d          21.724  21.821  28.249  0.00  0.00    -0.072 N 
ATOM     41  H3  Y8L d          19.820  22.233  29.032  0.00  0.00     0.078 H 
ATOM     42  H4  Y8L d          21.136  22.092  30.247  0.00  0.00     0.078 H 
ATOM     43  C20 Y8L d          21.547  22.504  26.975  0.00  0.00     0.096 C 
ATOM     44  H5  Y8L d          21.458  20.853  28.156  0.00  0.00     0.277 HD
ATOM     45  H6  Y8L d          22.689  21.878  28.535  0.00  0.00     0.277 HD
ATOM     46  C21 Y8L d          22.313  23.826  27.037  0.00  0.00     0.018 C 
ATOM     47  H7  Y8L d          20.479  22.700  26.802  0.00  0.00     0.078 H 
ATOM     48  H8  Y8L d          21.943  21.881  26.159  0.00  0.00     0.078 H 
ATOM     49  H9  Y8L d          22.029  24.449  26.176  0.00  0.00     0.066 H 
ATOM     50  H10 Y8L d          23.393  23.620  27.001  0.00  0.00     0.066 H 
ENDBRANCH   1  35
TORSDOF 6
