MODEL 1
REMARK VINA RESULT:     -16.5      0.000      0.000
REMARK  2 active torsions:
REMARK  status: ('A' for Active; 'I' for Inactive)
REMARK       I    between atoms: N4_8  and  C11_17 
REMARK    1  A    between atoms: C16_22  and  N4_8 
REMARK    2  A    between atoms: C11_17  and  C12_18 
ROOT
ATOM      1  C1  YKI d          13.521  14.324  26.392  0.00  0.00     0.004 A 
ATOM      2  N1  YKI d          13.235  14.579  27.733  0.00  0.00    -0.271 NA
ATOM      3  C2  YKI d          11.925  14.681  28.188  0.00  0.00     0.030 A 
ATOM      4  N2  YKI d           9.501  14.560  27.381  0.00  0.00    -0.337 N 
ATOM      5  C3  YKI d          12.495  14.151  25.433  0.00  0.00    -0.036 A 
ATOM      6  N3  YKI d           9.952  14.152  25.249  0.00  0.00    -0.228 NA
ATOM      7  C4  YKI d           8.969  14.339  26.167  0.00  0.00     0.140 A 
ATOM      8  C5  YKI d          11.164  14.254  25.874  0.00  0.00     0.088 A 
ATOM      9  C6  YKI d          10.868  14.517  27.271  0.00  0.00     0.080 A 
ATOM     10  C7  YKI d           7.543  14.331  25.927  0.00  0.00     0.022 A 
ATOM     11  C8  YKI d           4.688  14.499  25.525  0.00  0.00    -0.074 A 
ATOM     12  C9  YKI d           5.375  15.523  26.245  0.00  0.00    -0.081 A 
ATOM     13  C10 YKI d           6.793  15.421  26.436  0.00  0.00    -0.068 A 
ATOM     14  C16 YKI d           4.778  12.265  24.233  0.00  0.00     0.065 A 
ATOM     15  C17 YKI d           5.406  13.367  24.990  0.00  0.00    -0.019 A 
ATOM     16  C18 YKI d           6.794  13.237  25.162  0.00  0.00    -0.003 A 
ATOM     17  C19 YKI d           6.028  11.380  23.948  0.00  0.00    -0.020 A 
ATOM     18  C20 YKI d           7.214  11.983  24.499  0.00  0.00    -0.016 A 
ATOM     19  C21 YKI d           8.496  11.299  24.325  0.00  0.00    -0.072 A 
ATOM     20  C22 YKI d           8.570  10.056  23.616  0.00  0.00    -0.082 A 
ATOM     21  C23 YKI d           7.358   9.464  23.068  0.00  0.00    -0.082 A 
ATOM     22  C24 YKI d           6.097  10.126  23.232  0.00  0.00    -0.074 A 
ATOM     23  H1  YKI d          14.556  14.255  26.077  0.00  0.00     0.114 H 
ATOM     24  H2  YKI d          11.720  14.884  29.233  0.00  0.00     0.118 H 
ATOM     25  H3  YKI d           8.972  14.733  28.248  0.00  0.00     0.167 HD
ATOM     26  H4  YKI d          12.727  13.947  24.393  0.00  0.00     0.089 H 
ATOM     27  H7  YKI d           3.617  14.574  25.379  0.00  0.00     0.084 H 
ATOM     28  H8  YKI d           4.829  16.370  26.645  0.00  0.00     0.083 H 
ATOM     29  H9  YKI d           7.307  16.201  26.986  0.00  0.00     0.085 H 
ATOM     30  H12 YKI d           4.488  12.680  23.256  0.00  0.00     0.088 H 
ATOM     31  H13 YKI d           9.398  11.737  24.736  0.00  0.00     0.084 H 
ATOM     32  H14 YKI d           9.524   9.557  23.488  0.00  0.00     0.083 H 
ATOM     33  H15 YKI d           7.410   8.523  22.534  0.00  0.00     0.083 H 
ATOM     34  H16 YKI d           5.196   9.687  22.820  0.00  0.00     0.084 H 
ENDROOT
BRANCH  14  35
ATOM     35  N4  YKI d           3.774  11.851  24.628  0.00  0.00    -0.344 N 
ATOM     36  C11 YKI d           2.638  11.388  24.066  0.00  0.00     0.253 C 
ATOM     37  O13 YKI d           2.609  11.369  22.826  0.00  0.00    -0.268 OA
ATOM     38  H5  YKI d           3.738  11.832  25.628  0.00  0.00     0.163 HD
BRANCH  36  39
ATOM     39  C12 YKI d           1.438  10.938  24.861  0.00  0.00     0.047 A 
ATOM     40  C14 YKI d           1.482  10.089  26.026  0.00  0.00    -0.050 A 
ATOM     41  C15 YKI d           0.239   9.761  26.669  0.00  0.00     0.005 A 
ATOM     42  H10 YKI d           2.425   9.711  26.405  0.00  0.00     0.087 H 
ATOM     43  N5  YKI d          -0.966  10.246  26.168  0.00  0.00    -0.242 NA
ATOM     44  H11 YKI d           0.239   9.130  27.551  0.00  0.00     0.114 H 
ATOM     45  C26 YKI d          -1.024  11.071  25.039  0.00  0.00     0.138 A 
ATOM     46  N6  YKI d          -2.154  11.604  24.462  0.00  0.00    -0.350 N 
ATOM     47  C25 YKI d           0.119  11.430  24.358  0.00  0.00     0.027 A 
ATOM     48  C27 YKI d          -1.727  12.345  23.373  0.00  0.00    -0.020 A 
ATOM     49  H6  YKI d          -3.126  11.475  24.777  0.00  0.00     0.166 HD
ATOM     50  C28 YKI d          -0.322  12.269  23.274  0.00  0.00    -0.053 A 
ATOM     51  H17 YKI d          -2.376  12.901  22.699  0.00  0.00     0.111 H 
ATOM     52  H18 YKI d           0.305  12.749  22.525  0.00  0.00     0.087 H 
ENDBRANCH  36  39
ENDBRANCH  14  35
TORSDOF 2
ENDMDL
MODEL 2
REMARK VINA RESULT:     -16.0      0.725      1.916
REMARK  2 active torsions:
REMARK  status: ('A' for Active; 'I' for Inactive)
REMARK       I    between atoms: N4_8  and  C11_17 
REMARK    1  A    between atoms: C16_22  and  N4_8 
REMARK    2  A    between atoms: C11_17  and  C12_18 
ROOT
ATOM      1  C1  YKI d          13.190  14.233  26.405  0.00  0.00     0.004 A 
ATOM      2  N1  YKI d          12.895  14.538  27.733  0.00  0.00    -0.271 NA
ATOM      3  C2  YKI d          11.582  14.685  28.169  0.00  0.00     0.030 A 
ATOM      4  N2  YKI d           9.166  14.593  27.336  0.00  0.00    -0.337 N 
ATOM      5  C3  YKI d          12.172  14.053  25.439  0.00  0.00    -0.036 A 
ATOM      6  N3  YKI d           9.632  14.106  25.224  0.00  0.00    -0.228 NA
ATOM      7  C4  YKI d           8.643  14.346  26.123  0.00  0.00     0.140 A 
ATOM      8  C5  YKI d          10.839  14.201  25.861  0.00  0.00     0.088 A 
ATOM      9  C6  YKI d          10.532  14.516  27.244  0.00  0.00     0.080 A 
ATOM     10  C7  YKI d           7.219  14.362  25.866  0.00  0.00     0.022 A 
ATOM     11  C8  YKI d           4.374  14.583  25.424  0.00  0.00    -0.074 A 
ATOM     12  C9  YKI d           5.076  15.613  26.119  0.00  0.00    -0.081 A 
ATOM     13  C10 YKI d           6.489  15.485  26.330  0.00  0.00    -0.068 A 
ATOM     14  C16 YKI d           4.427  12.306  24.205  0.00  0.00     0.065 A 
ATOM     15  C17 YKI d           5.072  13.417  24.934  0.00  0.00    -0.019 A 
ATOM     16  C18 YKI d           6.454  13.262  25.127  0.00  0.00    -0.003 A 
ATOM     17  C19 YKI d           5.660  11.384  23.965  0.00  0.00    -0.020 A 
ATOM     18  C20 YKI d           6.853  11.977  24.511  0.00  0.00    -0.016 A 
ATOM     19  C21 YKI d           8.121  11.259  24.375  0.00  0.00    -0.072 A 
ATOM     20  C22 YKI d           8.173   9.992  23.706  0.00  0.00    -0.082 A 
ATOM     21  C23 YKI d           6.955   9.411  23.162  0.00  0.00    -0.082 A 
ATOM     22  C24 YKI d           5.707  10.106  23.290  0.00  0.00    -0.074 A 
ATOM     23  H1  YKI d          14.227  14.130  26.105  0.00  0.00     0.114 H 
ATOM     24  H2  YKI d          11.370  14.926  29.204  0.00  0.00     0.118 H 
ATOM     25  H3  YKI d           8.631  14.806  28.190  0.00  0.00     0.167 HD
ATOM     26  H4  YKI d          12.411  13.810  24.410  0.00  0.00     0.089 H 
ATOM     27  H7  YKI d           3.307  14.677  25.262  0.00  0.00     0.084 H 
ATOM     28  H8  YKI d           4.546  16.484  26.484  0.00  0.00     0.083 H 
ATOM     29  H9  YKI d           7.015  16.271  26.861  0.00  0.00     0.085 H 
ATOM     30  H12 YKI d           4.159  12.695  23.211  0.00  0.00     0.088 H 
ATOM     31  H13 YKI d           9.028  11.689  24.782  0.00  0.00     0.084 H 
ATOM     32  H14 YKI d           9.117   9.468  23.607  0.00  0.00     0.083 H 
ATOM     33  H15 YKI d           6.991   8.452  22.660  0.00  0.00     0.083 H 
ATOM     34  H16 YKI d           4.801   9.674  22.881  0.00  0.00     0.084 H 
ENDROOT
BRANCH  14  35
ATOM     35  N4  YKI d           3.409  11.928  24.601  0.00  0.00    -0.344 N 
ATOM     36  C11 YKI d           2.235  11.570  24.042  0.00  0.00     0.253 C 
ATOM     37  O13 YKI d           2.175  11.632  22.805  0.00  0.00    -0.268 OA
ATOM     38  H5  YKI d           3.396  11.848  25.598  0.00  0.00     0.163 HD
BRANCH  36  39
ATOM     39  C12 YKI d           1.028  11.143  24.839  0.00  0.00     0.047 A 
ATOM     40  C14 YKI d          -0.323  11.591  24.607  0.00  0.00    -0.050 A 
ATOM     41  C15 YKI d          -1.360  11.077  25.461  0.00  0.00     0.005 A 
ATOM     42  H10 YKI d          -0.550  12.294  23.814  0.00  0.00     0.087 H 
ATOM     43  N5  YKI d          -1.056  10.181  26.482  0.00  0.00    -0.242 NA
ATOM     44  H11 YKI d          -2.387  11.390  25.308  0.00  0.00     0.114 H 
ATOM     45  C26 YKI d           0.250   9.736  26.717  0.00  0.00     0.138 A 
ATOM     46  N6  YKI d           0.660   8.857  27.693  0.00  0.00    -0.350 N 
ATOM     47  C25 YKI d           1.305  10.183  25.951  0.00  0.00     0.027 A 
ATOM     48  C27 YKI d           2.030   8.720  27.547  0.00  0.00    -0.020 A 
ATOM     49  H6  YKI d           0.065   8.394  28.395  0.00  0.00     0.166 HD
ATOM     50  C28 YKI d           2.471   9.521  26.475  0.00  0.00    -0.053 A 
ATOM     51  H17 YKI d           2.667   8.089  28.166  0.00  0.00     0.111 H 
ATOM     52  H18 YKI d           3.493   9.621  26.113  0.00  0.00     0.087 H 
ENDBRANCH  36  39
ENDBRANCH  14  35
TORSDOF 2
ENDMDL
