MODEL 1
REMARK VINA RESULT:      -5.9      0.000      0.000
REMARK  8 active torsions:
REMARK  status: ('A' for Active; 'I' for Inactive)
REMARK    1  A    between atoms: CAF_6  and  OAA_1 
REMARK    2  A    between atoms: CAG_7  and  OAB_2 
REMARK    3  A    between atoms: CAJ_10  and  OAC_3 
REMARK    4  A    between atoms: CAK_11  and  OAD_4 
REMARK    5  A    between atoms: CAL_12  and  OAE_5 
REMARK    6  A    between atoms: CAH_8  and  CAF_6 
REMARK    7  A    between atoms: CAM_13  and  CAG_7 
REMARK    8  A    between atoms: NAN_14  and  CAH_8 
ROOT
ATOM      1  CAI MIG d          45.260  91.361  33.495  0.00  0.00     0.110 C 
ATOM      2  CAJ MIG d          46.399  92.371  33.223  0.00  0.00     0.086 C 
ATOM      3  CAK MIG d          47.232  92.612  34.489  0.00  0.00     0.088 C 
ATOM      4  CAL MIG d          46.296  93.111  35.607  0.00  0.00     0.092 C 
ATOM      5  CAM MIG d          45.134  92.116  35.834  0.00  0.00     0.151 C 
ATOM      6  NAN MIG d          44.419  91.938  34.531  0.00  0.00    -0.058 N 
ATOM      7  H12 MIG d          45.678  90.404  33.839  0.00  0.00     0.080 H 
ATOM      8  H13 MIG d          44.673  91.198  32.580  0.00  0.00     0.080 H 
ATOM      9  H14 MIG d          45.945  93.332  32.942  0.00  0.00     0.089 H 
ATOM     10  H15 MIG d          47.694  91.660  34.790  0.00  0.00     0.091 H 
ATOM     11  H16 MIG d          45.867  94.081  35.317  0.00  0.00     0.090 H 
ATOM     12  H17 MIG d          45.538  91.152  36.176  0.00  0.00     0.092 H 
ATOM     13  H18 MIG d          44.210  92.874  34.219  0.00  0.00     0.280 HD
ENDROOT
BRANCH   6  14
ATOM     14  CAH MIG d          43.105  91.264  34.629  0.00  0.00     0.103 C 
ATOM     15  H10 MIG d          42.653  91.518  35.598  0.00  0.00     0.079 H 
ATOM     16  H11 MIG d          42.461  91.632  33.816  0.00  0.00     0.079 H 
BRANCH  14  17
ATOM     17  CAF MIG d          43.199  89.740  34.520  0.00  0.00     0.039 C 
ATOM     18  H6  MIG d          42.242  89.321  34.176  0.00  0.00     0.076 H 
ATOM     19  H7  MIG d          43.998  89.455  33.819  0.00  0.00     0.076 H 
BRANCH  17  20
ATOM     20  OAA MIG d          43.502  89.273  35.831  0.00  0.00    -0.399 OA
ATOM     21  H1  MIG d          42.707  88.956  36.244  0.00  0.00     0.209 HD
ENDBRANCH  17  20
ENDBRANCH  14  17
ENDBRANCH   6  14
BRANCH   5  22
ATOM     22  CAG MIG d          44.137  92.644  36.873  0.00  0.00     0.046 C 
ATOM     23  H8  MIG d          43.279  91.959  36.941  0.00  0.00     0.077 H 
ATOM     24  H9  MIG d          44.629  92.715  37.854  0.00  0.00     0.077 H 
BRANCH  22  25
ATOM     25  OAB MIG d          43.679  93.960  36.461  0.00  0.00    -0.399 OA
ATOM     26  H2  MIG d          43.663  94.538  37.215  0.00  0.00     0.209 HD
ENDBRANCH  22  25
ENDBRANCH   5  22
BRANCH   2  27
ATOM     27  OAC MIG d          47.175  91.919  32.119  0.00  0.00    -0.391 OA
ATOM     28  H3  MIG d          47.372  90.996  32.229  0.00  0.00     0.210 HD
ENDBRANCH   2  27
BRANCH   4  29
ATOM     29  OAE MIG d          47.090  93.286  36.765  0.00  0.00    -0.391 OA
ATOM     30  H5  MIG d          47.956  92.925  36.611  0.00  0.00     0.210 HD
ENDBRANCH   4  29
BRANCH   3  31
ATOM     31  OAD MIG d          48.277  93.597  34.309  0.00  0.00    -0.390 OA
ATOM     32  H4  MIG d          49.058  93.316  34.770  0.00  0.00     0.210 HD
ENDBRANCH   3  31
TORSDOF 8
ENDMDL
MODEL 2
REMARK VINA RESULT:      -5.3      1.423      3.341
REMARK  8 active torsions:
REMARK  status: ('A' for Active; 'I' for Inactive)
REMARK    1  A    between atoms: CAF_6  and  OAA_1 
REMARK    2  A    between atoms: CAG_7  and  OAB_2 
REMARK    3  A    between atoms: CAJ_10  and  OAC_3 
REMARK    4  A    between atoms: CAK_11  and  OAD_4 
REMARK    5  A    between atoms: CAL_12  and  OAE_5 
REMARK    6  A    between atoms: CAH_8  and  CAF_6 
REMARK    7  A    between atoms: CAM_13  and  CAG_7 
REMARK    8  A    between atoms: NAN_14  and  CAH_8 
ROOT
ATOM      1  CAI MIG d          45.260  92.771  36.243  0.00  0.00     0.110 C 
ATOM      2  CAJ MIG d          46.789  92.733  36.015  0.00  0.00     0.086 C 
ATOM      3  CAK MIG d          47.131  92.985  34.541  0.00  0.00     0.088 C 
ATOM      4  CAL MIG d          46.409  91.929  33.681  0.00  0.00     0.092 C 
ATOM      5  CAM MIG d          44.888  91.943  33.956  0.00  0.00     0.151 C 
ATOM      6  NAN MIG d          44.682  91.720  35.421  0.00  0.00    -0.058 N 
ATOM      7  H12 MIG d          44.858  93.750  35.942  0.00  0.00     0.080 H 
ATOM      8  H13 MIG d          45.031  92.591  37.303  0.00  0.00     0.080 H 
ATOM      9  H14 MIG d          47.148  91.725  36.268  0.00  0.00     0.089 H 
ATOM     10  H15 MIG d          46.777  93.990  34.267  0.00  0.00     0.091 H 
ATOM     11  H16 MIG d          46.796  90.930  33.933  0.00  0.00     0.090 H 
ATOM     12  H17 MIG d          44.472  92.918  33.662  0.00  0.00     0.092 H 
ATOM     13  H18 MIG d          45.212  90.889  35.635  0.00  0.00     0.280 HD
ENDROOT
BRANCH   6  14
ATOM     14  CAH MIG d          43.291  91.401  35.814  0.00  0.00     0.103 C 
ATOM     15  H10 MIG d          42.766  90.991  34.939  0.00  0.00     0.079 H 
ATOM     16  H11 MIG d          43.317  90.646  36.613  0.00  0.00     0.079 H 
BRANCH  14  17
ATOM     17  CAF MIG d          42.513  92.618  36.321  0.00  0.00     0.039 C 
ATOM     18  H6  MIG d          41.708  92.301  37.000  0.00  0.00     0.076 H 
ATOM     19  H7  MIG d          43.186  93.310  36.847  0.00  0.00     0.076 H 
BRANCH  17  20
ATOM     20  OAA MIG d          41.967  93.243  35.163  0.00  0.00    -0.399 OA
ATOM     21  H1  MIG d          41.027  93.334  35.267  0.00  0.00     0.209 HD
ENDBRANCH  17  20
ENDBRANCH  14  17
ENDBRANCH   6  14
BRANCH   5  22
ATOM     22  CAG MIG d          44.167  90.832  33.184  0.00  0.00     0.046 C 
ATOM     23  H8  MIG d          43.358  90.418  33.804  0.00  0.00     0.077 H 
ATOM     24  H9  MIG d          43.744  91.242  32.255  0.00  0.00     0.077 H 
BRANCH  22  25
ATOM     25  OAB MIG d          45.121  89.784  32.864  0.00  0.00    -0.399 OA
ATOM     26  H2  MIG d          44.712  89.149  32.289  0.00  0.00     0.209 HD
ENDBRANCH  22  25
ENDBRANCH   5  22
BRANCH   2  27
ATOM     27  OAC MIG d          47.420  93.652  36.902  0.00  0.00    -0.391 OA
ATOM     28  H3  MIG d          47.075  93.532  37.779  0.00  0.00     0.210 HD
ENDBRANCH   2  27
BRANCH   4  29
ATOM     29  OAE MIG d          46.718  92.214  32.330  0.00  0.00    -0.391 OA
ATOM     30  H5  MIG d          47.523  91.771  32.090  0.00  0.00     0.210 HD
ENDBRANCH   4  29
BRANCH   3  31
ATOM     31  OAD MIG d          48.547  92.900  34.258  0.00  0.00    -0.390 OA
ATOM     32  H4  MIG d          48.715  92.142  33.710  0.00  0.00     0.210 HD
ENDBRANCH   3  31
TORSDOF 8
ENDMDL
MODEL 3
REMARK VINA RESULT:      -4.8      1.647      4.012
REMARK  8 active torsions:
REMARK  status: ('A' for Active; 'I' for Inactive)
REMARK    1  A    between atoms: CAF_6  and  OAA_1 
REMARK    2  A    between atoms: CAG_7  and  OAB_2 
REMARK    3  A    between atoms: CAJ_10  and  OAC_3 
REMARK    4  A    between atoms: CAK_11  and  OAD_4 
REMARK    5  A    between atoms: CAL_12  and  OAE_5 
REMARK    6  A    between atoms: CAH_8  and  CAF_6 
REMARK    7  A    between atoms: CAM_13  and  CAG_7 
REMARK    8  A    between atoms: NAN_14  and  CAH_8 
ROOT
ATOM      1  CAI MIG d          45.696  91.119  33.410  0.00  0.00     0.110 C 
ATOM      2  CAJ MIG d          44.729  89.930  33.614  0.00  0.00     0.086 C 
ATOM      3  CAK MIG d          43.427  90.390  34.281  0.00  0.00     0.088 C 
ATOM      4  CAL MIG d          43.774  91.066  35.622  0.00  0.00     0.092 C 
ATOM      5  CAM MIG d          44.780  92.221  35.411  0.00  0.00     0.151 C 
ATOM      6  NAN MIG d          45.988  91.660  34.728  0.00  0.00    -0.058 N 
ATOM      7  H12 MIG d          45.222  91.889  32.783  0.00  0.00     0.080 H 
ATOM      8  H13 MIG d          46.624  90.775  32.929  0.00  0.00     0.080 H 
ATOM      9  H14 MIG d          45.209  89.210  34.292  0.00  0.00     0.089 H 
ATOM     10  H15 MIG d          42.931  91.115  33.619  0.00  0.00     0.091 H 
ATOM     11  H16 MIG d          44.234  90.326  36.294  0.00  0.00     0.090 H 
ATOM     12  H17 MIG d          44.320  92.998  34.783  0.00  0.00     0.092 H 
ATOM     13  H18 MIG d          46.260  90.868  35.290  0.00  0.00     0.280 HD
ENDROOT
BRANCH   6  14
ATOM     14  CAH MIG d          47.170  92.551  34.721  0.00  0.00     0.103 C 
ATOM     15  H10 MIG d          47.098  93.234  35.579  0.00  0.00     0.079 H 
ATOM     16  H11 MIG d          48.074  91.933  34.820  0.00  0.00     0.079 H 
BRANCH  14  17
ATOM     17  CAF MIG d          47.289  93.385  33.443  0.00  0.00     0.039 C 
ATOM     18  H6  MIG d          48.338  93.665  33.266  0.00  0.00     0.076 H 
ATOM     19  H7  MIG d          46.909  92.820  32.580  0.00  0.00     0.076 H 
BRANCH  17  20
ATOM     20  OAA MIG d          46.496  94.549  33.662  0.00  0.00    -0.399 OA
ATOM     21  H1  MIG d          45.623  94.404  33.317  0.00  0.00     0.209 HD
ENDBRANCH  17  20
ENDBRANCH  14  17
ENDBRANCH   6  14
BRANCH   5  22
ATOM     22  CAG MIG d          45.214  92.840  36.745  0.00  0.00     0.046 C 
ATOM     23  H8  MIG d          45.657  92.063  37.385  0.00  0.00     0.077 H 
ATOM     24  H9  MIG d          45.955  93.631  36.561  0.00  0.00     0.077 H 
BRANCH  22  25
ATOM     25  OAB MIG d          44.049  93.408  37.402  0.00  0.00    -0.399 OA
ATOM     26  H2  MIG d          43.503  93.842  36.757  0.00  0.00     0.209 HD
ENDBRANCH  22  25
ENDBRANCH   5  22
BRANCH   2  27
ATOM     27  OAC MIG d          44.519  89.276  32.366  0.00  0.00    -0.391 OA
ATOM     28  H3  MIG d          43.943  88.532  32.493  0.00  0.00     0.210 HD
ENDBRANCH   2  27
BRANCH   4  29
ATOM     29  OAE MIG d          42.556  91.508  36.190  0.00  0.00    -0.391 OA
ATOM     30  H5  MIG d          41.945  91.727  35.496  0.00  0.00     0.210 HD
ENDBRANCH   4  29
BRANCH   3  31
ATOM     31  OAD MIG d          42.508  89.306  34.552  0.00  0.00    -0.390 OA
ATOM     32  H4  MIG d          42.228  89.348  35.460  0.00  0.00     0.210 HD
ENDBRANCH   3  31
TORSDOF 8
ENDMDL
MODEL 4
REMARK VINA RESULT:      -3.8      1.474      4.787
REMARK  8 active torsions:
REMARK  status: ('A' for Active; 'I' for Inactive)
REMARK    1  A    between atoms: CAF_6  and  OAA_1 
REMARK    2  A    between atoms: CAG_7  and  OAB_2 
REMARK    3  A    between atoms: CAJ_10  and  OAC_3 
REMARK    4  A    between atoms: CAK_11  and  OAD_4 
REMARK    5  A    between atoms: CAL_12  and  OAE_5 
REMARK    6  A    between atoms: CAH_8  and  CAF_6 
REMARK    7  A    between atoms: CAM_13  and  CAG_7 
REMARK    8  A    between atoms: NAN_14  and  CAH_8 
ROOT
ATOM      1  CAI MIG d          44.497  92.465  36.170  0.00  0.00     0.110 C 
ATOM      2  CAJ MIG d          43.301  91.611  35.688  0.00  0.00     0.086 C 
ATOM      3  CAK MIG d          43.776  90.458  34.795  0.00  0.00     0.088 C 
ATOM      4  CAL MIG d          44.560  91.048  33.606  0.00  0.00     0.092 C 
ATOM      5  CAM MIG d          45.721  91.940  34.102  0.00  0.00     0.151 C 
ATOM      6  NAN MIG d          45.142  93.002  34.983  0.00  0.00    -0.058 N 
ATOM      7  H12 MIG d          45.204  91.840  36.735  0.00  0.00     0.080 H 
ATOM      8  H13 MIG d          44.141  93.286  36.811  0.00  0.00     0.080 H 
ATOM      9  H14 MIG d          42.647  92.251  35.079  0.00  0.00     0.089 H 
ATOM     10  H15 MIG d          44.435  89.806  35.386  0.00  0.00     0.091 H 
ATOM     11  H16 MIG d          43.885  91.667  32.997  0.00  0.00     0.090 H 
ATOM     12  H17 MIG d          46.436  91.327  34.671  0.00  0.00     0.092 H 
ATOM     13  H18 MIG d          44.402  93.417  34.439  0.00  0.00     0.280 HD
ENDROOT
BRANCH   6  14
ATOM     14  CAH MIG d          46.061  94.118  35.299  0.00  0.00     0.103 C 
ATOM     15  H10 MIG d          46.115  94.784  34.426  0.00  0.00     0.079 H 
ATOM     16  H11 MIG d          45.655  94.673  36.158  0.00  0.00     0.079 H 
BRANCH  14  17
ATOM     17  CAF MIG d          47.478  93.655  35.646  0.00  0.00     0.039 C 
ATOM     18  H6  MIG d          47.800  92.861  34.957  0.00  0.00     0.076 H 
ATOM     19  H7  MIG d          48.181  94.499  35.588  0.00  0.00     0.076 H 
BRANCH  17  20
ATOM     20  OAA MIG d          47.410  93.157  36.979  0.00  0.00    -0.399 OA
ATOM     21  H1  MIG d          46.913  93.762  37.517  0.00  0.00     0.209 HD
ENDBRANCH  17  20
ENDBRANCH  14  17
ENDBRANCH   6  14
BRANCH   5  22
ATOM     22  CAG MIG d          46.450  92.614  32.934  0.00  0.00     0.046 C 
ATOM     23  H8  MIG d          45.737  93.219  32.355  0.00  0.00     0.077 H 
ATOM     24  H9  MIG d          47.249  93.262  33.323  0.00  0.00     0.077 H 
BRANCH  22  25
ATOM     25  OAB MIG d          47.026  91.589  32.082  0.00  0.00    -0.399 OA
ATOM     26  H2  MIG d          47.881  91.872  31.779  0.00  0.00     0.209 HD
ENDBRANCH  22  25
ENDBRANCH   5  22
BRANCH   2  27
ATOM     27  OAC MIG d          42.550  91.174  36.816  0.00  0.00    -0.391 OA
ATOM     28  H3  MIG d          42.639  90.233  36.909  0.00  0.00     0.210 HD
ENDBRANCH   2  27
BRANCH   4  29
ATOM     29  OAE MIG d          45.011  89.956  32.826  0.00  0.00    -0.391 OA
ATOM     30  H5  MIG d          45.927  90.084  32.606  0.00  0.00     0.210 HD
ENDBRANCH   4  29
BRANCH   3  31
ATOM     31  OAD MIG d          42.692  89.661  34.264  0.00  0.00    -0.390 OA
ATOM     32  H4  MIG d          41.972  90.230  34.018  0.00  0.00     0.210 HD
ENDBRANCH   3  31
TORSDOF 8
ENDMDL
MODEL 5
REMARK VINA RESULT:      -3.6      1.355      3.948
REMARK  8 active torsions:
REMARK  status: ('A' for Active; 'I' for Inactive)
REMARK    1  A    between atoms: CAF_6  and  OAA_1 
REMARK    2  A    between atoms: CAG_7  and  OAB_2 
REMARK    3  A    between atoms: CAJ_10  and  OAC_3 
REMARK    4  A    between atoms: CAK_11  and  OAD_4 
REMARK    5  A    between atoms: CAL_12  and  OAE_5 
REMARK    6  A    between atoms: CAH_8  and  CAF_6 
REMARK    7  A    between atoms: CAM_13  and  CAG_7 
REMARK    8  A    between atoms: NAN_14  and  CAH_8 
ROOT
ATOM      1  CAI MIG d          45.265  91.353  33.246  0.00  0.00     0.110 C 
ATOM      2  CAJ MIG d          44.743  90.302  34.252  0.00  0.00     0.086 C 
ATOM      3  CAK MIG d          43.878  90.960  35.334  0.00  0.00     0.088 C 
ATOM      4  CAL MIG d          44.716  92.044  36.041  0.00  0.00     0.092 C 
ATOM      5  CAM MIG d          45.275  93.061  35.018  0.00  0.00     0.151 C 
ATOM      6  NAN MIG d          46.068  92.301  34.001  0.00  0.00    -0.058 N 
ATOM      7  H12 MIG d          44.421  91.871  32.767  0.00  0.00     0.080 H 
ATOM      8  H13 MIG d          45.881  90.866  32.475  0.00  0.00     0.080 H 
ATOM      9  H14 MIG d          45.609  89.848  34.754  0.00  0.00     0.089 H 
ATOM     10  H15 MIG d          43.005  91.424  34.851  0.00  0.00     0.091 H 
ATOM     11  H16 MIG d          45.566  91.570  36.554  0.00  0.00     0.090 H 
ATOM     12  H17 MIG d          44.440  93.584  34.529  0.00  0.00     0.092 H 
ATOM     13  H18 MIG d          46.712  91.741  34.538  0.00  0.00     0.280 HD
ENDROOT
BRANCH   6  14
ATOM     14  CAH MIG d          46.922  93.137  33.127  0.00  0.00     0.103 C 
ATOM     15  H10 MIG d          47.096  92.593  32.186  0.00  0.00     0.079 H 
ATOM     16  H11 MIG d          46.392  94.076  32.914  0.00  0.00     0.079 H 
BRANCH  14  17
ATOM     17  CAF MIG d          48.278  93.475  33.751  0.00  0.00     0.039 C 
ATOM     18  H6  MIG d          49.043  93.583  32.968  0.00  0.00     0.076 H 
ATOM     19  H7  MIG d          48.210  94.408  34.330  0.00  0.00     0.076 H 
BRANCH  17  20
ATOM     20  OAA MIG d          48.597  92.382  34.608  0.00  0.00    -0.399 OA
ATOM     21  H1  MIG d          48.443  92.634  35.511  0.00  0.00     0.209 HD
ENDBRANCH  17  20
ENDBRANCH  14  17
ENDBRANCH   6  14
BRANCH   5  22
ATOM     22  CAG MIG d          46.193  94.088  35.690  0.00  0.00     0.046 C 
ATOM     23  H8  MIG d          46.861  94.533  34.937  0.00  0.00     0.077 H 
ATOM     24  H9  MIG d          45.585  94.878  36.155  0.00  0.00     0.077 H 
BRANCH  22  25
ATOM     25  OAB MIG d          46.984  93.419  36.709  0.00  0.00    -0.399 OA
ATOM     26  H2  MIG d          47.040  92.492  36.507  0.00  0.00     0.209 HD
ENDBRANCH  22  25
ENDBRANCH   5  22
BRANCH   2  27
ATOM     27  OAC MIG d          44.063  89.270  33.543  0.00  0.00    -0.391 OA
ATOM     28  H3  MIG d          43.880  88.549  34.134  0.00  0.00     0.210 HD
ENDBRANCH   2  27
BRANCH   4  29
ATOM     29  OAE MIG d          43.878  92.653  37.005  0.00  0.00    -0.391 OA
ATOM     30  H5  MIG d          44.409  93.153  37.614  0.00  0.00     0.210 HD
ENDBRANCH   4  29
BRANCH   3  31
ATOM     31  OAD MIG d          43.411  90.031  36.340  0.00  0.00    -0.390 OA
ATOM     32  H4  MIG d          44.157  89.604  36.746  0.00  0.00     0.210 HD
ENDBRANCH   3  31
TORSDOF 8
ENDMDL
