MODEL 1
REMARK VINA RESULT:      -7.7      0.000      0.000
REMARK  6 active torsions:
REMARK  status: ('A' for Active; 'I' for Inactive)
REMARK    1  A    between atoms: C10_2  and  C11_3 
REMARK    2  A    between atoms: C4_18  and  N9_17 
REMARK    3  A    between atoms: N9_17  and  C8_24 
REMARK    4  A    between atoms: C1_21  and  C18_22 
REMARK    5  A    between atoms: C8_24  and  C23_23 
REMARK    6  A    between atoms: C23_23  and  O24_25 
ROOT
ATOM      1  C2  PFQ d          14.293   0.225   9.559  0.00  0.00     0.091 A 
ATOM      2  C10 PFQ d          18.233  -1.881   9.259  0.00  0.00     0.100 A 
ATOM      3  N1  PFQ d          15.498   0.328   9.022  0.00  0.00    -0.217 NA
ATOM      4  C6  PFQ d          16.417  -0.627   9.226  0.00  0.00     0.186 A 
ATOM      5  O6  PFQ d          17.699  -0.726   8.786  0.00  0.00    -0.289 OA
ATOM      6  C5  PFQ d          16.122  -1.743  10.007  0.00  0.00     0.077 A 
ATOM      7  C4  PFQ d          14.836  -1.814  10.556  0.00  0.00     0.140 A 
ATOM      8  N3  PFQ d          13.970  -0.816  10.304  0.00  0.00    -0.224 NA
ATOM      9  C1  PFQ d          17.272  -2.542  10.034  0.00  0.00     0.027 A 
ATOM     10  H1  PFQ d          13.561   1.006   9.385  0.00  0.00     0.146 H 
ENDROOT
BRANCH   2  11
ATOM     11  C11 PFQ d          19.547  -2.192   8.918  0.00  0.00    -0.001 A 
ATOM     12  C12 PFQ d          20.238  -3.306   9.389  0.00  0.00    -0.070 A 
ATOM     13  C13 PFQ d          21.553  -3.512   8.966  0.00  0.00    -0.082 A 
ATOM     14  H2  PFQ d          19.763  -4.002  10.071  0.00  0.00     0.084 H 
ATOM     15  C14 PFQ d          22.162  -2.622   8.079  0.00  0.00    -0.083 A 
ATOM     16  H3  PFQ d          22.106  -4.371   9.329  0.00  0.00     0.083 H 
ATOM     17  C15 PFQ d          21.471  -1.503   7.611  0.00  0.00    -0.082 A 
ATOM     18  H4  PFQ d          23.180  -2.801   7.751  0.00  0.00     0.083 H 
ATOM     19  C16 PFQ d          20.162  -1.318   8.024  0.00  0.00    -0.070 A 
ATOM     20  H5  PFQ d          21.948  -0.796   6.941  0.00  0.00     0.083 H 
ATOM     21  H6  PFQ d          19.602  -0.473   7.643  0.00  0.00     0.084 H 
ENDBRANCH   2  11
BRANCH   9  22
ATOM     22  C18 PFQ d          17.355  -3.761  10.726  0.00  0.00    -0.022 A 
ATOM     23  C19 PFQ d          16.943  -4.943  10.099  0.00  0.00    -0.072 A 
ATOM     24  C20 PFQ d          16.977  -6.177  10.753  0.00  0.00    -0.082 A 
ATOM     25  H7  PFQ d          16.587  -4.899   9.075  0.00  0.00     0.084 H 
ATOM     26  C21 PFQ d          17.431  -6.231  12.072  0.00  0.00    -0.083 A 
ATOM     27  H8  PFQ d          16.655  -7.079  10.244  0.00  0.00     0.083 H 
ATOM     28  C22 PFQ d          17.839  -5.044  12.708  0.00  0.00    -0.082 A 
ATOM     29  H9  PFQ d          17.468  -7.177  12.600  0.00  0.00     0.083 H 
ATOM     30  C17 PFQ d          17.802  -3.812  12.048  0.00  0.00    -0.072 A 
ATOM     31  H10 PFQ d          18.191  -5.086  13.733  0.00  0.00     0.083 H 
ATOM     32  H12 PFQ d          18.115  -2.907  12.556  0.00  0.00     0.084 H 
ENDBRANCH   9  22
BRANCH   7  33
ATOM     33  N9  PFQ d          14.440  -2.833  11.327  0.00  0.00    -0.372 N 
ATOM     34  H11 PFQ d          15.143  -3.455  11.752  0.00  0.00     0.161 HD
BRANCH  33  35
ATOM     35  C8  PFQ d          13.004  -3.075  11.572  0.00  0.00     0.013 C 
ATOM     36  H15 PFQ d          12.805  -4.156  11.532  0.00  0.00     0.067 H 
ATOM     37  H16 PFQ d          12.413  -2.564  10.798  0.00  0.00     0.067 H 
BRANCH  35  38
ATOM     38  C23 PFQ d          12.604  -2.536  12.954  0.00  0.00     0.031 C 
ATOM     39  H13 PFQ d          13.486  -2.526  13.611  0.00  0.00     0.076 H 
ATOM     40  H14 PFQ d          11.830  -3.187  13.388  0.00  0.00     0.076 H 
BRANCH  38  41
ATOM     41  O24 PFQ d          12.088  -1.204  12.829  0.00  0.00    -0.399 OA
ATOM     42  H17 PFQ d          12.756  -0.642  12.454  0.00  0.00     0.209 HD
ENDBRANCH  38  41
ENDBRANCH  35  38
ENDBRANCH  33  35
ENDBRANCH   7  33
TORSDOF 6
ENDMDL
