REMARK  6 active torsions:
REMARK  status: ('A' for Active; 'I' for Inactive)
REMARK    1  A    between atoms: C10_2  and  C11_3 
REMARK    2  A    between atoms: C4_18  and  N9_17 
REMARK    3  A    between atoms: N9_17  and  C8_24 
REMARK    4  A    between atoms: C1_21  and  C18_22 
REMARK    5  A    between atoms: C8_24  and  C23_23 
REMARK    6  A    between atoms: C23_23  and  O24_25 
ROOT
ATOM      1  C2  PFQ d          14.311   0.260   9.651  0.00  0.00     0.091 A 
ATOM      2  C10 PFQ d          18.322  -1.700   9.293  0.00  0.00     0.100 A 
ATOM      3  N1  PFQ d          15.515   0.424   9.127  0.00  0.00    -0.217 NA
ATOM      4  C6  PFQ d          16.465  -0.507   9.298  0.00  0.00     0.186 A 
ATOM      5  O6  PFQ d          17.752  -0.545   8.863  0.00  0.00    -0.289 OA
ATOM      6  C5  PFQ d          16.203  -1.663  10.032  0.00  0.00     0.077 A 
ATOM      7  C4  PFQ d          14.918  -1.799  10.569  0.00  0.00     0.140 A 
ATOM      8  N3  PFQ d          14.020  -0.821  10.351  0.00  0.00    -0.224 NA
ATOM      9  C1  PFQ d          17.379  -2.423  10.034  0.00  0.00     0.027 A 
ATOM     10  H1  PFQ d          13.555   1.022   9.504  0.00  0.00     0.146 H 
ENDROOT
BRANCH   2  11
ATOM     11  C11 PFQ d          19.647  -1.952   8.949  0.00  0.00    -0.001 A 
ATOM     12  C12 PFQ d          20.324  -3.134   9.243  0.00  0.00    -0.070 A 
ATOM     13  C13 PFQ d          21.653  -3.269   8.836  0.00  0.00    -0.082 A 
ATOM     14  H2  PFQ d          19.827  -3.935   9.778  0.00  0.00     0.084 H 
ATOM     15  C14 PFQ d          22.290  -2.242   8.138  0.00  0.00    -0.083 A 
ATOM     16  H3  PFQ d          22.195  -4.180   9.064  0.00  0.00     0.083 H 
ATOM     17  C15 PFQ d          21.614  -1.056   7.847  0.00  0.00    -0.082 A 
ATOM     18  H4  PFQ d          23.319  -2.366   7.819  0.00  0.00     0.083 H 
ATOM     19  C16 PFQ d          20.291  -0.940   8.241  0.00  0.00    -0.070 A 
ATOM     20  H5  PFQ d          22.112  -0.246   7.326  0.00  0.00     0.083 H 
ATOM     21  H6  PFQ d          19.743  -0.039   7.992  0.00  0.00     0.084 H 
ENDBRANCH   2  11
BRANCH   9  22
ATOM     22  C18 PFQ d          17.500  -3.666  10.677  0.00  0.00    -0.022 A 
ATOM     23  C19 PFQ d          16.969  -4.812  10.074  0.00  0.00    -0.072 A 
ATOM     24  C20 PFQ d          17.035  -6.067  10.685  0.00  0.00    -0.082 A 
ATOM     25  H7  PFQ d          16.492  -4.723   9.104  0.00  0.00     0.084 H 
ATOM     26  C21 PFQ d          17.645  -6.178  11.936  0.00  0.00    -0.083 A 
ATOM     27  H8  PFQ d          16.619  -6.940  10.196  0.00  0.00     0.083 H 
ATOM     28  C22 PFQ d          18.174  -5.027  12.549  0.00  0.00    -0.082 A 
ATOM     29  H9  PFQ d          17.710  -7.141  12.430  0.00  0.00     0.083 H 
ATOM     30  C17 PFQ d          18.103  -3.774  11.932  0.00  0.00    -0.072 A 
ATOM     31  H10 PFQ d          18.647  -5.114  13.521  0.00  0.00     0.083 H 
ATOM     32  H12 PFQ d          18.511  -2.897  12.422  0.00  0.00     0.084 H 
ENDBRANCH   9  22
BRANCH   7  33
ATOM     33  N9  PFQ d          14.552  -2.861  11.295  0.00  0.00    -0.372 N 
ATOM     34  H11 PFQ d          15.272  -3.490  11.678  0.00  0.00     0.161 HD
BRANCH  33  35
ATOM     35  C8  PFQ d          13.125  -3.139  11.552  0.00  0.00     0.013 C 
ATOM     36  H15 PFQ d          12.970  -4.227  11.604  0.00  0.00     0.067 H 
ATOM     37  H16 PFQ d          12.521  -2.721  10.733  0.00  0.00     0.067 H 
BRANCH  35  38
ATOM     38  C23 PFQ d          12.690  -2.501  12.880  0.00  0.00     0.031 C 
ATOM     39  H13 PFQ d          13.554  -2.446  13.558  0.00  0.00     0.076 H 
ATOM     40  H14 PFQ d          11.902  -3.116  13.339  0.00  0.00     0.076 H 
BRANCH  38  41
ATOM     41  O24 PFQ d          12.185  -1.180  12.645  0.00  0.00    -0.399 OA
ATOM     42  H17 PFQ d          12.865  -0.648  12.249  0.00  0.00     0.209 HD
ENDBRANCH  38  41
ENDBRANCH  35  38
ENDBRANCH  33  35
ENDBRANCH   7  33
TORSDOF 6
