MODEL 1
REMARK VINA RESULT:      -7.8      0.000      0.000
REMARK  6 active torsions:
REMARK  status: ('A' for Active; 'I' for Inactive)
REMARK    1  A    between atoms: C10_2  and  C11_3 
REMARK    2  A    between atoms: C4_18  and  N9_17 
REMARK    3  A    between atoms: N9_17  and  C8_24 
REMARK    4  A    between atoms: C1_21  and  C18_22 
REMARK    5  A    between atoms: C8_24  and  C23_23 
REMARK    6  A    between atoms: C23_23  and  O24_25 
ROOT
ATOM      1  C2  PFQ d          20.637  -1.483   7.993  0.00  0.00     0.091 A 
ATOM      2  C10 PFQ d          16.571  -1.962   9.808  0.00  0.00     0.100 A 
ATOM      3  N1  PFQ d          19.437  -0.928   8.037  0.00  0.00    -0.217 NA
ATOM      4  C6  PFQ d          18.462  -1.473   8.779  0.00  0.00     0.186 A 
ATOM      5  O6  PFQ d          17.173  -1.084   8.965  0.00  0.00    -0.289 OA
ATOM      6  C5  PFQ d          18.693  -2.634   9.515  0.00  0.00     0.077 A 
ATOM      7  C4  PFQ d          19.975  -3.189   9.442  0.00  0.00     0.140 A 
ATOM      8  N3  PFQ d          20.900  -2.582   8.677  0.00  0.00    -0.224 NA
ATOM      9  C1  PFQ d          17.496  -2.950  10.169  0.00  0.00     0.027 A 
ATOM     10  H1  PFQ d          21.414  -1.031   7.388  0.00  0.00     0.146 H 
ENDROOT
BRANCH   2  11
ATOM     11  C11 PFQ d          15.239  -1.747  10.147  0.00  0.00    -0.001 A 
ATOM     12  C12 PFQ d          14.434  -2.678  10.801  0.00  0.00    -0.070 A 
ATOM     13  C13 PFQ d          13.112  -2.339  11.094  0.00  0.00    -0.082 A 
ATOM     14  H2  PFQ d          14.829  -3.649  11.078  0.00  0.00     0.084 H 
ATOM     15  C14 PFQ d          12.606  -1.085  10.747  0.00  0.00    -0.083 A 
ATOM     16  H3  PFQ d          12.471  -3.056  11.596  0.00  0.00     0.083 H 
ATOM     17  C15 PFQ d          13.410  -0.153  10.088  0.00  0.00    -0.082 A 
ATOM     18  H4  PFQ d          11.581  -0.832  10.991  0.00  0.00     0.083 H 
ATOM     19  C16 PFQ d          14.725  -0.495   9.818  0.00  0.00    -0.070 A 
ATOM     20  H5  PFQ d          13.015   0.813   9.796  0.00  0.00     0.083 H 
ATOM     21  H6  PFQ d          15.371   0.231   9.338  0.00  0.00     0.084 H 
ENDBRANCH   2  11
BRANCH   9  22
ATOM     22  C18 PFQ d          17.342  -4.063  11.012  0.00  0.00    -0.022 A 
ATOM     23  C19 PFQ d          16.958  -5.295  10.470  0.00  0.00    -0.072 A 
ATOM     24  C20 PFQ d          16.760  -6.425  11.268  0.00  0.00    -0.082 A 
ATOM     25  H7  PFQ d          16.809  -5.375   9.399  0.00  0.00     0.084 H 
ATOM     26  C21 PFQ d          16.948  -6.318  12.648  0.00  0.00    -0.083 A 
ATOM     27  H8  PFQ d          16.466  -7.368  10.824  0.00  0.00     0.083 H 
ATOM     28  C22 PFQ d          17.327  -5.080  13.198  0.00  0.00    -0.082 A 
ATOM     29  H9  PFQ d          16.802  -7.181  13.288  0.00  0.00     0.083 H 
ATOM     30  C17 PFQ d          17.521  -3.953  12.393  0.00  0.00    -0.072 A 
ATOM     31  H10 PFQ d          17.471  -4.998  14.270  0.00  0.00     0.083 H 
ATOM     32  H12 PFQ d          17.808  -3.005  12.835  0.00  0.00     0.084 H 
ENDBRANCH   9  22
BRANCH   7  33
ATOM     33  N9  PFQ d          20.313  -4.304  10.100  0.00  0.00    -0.372 N 
ATOM     34  H11 PFQ d          20.014  -5.221   9.738  0.00  0.00     0.161 HD
BRANCH  33  35
ATOM     35  C8  PFQ d          21.111  -4.231  11.340  0.00  0.00     0.013 C 
ATOM     36  H15 PFQ d          20.700  -3.445  11.991  0.00  0.00     0.067 H 
ATOM     37  H16 PFQ d          22.154  -3.990  11.086  0.00  0.00     0.067 H 
BRANCH  35  38
ATOM     38  C23 PFQ d          21.067  -5.577  12.080  0.00  0.00     0.031 C 
ATOM     39  H13 PFQ d          20.683  -5.420  13.098  0.00  0.00     0.076 H 
ATOM     40  H14 PFQ d          22.082  -5.998  12.131  0.00  0.00     0.076 H 
BRANCH  38  41
ATOM     41  O24 PFQ d          20.209  -6.490  11.383  0.00  0.00    -0.399 OA
ATOM     42  H17 PFQ d          19.335  -6.121  11.326  0.00  0.00     0.209 HD
ENDBRANCH  38  41
ENDBRANCH  35  38
ENDBRANCH  33  35
ENDBRANCH   7  33
TORSDOF 6
ENDMDL
MODEL 2
REMARK VINA RESULT:      -7.7      2.329      5.717
REMARK  6 active torsions:
REMARK  status: ('A' for Active; 'I' for Inactive)
REMARK    1  A    between atoms: C10_2  and  C11_3 
REMARK    2  A    between atoms: C4_18  and  N9_17 
REMARK    3  A    between atoms: N9_17  and  C8_24 
REMARK    4  A    between atoms: C1_21  and  C18_22 
REMARK    5  A    between atoms: C8_24  and  C23_23 
REMARK    6  A    between atoms: C23_23  and  O24_25 
ROOT
ATOM      1  C2  PFQ d          15.346   0.283   9.142  0.00  0.00     0.091 A 
ATOM      2  C10 PFQ d          18.860  -2.391   9.891  0.00  0.00     0.100 A 
ATOM      3  N1  PFQ d          16.651   0.188   8.948  0.00  0.00    -0.217 NA
ATOM      4  C6  PFQ d          17.329  -0.885   9.383  0.00  0.00     0.186 A 
ATOM      5  O6  PFQ d          18.651  -1.187   9.300  0.00  0.00    -0.289 OA
ATOM      6  C5  PFQ d          16.671  -1.918  10.050  0.00  0.00     0.077 A 
ATOM      7  C4  PFQ d          15.291  -1.780  10.235  0.00  0.00     0.140 A 
ATOM      8  N3  PFQ d          14.684  -0.674   9.767  0.00  0.00    -0.224 NA
ATOM      9  C1  PFQ d          17.639  -2.876  10.377  0.00  0.00     0.027 A 
ATOM     10  H1  PFQ d          14.814   1.156   8.785  0.00  0.00     0.146 H 
ENDROOT
BRANCH   2  11
ATOM     11  C11 PFQ d          20.154  -2.903   9.912  0.00  0.00    -0.001 A 
ATOM     12  C12 PFQ d          20.836  -3.361   8.786  0.00  0.00    -0.070 A 
ATOM     13  C13 PFQ d          22.137  -3.845   8.936  0.00  0.00    -0.082 A 
ATOM     14  H2  PFQ d          20.364  -3.340   7.810  0.00  0.00     0.084 H 
ATOM     15  C14 PFQ d          22.748  -3.862  10.190  0.00  0.00    -0.083 A 
ATOM     16  H3  PFQ d          22.677  -4.211   8.070  0.00  0.00     0.083 H 
ATOM     17  C15 PFQ d          22.065  -3.408  11.319  0.00  0.00    -0.082 A 
ATOM     18  H4  PFQ d          23.763  -4.230  10.289  0.00  0.00     0.083 H 
ATOM     19  C16 PFQ d          20.781  -2.914  11.155  0.00  0.00    -0.070 A 
ATOM     20  H5  PFQ d          22.527  -3.441  12.299  0.00  0.00     0.083 H 
ATOM     21  H6  PFQ d          20.250  -2.526  12.017  0.00  0.00     0.084 H 
ENDBRANCH   2  11
BRANCH   9  22
ATOM     22  C18 PFQ d          17.351  -4.070  11.058  0.00  0.00    -0.022 A 
ATOM     23  C19 PFQ d          17.420  -4.104  12.455  0.00  0.00    -0.072 A 
ATOM     24  C20 PFQ d          17.174  -5.273  13.179  0.00  0.00    -0.082 A 
ATOM     25  H7  PFQ d          17.673  -3.196  12.992  0.00  0.00     0.084 H 
ATOM     26  C21 PFQ d          16.853  -6.442  12.486  0.00  0.00    -0.083 A 
ATOM     27  H8  PFQ d          17.231  -5.273  14.262  0.00  0.00     0.083 H 
ATOM     28  C22 PFQ d          16.789  -6.414  11.081  0.00  0.00    -0.082 A 
ATOM     29  H9  PFQ d          16.656  -7.362  13.026  0.00  0.00     0.083 H 
ATOM     30  C17 PFQ d          17.038  -5.240  10.363  0.00  0.00    -0.072 A 
ATOM     31  H10 PFQ d          16.540  -7.323  10.543  0.00  0.00     0.083 H 
ATOM     32  H12 PFQ d          16.990  -5.239   9.279  0.00  0.00     0.084 H 
ENDBRANCH   9  22
BRANCH   7  33
ATOM     33  N9  PFQ d          14.556  -2.702  10.865  0.00  0.00    -0.372 N 
ATOM     34  H11 PFQ d          14.310  -3.577  10.380  0.00  0.00     0.161 HD
BRANCH  33  35
ATOM     35  C8  PFQ d          14.094  -2.477  12.249  0.00  0.00     0.013 C 
ATOM     36  H15 PFQ d          14.721  -1.707  12.721  0.00  0.00     0.067 H 
ATOM     37  H16 PFQ d          14.177  -3.416  12.816  0.00  0.00     0.067 H 
BRANCH  35  38
ATOM     38  C23 PFQ d          12.630  -2.011  12.251  0.00  0.00     0.031 C 
ATOM     39  H13 PFQ d          12.160  -2.293  13.205  0.00  0.00     0.076 H 
ATOM     40  H14 PFQ d          12.093  -2.493  11.421  0.00  0.00     0.076 H 
BRANCH  38  41
ATOM     41  O24 PFQ d          12.570  -0.588  12.094  0.00  0.00    -0.399 OA
ATOM     42  H17 PFQ d          12.312  -0.190  12.917  0.00  0.00     0.209 HD
ENDBRANCH  38  41
ENDBRANCH  35  38
ENDBRANCH  33  35
ENDBRANCH   7  33
TORSDOF 6
ENDMDL
MODEL 3
REMARK VINA RESULT:      -7.4      1.524      1.975
REMARK  6 active torsions:
REMARK  status: ('A' for Active; 'I' for Inactive)
REMARK    1  A    between atoms: C10_2  and  C11_3 
REMARK    2  A    between atoms: C4_18  and  N9_17 
REMARK    3  A    between atoms: N9_17  and  C8_24 
REMARK    4  A    between atoms: C1_21  and  C18_22 
REMARK    5  A    between atoms: C8_24  and  C23_23 
REMARK    6  A    between atoms: C23_23  and  O24_25 
ROOT
ATOM      1  C2  PFQ d          18.412  -0.759   8.310  0.00  0.00     0.091 A 
ATOM      2  C10 PFQ d          15.058  -2.273  10.863  0.00  0.00     0.100 A 
ATOM      3  N1  PFQ d          17.176  -0.480   8.691  0.00  0.00    -0.217 NA
ATOM      4  C6  PFQ d          16.524  -1.292   9.536  0.00  0.00     0.186 A 
ATOM      5  O6  PFQ d          15.268  -1.207  10.049  0.00  0.00    -0.289 OA
ATOM      6  C5  PFQ d          17.134  -2.445  10.027  0.00  0.00     0.077 A 
ATOM      7  C4  PFQ d          18.441  -2.705   9.600  0.00  0.00     0.140 A 
ATOM      8  N3  PFQ d          19.028  -1.840   8.753  0.00  0.00    -0.224 NA
ATOM      9  C1  PFQ d          16.208  -3.074  10.868  0.00  0.00     0.027 A 
ATOM     10  H1  PFQ d          18.925  -0.093   7.626  0.00  0.00     0.146 H 
ENDROOT
BRANCH   2  11
ATOM     11  C11 PFQ d          13.830  -2.382  11.508  0.00  0.00    -0.001 A 
ATOM     12  C12 PFQ d          13.146  -3.581  11.699  0.00  0.00    -0.070 A 
ATOM     13  C13 PFQ d          11.921  -3.560  12.370  0.00  0.00    -0.082 A 
ATOM     14  H2  PFQ d          13.558  -4.515  11.333  0.00  0.00     0.084 H 
ATOM     15  C14 PFQ d          11.395  -2.359  12.850  0.00  0.00    -0.083 A 
ATOM     16  H3  PFQ d          11.374  -4.484  12.519  0.00  0.00     0.083 H 
ATOM     17  C15 PFQ d          12.078  -1.157  12.655  0.00  0.00    -0.082 A 
ATOM     18  H4  PFQ d          10.449  -2.360  13.379  0.00  0.00     0.083 H 
ATOM     19  C16 PFQ d          13.299  -1.193  12.003  0.00  0.00    -0.070 A 
ATOM     20  H5  PFQ d          11.662  -0.219  13.006  0.00  0.00     0.083 H 
ATOM     21  H6  PFQ d          13.857  -0.273  11.875  0.00  0.00     0.084 H 
ENDBRANCH   2  11
BRANCH   9  22
ATOM     22  C18 PFQ d          16.467  -4.273  11.552  0.00  0.00    -0.022 A 
ATOM     23  C19 PFQ d          16.488  -5.481  10.846  0.00  0.00    -0.072 A 
ATOM     24  C20 PFQ d          16.710  -6.705  11.483  0.00  0.00    -0.082 A 
ATOM     25  H7  PFQ d          16.326  -5.467   9.774  0.00  0.00     0.084 H 
ATOM     26  C21 PFQ d          16.913  -6.721  12.864  0.00  0.00    -0.083 A 
ATOM     27  H8  PFQ d          16.724  -7.627  10.914  0.00  0.00     0.083 H 
ATOM     28  C22 PFQ d          16.886  -5.509  13.578  0.00  0.00    -0.082 A 
ATOM     29  H9  PFQ d          17.089  -7.658  13.381  0.00  0.00     0.083 H 
ATOM     30  C17 PFQ d          16.662  -4.288  12.935  0.00  0.00    -0.072 A 
ATOM     31  H10 PFQ d          17.043  -5.522  14.651  0.00  0.00     0.083 H 
ATOM     32  H12 PFQ d          16.639  -3.364  13.502  0.00  0.00     0.084 H 
ENDBRANCH   9  22
BRANCH   7  33
ATOM     33  N9  PFQ d          19.126  -3.783   9.999  0.00  0.00    -0.372 N 
ATOM     34  H11 PFQ d          18.872  -4.712   9.635  0.00  0.00     0.161 HD
BRANCH  33  35
ATOM     35  C8  PFQ d          20.243  -3.651  10.955  0.00  0.00     0.013 C 
ATOM     36  H15 PFQ d          20.114  -4.382  11.768  0.00  0.00     0.067 H 
ATOM     37  H16 PFQ d          20.244  -2.634  11.374  0.00  0.00     0.067 H 
BRANCH  35  38
ATOM     38  C23 PFQ d          21.581  -3.911  10.248  0.00  0.00     0.031 C 
ATOM     39  H13 PFQ d          22.086  -4.764  10.725  0.00  0.00     0.076 H 
ATOM     40  H14 PFQ d          22.217  -3.016  10.330  0.00  0.00     0.076 H 
BRANCH  38  41
ATOM     41  O24 PFQ d          21.354  -4.206   8.864  0.00  0.00    -0.399 OA
ATOM     42  H17 PFQ d          20.474  -4.547   8.755  0.00  0.00     0.209 HD
ENDBRANCH  38  41
ENDBRANCH  35  38
ENDBRANCH  33  35
ENDBRANCH   7  33
TORSDOF 6
ENDMDL
MODEL 4
REMARK VINA RESULT:      -7.3      2.233      5.483
REMARK  6 active torsions:
REMARK  status: ('A' for Active; 'I' for Inactive)
REMARK    1  A    between atoms: C10_2  and  C11_3 
REMARK    2  A    between atoms: C4_18  and  N9_17 
REMARK    3  A    between atoms: N9_17  and  C8_24 
REMARK    4  A    between atoms: C1_21  and  C18_22 
REMARK    5  A    between atoms: C8_24  and  C23_23 
REMARK    6  A    between atoms: C23_23  and  O24_25 
ROOT
ATOM      1  C2  PFQ d          15.649   0.176   8.897  0.00  0.00     0.091 A 
ATOM      2  C10 PFQ d          19.028  -2.669   9.637  0.00  0.00     0.100 A 
ATOM      3  N1  PFQ d          16.931  -0.020   8.634  0.00  0.00    -0.217 NA
ATOM      4  C6  PFQ d          17.566  -1.102   9.108  0.00  0.00     0.186 A 
ATOM      5  O6  PFQ d          18.859  -1.498   8.971  0.00  0.00    -0.289 OA
ATOM      6  C5  PFQ d          16.888  -2.039   9.887  0.00  0.00     0.077 A 
ATOM      7  C4  PFQ d          15.534  -1.795  10.142  0.00  0.00     0.140 A 
ATOM      8  N3  PFQ d          14.970  -0.687   9.629  0.00  0.00    -0.224 NA
ATOM      9  C1  PFQ d          17.812  -3.034  10.228  0.00  0.00     0.027 A 
ATOM     10  H1  PFQ d          15.152   1.056   8.507  0.00  0.00     0.146 H 
ENDROOT
BRANCH   2  11
ATOM     11  C11 PFQ d          20.286  -3.264   9.620  0.00  0.00    -0.001 A 
ATOM     12  C12 PFQ d          20.893  -3.851  10.729  0.00  0.00    -0.070 A 
ATOM     13  C13 PFQ d          22.157  -4.424  10.581  0.00  0.00    -0.082 A 
ATOM     14  H2  PFQ d          20.390  -3.864  11.689  0.00  0.00     0.084 H 
ATOM     15  C14 PFQ d          22.800  -4.418   9.342  0.00  0.00    -0.083 A 
ATOM     16  H3  PFQ d          22.645  -4.878  11.436  0.00  0.00     0.083 H 
ATOM     17  C15 PFQ d          22.195  -3.826   8.232  0.00  0.00    -0.082 A 
ATOM     18  H4  PFQ d          23.777  -4.876   9.240  0.00  0.00     0.083 H 
ATOM     19  C16 PFQ d          20.933  -3.275   8.387  0.00  0.00    -0.070 A 
ATOM     20  H5  PFQ d          22.700  -3.797   7.273  0.00  0.00     0.083 H 
ATOM     21  H6  PFQ d          20.436  -2.843   7.526  0.00  0.00     0.084 H 
ENDBRANCH   2  11
BRANCH   9  22
ATOM     22  C18 PFQ d          17.493  -4.155  11.012  0.00  0.00    -0.022 A 
ATOM     23  C19 PFQ d          17.076  -5.338  10.392  0.00  0.00    -0.072 A 
ATOM     24  C20 PFQ d          16.717  -6.472  11.127  0.00  0.00    -0.082 A 
ATOM     25  H7  PFQ d          17.029  -5.376   9.309  0.00  0.00     0.084 H 
ATOM     26  C21 PFQ d          16.773  -6.418  12.521  0.00  0.00    -0.083 A 
ATOM     27  H8  PFQ d          16.401  -7.377  10.622  0.00  0.00     0.083 H 
ATOM     28  C22 PFQ d          17.185  -5.228  13.149  0.00  0.00    -0.082 A 
ATOM     29  H9  PFQ d          16.501  -7.285  13.113  0.00  0.00     0.083 H 
ATOM     30  C17 PFQ d          17.541  -4.098  12.407  0.00  0.00    -0.072 A 
ATOM     31  H10 PFQ d          17.227  -5.188  14.232  0.00  0.00     0.083 H 
ATOM     32  H12 PFQ d          17.851  -3.187  12.908  0.00  0.00     0.084 H 
ENDBRANCH   9  22
BRANCH   7  33
ATOM     33  N9  PFQ d          14.783  -2.619  10.881  0.00  0.00    -0.372 N 
ATOM     34  H11 PFQ d          15.234  -3.357  11.440  0.00  0.00     0.161 HD
BRANCH  33  35
ATOM     35  C8  PFQ d          13.313  -2.479  10.902  0.00  0.00     0.013 C 
ATOM     36  H15 PFQ d          12.899  -2.851   9.953  0.00  0.00     0.067 H 
ATOM     37  H16 PFQ d          13.052  -1.418  11.025  0.00  0.00     0.067 H 
BRANCH  35  38
ATOM     38  C23 PFQ d          12.719  -3.286  12.066  0.00  0.00     0.031 C 
ATOM     39  H13 PFQ d          11.805  -3.795  11.727  0.00  0.00     0.076 H 
ATOM     40  H14 PFQ d          12.474  -2.605  12.894  0.00  0.00     0.076 H 
BRANCH  38  41
ATOM     41  O24 PFQ d          13.667  -4.262  12.518  0.00  0.00    -0.399 OA
ATOM     42  H17 PFQ d          13.787  -4.175  13.456  0.00  0.00     0.209 HD
ENDBRANCH  38  41
ENDBRANCH  35  38
ENDBRANCH  33  35
ENDBRANCH   7  33
TORSDOF 6
ENDMDL
MODEL 5
REMARK VINA RESULT:      -7.1      2.317      4.491
REMARK  6 active torsions:
REMARK  status: ('A' for Active; 'I' for Inactive)
REMARK    1  A    between atoms: C10_2  and  C11_3 
REMARK    2  A    between atoms: C4_18  and  N9_17 
REMARK    3  A    between atoms: N9_17  and  C8_24 
REMARK    4  A    between atoms: C1_21  and  C18_22 
REMARK    5  A    between atoms: C8_24  and  C23_23 
REMARK    6  A    between atoms: C23_23  and  O24_25 
ROOT
ATOM      1  C2  PFQ d          17.494  -6.834  13.009  0.00  0.00     0.091 A 
ATOM      2  C10 PFQ d          14.950  -3.245  12.170  0.00  0.00     0.100 A 
ATOM      3  N1  PFQ d          16.347  -6.261  13.339  0.00  0.00    -0.217 NA
ATOM      4  C6  PFQ d          15.980  -5.100  12.779  0.00  0.00     0.186 A 
ATOM      5  O6  PFQ d          14.869  -4.340  12.968  0.00  0.00    -0.289 OA
ATOM      6  C5  PFQ d          16.799  -4.473  11.840  0.00  0.00     0.077 A 
ATOM      7  C4  PFQ d          18.002  -5.111  11.518  0.00  0.00     0.140 A 
ATOM      8  N3  PFQ d          18.298  -6.276  12.123  0.00  0.00    -0.224 NA
ATOM      9  C1  PFQ d          16.151  -3.294  11.452  0.00  0.00     0.027 A 
ATOM     10  H1  PFQ d          17.776  -7.772  13.472  0.00  0.00     0.146 H 
ENDROOT
BRANCH   2  11
ATOM     11  C11 PFQ d          13.902  -2.328  12.196  0.00  0.00    -0.001 A 
ATOM     12  C12 PFQ d          13.750  -1.283  11.288  0.00  0.00    -0.070 A 
ATOM     13  C13 PFQ d          12.650  -0.433  11.416  0.00  0.00    -0.082 A 
ATOM     14  H2  PFQ d          14.474  -1.132  10.495  0.00  0.00     0.084 H 
ATOM     15  C14 PFQ d          11.712  -0.633  12.430  0.00  0.00    -0.083 A 
ATOM     16  H3  PFQ d          12.522   0.390  10.721  0.00  0.00     0.083 H 
ATOM     17  C15 PFQ d          11.866  -1.677  13.343  0.00  0.00    -0.082 A 
ATOM     18  H4  PFQ d          10.857   0.029  12.510  0.00  0.00     0.083 H 
ATOM     19  C16 PFQ d          12.953  -2.524  13.196  0.00  0.00    -0.070 A 
ATOM     20  H5  PFQ d          11.153  -1.822  14.147  0.00  0.00     0.083 H 
ATOM     21  H6  PFQ d          13.067  -3.359  13.877  0.00  0.00     0.084 H 
ENDBRANCH   2  11
BRANCH   9  22
ATOM     22  C18 PFQ d          16.675  -2.393  10.511  0.00  0.00    -0.022 A 
ATOM     23  C19 PFQ d          17.711  -1.529  10.882  0.00  0.00    -0.072 A 
ATOM     24  C20 PFQ d          18.247  -0.592   9.994  0.00  0.00    -0.082 A 
ATOM     25  H7  PFQ d          18.110  -1.587  11.889  0.00  0.00     0.084 H 
ATOM     26  C21 PFQ d          17.729  -0.515   8.700  0.00  0.00    -0.083 A 
ATOM     27  H8  PFQ d          19.052   0.064  10.305  0.00  0.00     0.083 H 
ATOM     28  C22 PFQ d          16.683  -1.378   8.324  0.00  0.00    -0.082 A 
ATOM     29  H9  PFQ d          18.129   0.202   7.991  0.00  0.00     0.083 H 
ATOM     30  C17 PFQ d          16.150  -2.312   9.219  0.00  0.00    -0.072 A 
ATOM     31  H10 PFQ d          16.280  -1.317   7.319  0.00  0.00     0.083 H 
ATOM     32  H12 PFQ d          15.340  -2.964   8.914  0.00  0.00     0.084 H 
ENDBRANCH   9  22
BRANCH   7  33
ATOM     33  N9  PFQ d          18.871  -4.603  10.637  0.00  0.00    -0.372 N 
ATOM     34  H11 PFQ d          18.563  -4.404   9.674  0.00  0.00     0.161 HD
BRANCH  33  35
ATOM     35  C8  PFQ d          20.266  -4.325  11.033  0.00  0.00     0.013 C 
ATOM     36  H15 PFQ d          20.817  -5.274  11.112  0.00  0.00     0.067 H 
ATOM     37  H16 PFQ d          20.271  -3.815  12.007  0.00  0.00     0.067 H 
BRANCH  35  38
ATOM     38  C23 PFQ d          20.946  -3.429   9.987  0.00  0.00     0.031 C 
ATOM     39  H13 PFQ d          22.010  -3.697   9.914  0.00  0.00     0.076 H 
ATOM     40  H14 PFQ d          20.853  -2.377  10.293  0.00  0.00     0.076 H 
BRANCH  38  41
ATOM     41  O24 PFQ d          20.322  -3.609   8.709  0.00  0.00    -0.399 OA
ATOM     42  H17 PFQ d          20.397  -2.807   8.205  0.00  0.00     0.209 HD
ENDBRANCH  38  41
ENDBRANCH  35  38
ENDBRANCH  33  35
ENDBRANCH   7  33
TORSDOF 6
ENDMDL
MODEL 6
REMARK VINA RESULT:      -6.5      2.854      6.634
REMARK  6 active torsions:
REMARK  status: ('A' for Active; 'I' for Inactive)
REMARK    1  A    between atoms: C10_2  and  C11_3 
REMARK    2  A    between atoms: C4_18  and  N9_17 
REMARK    3  A    between atoms: N9_17  and  C8_24 
REMARK    4  A    between atoms: C1_21  and  C18_22 
REMARK    5  A    between atoms: C8_24  and  C23_23 
REMARK    6  A    between atoms: C23_23  and  O24_25 
ROOT
ATOM      1  C2  PFQ d          16.014  -6.218  13.592  0.00  0.00     0.091 A 
ATOM      2  C10 PFQ d          19.090  -4.103  11.117  0.00  0.00     0.100 A 
ATOM      3  N1  PFQ d          17.295  -6.247  13.263  0.00  0.00    -0.217 NA
ATOM      4  C6  PFQ d          17.803  -5.334  12.422  0.00  0.00     0.186 A 
ATOM      5  O6  PFQ d          19.067  -5.178  11.947  0.00  0.00    -0.289 OA
ATOM      6  C5  PFQ d          16.992  -4.339  11.879  0.00  0.00     0.077 A 
ATOM      7  C4  PFQ d          15.643  -4.342  12.253  0.00  0.00     0.140 A 
ATOM      8  N3  PFQ d          15.211  -5.291  13.103  0.00  0.00    -0.224 NA
ATOM      9  C1  PFQ d          17.803  -3.556  11.048  0.00  0.00     0.027 A 
ATOM     10  H1  PFQ d          15.619  -6.963  14.272  0.00  0.00     0.146 H 
ENDROOT
BRANCH   2  11
ATOM     11  C11 PFQ d          20.298  -3.752  10.522  0.00  0.00    -0.001 A 
ATOM     12  C12 PFQ d          20.452  -3.462   9.168  0.00  0.00    -0.070 A 
ATOM     13  C13 PFQ d          21.718  -3.114   8.692  0.00  0.00    -0.082 A 
ATOM     14  H2  PFQ d          19.603  -3.504   8.495  0.00  0.00     0.084 H 
ATOM     15  C14 PFQ d          22.809  -3.049   9.559  0.00  0.00    -0.083 A 
ATOM     16  H3  PFQ d          21.854  -2.893   7.639  0.00  0.00     0.083 H 
ATOM     17  C15 PFQ d          22.657  -3.345  10.915  0.00  0.00    -0.082 A 
ATOM     18  H4  PFQ d          23.784  -2.767   9.177  0.00  0.00     0.083 H 
ATOM     19  C16 PFQ d          21.393  -3.672  11.378  0.00  0.00    -0.070 A 
ATOM     20  H5  PFQ d          23.507  -3.319  11.588  0.00  0.00     0.083 H 
ATOM     21  H6  PFQ d          21.253  -3.870  12.434  0.00  0.00     0.084 H 
ENDBRANCH   2  11
BRANCH   9  22
ATOM     22  C18 PFQ d          17.333  -2.447  10.325  0.00  0.00    -0.022 A 
ATOM     23  C19 PFQ d          16.412  -2.636   9.288  0.00  0.00    -0.072 A 
ATOM     24  C20 PFQ d          15.937  -1.572   8.517  0.00  0.00    -0.082 A 
ATOM     25  H7  PFQ d          16.057  -3.639   9.076  0.00  0.00     0.084 H 
ATOM     26  C21 PFQ d          16.400  -0.282   8.789  0.00  0.00    -0.083 A 
ATOM     27  H8  PFQ d          15.222  -1.744   7.722  0.00  0.00     0.083 H 
ATOM     28  C22 PFQ d          17.331  -0.089   9.826  0.00  0.00    -0.082 A 
ATOM     29  H9  PFQ d          16.045   0.560   8.206  0.00  0.00     0.083 H 
ATOM     30  C17 PFQ d          17.803  -1.159  10.592  0.00  0.00    -0.072 A 
ATOM     31  H10 PFQ d          17.690   0.913  10.035  0.00  0.00     0.083 H 
ATOM     32  H12 PFQ d          18.525  -0.992  11.383  0.00  0.00     0.084 H 
ENDBRANCH   9  22
BRANCH   7  33
ATOM     33  N9  PFQ d          14.768  -3.441  11.793  0.00  0.00    -0.372 N 
ATOM     34  H11 PFQ d          14.605  -3.359  10.779  0.00  0.00     0.161 HD
BRANCH  33  35
ATOM     35  C8  PFQ d          14.035  -2.562  12.725  0.00  0.00     0.013 C 
ATOM     36  H15 PFQ d          14.188  -1.513  12.433  0.00  0.00     0.067 H 
ATOM     37  H16 PFQ d          14.415  -2.719  13.746  0.00  0.00     0.067 H 
BRANCH  35  38
ATOM     38  C23 PFQ d          12.533  -2.884  12.688  0.00  0.00     0.031 C 
ATOM     39  H13 PFQ d          12.146  -2.699  11.676  0.00  0.00     0.076 H 
ATOM     40  H14 PFQ d          12.005  -2.240  13.407  0.00  0.00     0.076 H 
BRANCH  38  41
ATOM     41  O24 PFQ d          12.319  -4.258  13.035  0.00  0.00    -0.399 OA
ATOM     42  H17 PFQ d          12.049  -4.740  12.263  0.00  0.00     0.209 HD
ENDBRANCH  38  41
ENDBRANCH  35  38
ENDBRANCH  33  35
ENDBRANCH   7  33
TORSDOF 6
ENDMDL
MODEL 7
REMARK VINA RESULT:      -6.3      3.144      6.925
REMARK  6 active torsions:
REMARK  status: ('A' for Active; 'I' for Inactive)
REMARK    1  A    between atoms: C10_2  and  C11_3 
REMARK    2  A    between atoms: C4_18  and  N9_17 
REMARK    3  A    between atoms: N9_17  and  C8_24 
REMARK    4  A    between atoms: C1_21  and  C18_22 
REMARK    5  A    between atoms: C8_24  and  C23_23 
REMARK    6  A    between atoms: C23_23  and  O24_25 
ROOT
ATOM      1  C2  PFQ d          13.159  -4.923  13.410  0.00  0.00     0.091 A 
ATOM      2  C10 PFQ d          17.359  -4.242  12.012  0.00  0.00     0.100 A 
ATOM      3  N1  PFQ d          14.404  -5.333  13.592  0.00  0.00    -0.217 NA
ATOM      4  C6  PFQ d          15.410  -4.790  12.890  0.00  0.00     0.186 A 
ATOM      5  O6  PFQ d          16.743  -5.055  12.908  0.00  0.00    -0.289 OA
ATOM      6  C5  PFQ d          15.163  -3.786  11.955  0.00  0.00     0.077 A 
ATOM      7  C4  PFQ d          13.833  -3.380  11.792  0.00  0.00     0.140 A 
ATOM      8  N3  PFQ d          12.882  -3.973  12.536  0.00  0.00    -0.224 NA
ATOM      9  C1  PFQ d          16.396  -3.436  11.393  0.00  0.00     0.027 A 
ATOM     10  H1  PFQ d          12.359  -5.372  13.985  0.00  0.00     0.146 H 
ENDROOT
BRANCH   2  11
ATOM     11  C11 PFQ d          18.741  -4.339  11.872  0.00  0.00    -0.001 A 
ATOM     12  C12 PFQ d          19.449  -5.539  11.877  0.00  0.00    -0.070 A 
ATOM     13  C13 PFQ d          20.836  -5.505  11.720  0.00  0.00    -0.082 A 
ATOM     14  H2  PFQ d          18.932  -6.484  12.000  0.00  0.00     0.084 H 
ATOM     15  C14 PFQ d          21.502  -4.289  11.551  0.00  0.00    -0.083 A 
ATOM     16  H3  PFQ d          21.402  -6.430  11.729  0.00  0.00     0.083 H 
ATOM     17  C15 PFQ d          20.794  -3.087  11.550  0.00  0.00    -0.082 A 
ATOM     18  H4  PFQ d          22.578  -4.279  11.419  0.00  0.00     0.083 H 
ATOM     19  C16 PFQ d          19.416  -3.135  11.690  0.00  0.00    -0.070 A 
ATOM     20  H5  PFQ d          21.309  -2.139  11.443  0.00  0.00     0.083 H 
ATOM     21  H6  PFQ d          18.850  -2.212  11.657  0.00  0.00     0.084 H 
ENDBRANCH   2  11
BRANCH   9  22
ATOM     22  C18 PFQ d          16.548  -2.449  10.405  0.00  0.00    -0.022 A 
ATOM     23  C19 PFQ d          17.092  -1.205  10.747  0.00  0.00    -0.072 A 
ATOM     24  C20 PFQ d          17.236  -0.179   9.810  0.00  0.00    -0.082 A 
ATOM     25  H7  PFQ d          17.410  -1.034  11.770  0.00  0.00     0.084 H 
ATOM     26  C21 PFQ d          16.821  -0.400   8.496  0.00  0.00    -0.083 A 
ATOM     27  H8  PFQ d          17.663   0.775  10.100  0.00  0.00     0.083 H 
ATOM     28  C22 PFQ d          16.268  -1.647   8.149  0.00  0.00    -0.082 A 
ATOM     29  H9  PFQ d          16.924   0.380   7.750  0.00  0.00     0.083 H 
ATOM     30  C17 PFQ d          16.125  -2.669   9.093  0.00  0.00    -0.072 A 
ATOM     31  H10 PFQ d          15.945  -1.818   7.128  0.00  0.00     0.083 H 
ATOM     32  H12 PFQ d          15.691  -3.621   8.809  0.00  0.00     0.084 H 
ENDBRANCH   9  22
BRANCH   7  33
ATOM     33  N9  PFQ d          13.474  -2.431  10.922  0.00  0.00    -0.372 N 
ATOM     34  H11 PFQ d          13.484  -2.634   9.912  0.00  0.00     0.161 HD
BRANCH  33  35
ATOM     35  C8  PFQ d          13.062  -1.094  11.396  0.00  0.00     0.013 C 
ATOM     36  H15 PFQ d          13.747  -0.764  12.191  0.00  0.00     0.067 H 
ATOM     37  H16 PFQ d          12.038  -1.150  11.793  0.00  0.00     0.067 H 
BRANCH  35  38
ATOM     38  C23 PFQ d          13.104  -0.084  10.239  0.00  0.00     0.031 C 
ATOM     39  H13 PFQ d          12.089   0.295  10.050  0.00  0.00     0.076 H 
ATOM     40  H14 PFQ d          13.485  -0.581   9.335  0.00  0.00     0.076 H 
BRANCH  38  41
ATOM     41  O24 PFQ d          13.965   1.011  10.578  0.00  0.00    -0.399 OA
ATOM     42  H17 PFQ d          14.608   0.722  11.214  0.00  0.00     0.209 HD
ENDBRANCH  38  41
ENDBRANCH  35  38
ENDBRANCH  33  35
ENDBRANCH   7  33
TORSDOF 6
ENDMDL
MODEL 8
REMARK VINA RESULT:      -5.8      2.341      4.276
REMARK  6 active torsions:
REMARK  status: ('A' for Active; 'I' for Inactive)
REMARK    1  A    between atoms: C10_2  and  C11_3 
REMARK    2  A    between atoms: C4_18  and  N9_17 
REMARK    3  A    between atoms: N9_17  and  C8_24 
REMARK    4  A    between atoms: C1_21  and  C18_22 
REMARK    5  A    between atoms: C8_24  and  C23_23 
REMARK    6  A    between atoms: C23_23  and  O24_25 
ROOT
ATOM      1  C2  PFQ d          19.664  -6.834  12.747  0.00  0.00     0.091 A 
ATOM      2  C10 PFQ d          16.061  -4.191  12.443  0.00  0.00     0.100 A 
ATOM      3  N1  PFQ d          18.423  -6.699  13.185  0.00  0.00    -0.217 NA
ATOM      4  C6  PFQ d          17.667  -5.667  12.784  0.00  0.00     0.186 A 
ATOM      5  O6  PFQ d          16.390  -5.331  13.103  0.00  0.00    -0.289 OA
ATOM      6  C5  PFQ d          18.176  -4.715  11.901  0.00  0.00     0.077 A 
ATOM      7  C4  PFQ d          19.492  -4.893  11.461  0.00  0.00     0.140 A 
ATOM      8  N3  PFQ d          20.184  -5.956  11.909  0.00  0.00    -0.224 NA
ATOM      9  C1  PFQ d          17.161  -3.774  11.683  0.00  0.00     0.027 A 
ATOM     10  H1  PFQ d          20.262  -7.674  13.081  0.00  0.00     0.146 H 
ENDROOT
BRANCH   2  11
ATOM     11  C11 PFQ d          14.783  -3.670  12.618  0.00  0.00    -0.001 A 
ATOM     12  C12 PFQ d          14.469  -2.638  13.501  0.00  0.00    -0.070 A 
ATOM     13  C13 PFQ d          13.147  -2.197  13.580  0.00  0.00    -0.082 A 
ATOM     14  H2  PFQ d          15.239  -2.186  14.116  0.00  0.00     0.084 H 
ATOM     15  C14 PFQ d          12.157  -2.771  12.781  0.00  0.00    -0.083 A 
ATOM     16  H3  PFQ d          12.886  -1.400  14.268  0.00  0.00     0.083 H 
ATOM     17  C15 PFQ d          12.470  -3.807  11.900  0.00  0.00    -0.082 A 
ATOM     18  H4  PFQ d          11.137  -2.410  12.846  0.00  0.00     0.083 H 
ATOM     19  C16 PFQ d          13.788  -4.226  11.818  0.00  0.00    -0.070 A 
ATOM     20  H5  PFQ d          11.700  -4.273  11.294  0.00  0.00     0.083 H 
ATOM     21  H6  PFQ d          14.052  -5.005  11.113  0.00  0.00     0.084 H 
ENDBRANCH   2  11
BRANCH   9  22
ATOM     22  C18 PFQ d          17.304  -2.659  10.841  0.00  0.00    -0.022 A 
ATOM     23  C19 PFQ d          16.340  -2.406   9.858  0.00  0.00    -0.072 A 
ATOM     24  C20 PFQ d          16.450  -1.329   8.975  0.00  0.00    -0.082 A 
ATOM     25  H7  PFQ d          15.484  -3.067   9.778  0.00  0.00     0.084 H 
ATOM     26  C21 PFQ d          17.556  -0.483   9.075  0.00  0.00    -0.083 A 
ATOM     27  H8  PFQ d          15.689  -1.153   8.224  0.00  0.00     0.083 H 
ATOM     28  C22 PFQ d          18.531  -0.737  10.058  0.00  0.00    -0.082 A 
ATOM     29  H9  PFQ d          17.663   0.361   8.403  0.00  0.00     0.083 H 
ATOM     30  C17 PFQ d          18.415  -1.819  10.938  0.00  0.00    -0.072 A 
ATOM     31  H10 PFQ d          19.390  -0.080  10.135  0.00  0.00     0.083 H 
ATOM     32  H12 PFQ d          19.179  -2.003  11.685  0.00  0.00     0.084 H 
ENDBRANCH   9  22
BRANCH   7  33
ATOM     33  N9  PFQ d          20.089  -4.042  10.619  0.00  0.00    -0.372 N 
ATOM     34  H11 PFQ d          19.517  -3.403  10.049  0.00  0.00     0.161 HD
BRANCH  33  35
ATOM     35  C8  PFQ d          21.560  -4.012  10.500  0.00  0.00     0.013 C 
ATOM     36  H15 PFQ d          21.994  -4.776  11.162  0.00  0.00     0.067 H 
ATOM     37  H16 PFQ d          21.927  -3.018  10.797  0.00  0.00     0.067 H 
BRANCH  35  38
ATOM     38  C23 PFQ d          21.982  -4.297   9.051  0.00  0.00     0.031 C 
ATOM     39  H13 PFQ d          22.803  -3.621   8.771  0.00  0.00     0.076 H 
ATOM     40  H14 PFQ d          21.125  -4.130   8.382  0.00  0.00     0.076 H 
BRANCH  38  41
ATOM     41  O24 PFQ d          22.422  -5.656   8.929  0.00  0.00    -0.399 OA
ATOM     42  H17 PFQ d          21.667  -6.227   8.857  0.00  0.00     0.209 HD
ENDBRANCH  38  41
ENDBRANCH  35  38
ENDBRANCH  33  35
ENDBRANCH   7  33
TORSDOF 6
ENDMDL
