MODEL 1
REMARK VINA RESULT:      -8.6      0.000      0.000
REMARK  17 active torsions:
REMARK  status: ('A' for Active; 'I' for Inactive)
REMARK    1  A    between atoms: C24_4  and  C22_7 
REMARK    2  A    between atoms: C22_7  and  O23_8 
REMARK    3  A    between atoms: O23_8  and  C21_9 
REMARK       I    between atoms: C21_9  and  N20_11 
REMARK    4  A    between atoms: N20_11  and  C19_12 
REMARK    5  A    between atoms: C19_12  and  C32_13 
REMARK    6  A    between atoms: C19_12  and  C17_20 
REMARK    7  A    between atoms: C32_13  and  C38_14 
REMARK    8  A    between atoms: C17_20  and  O18_21 
REMARK    9  A    between atoms: C17_20  and  C16_22 
REMARK   10  A    between atoms: C16_22  and  N11_23 
REMARK   11  A    between atoms: N11_23  and  C12_24 
REMARK   12  A    between atoms: N11_23  and  S8_29 
REMARK   13  A    between atoms: C12_24  and  C13_25 
REMARK   14  A    between atoms: C13_25  and  C14_26 
REMARK   15  A    between atoms: C13_25  and  C15_27 
REMARK   16  A    between atoms: C15_27  and  C18_28 
REMARK   17  A    between atoms: S8_29  and  C5_32 
ROOT
ATOM      1  C17 MOL d          20.168  29.040  15.024  0.00  0.00     0.067 C 
ATOM      2  H18 MOL d          21.188  29.447  14.964  0.00  0.00     0.088 H 
ENDROOT
BRANCH   1   3
ATOM      3  C19 MOL d          19.783  28.537  13.631  0.00  0.00     0.044 C 
ATOM      4  H10 MOL d          19.765  29.406  12.955  0.00  0.00     0.077 H 
BRANCH   3   5
ATOM      5  N20 MOL d          20.785  27.596  13.159  0.00  0.00    -0.329 N 
ATOM      6  C21 MOL d          21.585  27.768  12.111  0.00  0.00     0.361 C 
ATOM      7  O22 MOL d          21.644  28.768  11.414  0.00  0.00    -0.239 OA
ATOM      8  H9  MOL d          20.882  26.742  13.669  0.00  0.00     0.165 HD
BRANCH   6   9
ATOM      9  O23 MOL d          22.425  26.635  11.767  0.00  0.00    -0.302 OA
BRANCH   9  10
ATOM     10  C22 MOL d          22.968  26.527  10.450  0.00  0.00     0.049 C 
ATOM     11  H7  MOL d          22.396  27.155   9.750  0.00  0.00     0.078 H 
ATOM     12  H8  MOL d          24.022  26.839  10.447  0.00  0.00     0.078 H 
BRANCH  10  13
ATOM     13  C24 MOL d          22.852  25.064  10.056  0.00  0.00     0.034 C 
ATOM     14  N29 MOL d          22.049  24.364  11.022  0.00  0.00    -0.354 N 
ATOM     15  C27 MOL d          20.874  23.972  10.562  0.00  0.00     0.218 C 
ATOM     16  H1  MOL d          22.353  24.190  11.959  0.00  0.00     0.162 HD
ATOM     17  O28 MOL d          20.029  23.384  11.196  0.00  0.00    -0.274 OA
ATOM     18  C26 MOL d          20.721  24.331   9.106  0.00  0.00     0.011 C 
ATOM     19  C25 MOL d          22.098  24.863   8.741  0.00  0.00    -0.036 C 
ATOM     20  H5  MOL d          19.949  25.102   8.967  0.00  0.00     0.047 H 
ATOM     21  H6  MOL d          20.467  23.445   8.504  0.00  0.00     0.047 H 
ATOM     22  H3  MOL d          22.629  24.139   8.106  0.00  0.00     0.036 H 
ATOM     23  H4  MOL d          22.005  25.821   8.207  0.00  0.00     0.036 H 
ATOM     24  H2  MOL d          23.859  24.627   9.989  0.00  0.00     0.075 H 
ENDBRANCH  10  13
ENDBRANCH   9  10
ENDBRANCH   6   9
ENDBRANCH   3   5
BRANCH   3  25
ATOM     25  C32 MOL d          18.412  27.858  13.562  0.00  0.00    -0.020 C 
ATOM     26  H11 MOL d          17.651  28.547  13.957  0.00  0.00     0.043 H 
ATOM     27  H12 MOL d          18.433  26.945  14.174  0.00  0.00     0.043 H 
BRANCH  25  28
ATOM     28  C38 MOL d          18.049  27.487  12.132  0.00  0.00    -0.056 A 
ATOM     29  C37 MOL d          17.905  26.149  11.785  0.00  0.00    -0.077 A 
ATOM     30  C36 MOL d          17.568  25.795  10.480  0.00  0.00    -0.082 A 
ATOM     31  H13 MOL d          18.055  25.379  12.533  0.00  0.00     0.084 H 
ATOM     32  C35 MOL d          17.368  26.777   9.518  0.00  0.00    -0.083 A 
ATOM     33  H14 MOL d          17.463  24.749  10.215  0.00  0.00     0.083 H 
ATOM     34  C34 MOL d          17.508  28.116   9.863  0.00  0.00    -0.082 A 
ATOM     35  H15 MOL d          17.103  26.501   8.504  0.00  0.00     0.083 H 
ATOM     36  C33 MOL d          17.841  28.465  11.170  0.00  0.00    -0.077 A 
ATOM     37  H16 MOL d          17.359  28.888   9.117  0.00  0.00     0.083 H 
ATOM     38  H17 MOL d          17.938  29.511  11.438  0.00  0.00     0.084 H 
ENDBRANCH  25  28
ENDBRANCH   3  25
ENDBRANCH   1   3
BRANCH   1  39
ATOM     39  O18 MOL d          20.157  27.956  15.958  0.00  0.00    -0.392 OA
ATOM     40  H19 MOL d          20.397  28.279  16.818  0.00  0.00     0.210 HD
ENDBRANCH   1  39
BRANCH   1  41
ATOM     41  C16 MOL d          19.243  30.145  15.556  0.00  0.00     0.019 C 
ATOM     42  H20 MOL d          19.390  30.259  16.640  0.00  0.00     0.061 H 
ATOM     43  H21 MOL d          18.196  29.879  15.355  0.00  0.00     0.061 H 
BRANCH  41  44
ATOM     44  N11 MOL d          19.576  31.421  14.870  0.00  0.00    -0.204 NA
BRANCH  44  45
ATOM     45  C12 MOL d          20.428  32.297  15.706  0.00  0.00    -0.004 C 
ATOM     46  H22 MOL d          20.247  32.064  16.766  0.00  0.00     0.058 H 
ATOM     47  H23 MOL d          20.159  33.346  15.511  0.00  0.00     0.058 H 
BRANCH  45  48
ATOM     48  C13 MOL d          21.924  32.100  15.401  0.00  0.00    -0.046 C 
ATOM     49  H24 MOL d          22.195  31.081  15.712  0.00  0.00     0.041 H 
BRANCH  48  50
ATOM     50  C14 MOL d          22.286  32.239  13.922  0.00  0.00    -0.072 C 
ATOM     51  H25 MOL d          23.368  32.085  13.794  0.00  0.00     0.028 H 
ATOM     52  H26 MOL d          22.016  33.246  13.571  0.00  0.00     0.028 H 
ATOM     53  H27 MOL d          21.737  31.487  13.337  0.00  0.00     0.028 H 
ENDBRANCH  48  50
BRANCH  48  54
ATOM     54  C15 MOL d          22.737  33.095  16.237  0.00  0.00    -0.064 C 
ATOM     55  H28 MOL d          23.806  32.896  16.073  0.00  0.00     0.033 H 
ATOM     56  H29 MOL d          22.493  32.938  17.299  0.00  0.00     0.033 H 
BRANCH  54  57
ATOM     57  C18 MOL d          22.462  34.551  15.893  0.00  0.00    -0.076 C 
ATOM     58  H30 MOL d          23.079  35.201  16.531  0.00  0.00     0.027 H 
ATOM     59  H31 MOL d          21.398  34.774  16.063  0.00  0.00     0.027 H 
ATOM     60  H32 MOL d          22.710  34.732  14.837  0.00  0.00     0.027 H 
ENDBRANCH  54  57
ENDBRANCH  48  54
ENDBRANCH  45  48
ENDBRANCH  44  45
BRANCH  44  61
ATOM     61  S8  MOL d          18.303  32.188  14.202  0.00  0.00     0.243 S 
ATOM     62  O10 MOL d          17.516  31.196  13.537  0.00  0.00    -0.206 OA
ATOM     63  O9  MOL d          18.865  33.191  13.327  0.00  0.00    -0.206 OA
BRANCH  61  64
ATOM     64  C5  MOL d          17.405  32.958  15.345  0.00  0.00     0.076 A 
ATOM     65  C6  MOL d          16.229  32.342  15.779  0.00  0.00    -0.059 A 
ATOM     66  C7  MOL d          15.446  32.902  16.787  0.00  0.00    -0.052 A 
ATOM     67  H33 MOL d          15.919  31.410  15.323  0.00  0.00     0.086 H 
ATOM     68  C2  MOL d          15.801  34.098  17.379  0.00  0.00     0.074 A 
ATOM     69  H34 MOL d          14.546  32.392  17.111  0.00  0.00     0.087 H 
ATOM     70  C3  MOL d          16.962  34.751  16.959  0.00  0.00     0.036 A 
ATOM     71  N1  MOL d          15.182  34.802  18.355  0.00  0.00    -0.253 NA
ATOM     72  C4  MOL d          17.753  34.176  15.949  0.00  0.00    -0.042 A 
ATOM     73  S1  MOL d          17.290  36.227  17.761  0.00  0.00    -0.081 SA
ATOM     74  H35 MOL d          18.654  34.687  15.629  0.00  0.00     0.088 H 
ATOM     75  C1  MOL d          15.835  35.934  18.662  0.00  0.00     0.041 A 
ATOM     76  H36 MOL d          15.477  36.623  19.426  0.00  0.00     0.126 H 
ENDBRANCH  61  64
ENDBRANCH  44  61
ENDBRANCH  41  44
ENDBRANCH   1  41
TORSDOF 17
ENDMDL
