MODEL 1
REMARK VINA RESULT:      -7.9      0.000      0.000
REMARK  17 active torsions:
REMARK  status: ('A' for Active; 'I' for Inactive)
REMARK    1  A    between atoms: C24_4  and  C22_7 
REMARK    2  A    between atoms: C22_7  and  O23_8 
REMARK    3  A    between atoms: O23_8  and  C21_9 
REMARK       I    between atoms: C21_9  and  N20_11 
REMARK    4  A    between atoms: N20_11  and  C19_12 
REMARK    5  A    between atoms: C19_12  and  C32_13 
REMARK    6  A    between atoms: C19_12  and  C17_20 
REMARK    7  A    between atoms: C32_13  and  C38_14 
REMARK    8  A    between atoms: C17_20  and  O18_21 
REMARK    9  A    between atoms: C17_20  and  C16_22 
REMARK   10  A    between atoms: C16_22  and  N11_23 
REMARK   11  A    between atoms: N11_23  and  C12_24 
REMARK   12  A    between atoms: N11_23  and  S8_29 
REMARK   13  A    between atoms: C12_24  and  C13_25 
REMARK   14  A    between atoms: C13_25  and  C14_26 
REMARK   15  A    between atoms: C13_25  and  C15_27 
REMARK   16  A    between atoms: C15_27  and  C18_28 
REMARK   17  A    between atoms: S8_29  and  C5_32 
ROOT
ATOM      1  C17 MOL d          17.580  30.922  14.991  0.00  0.00     0.067 C 
ATOM      2  H18 MOL d          17.079  30.885  14.013  0.00  0.00     0.088 H 
ENDROOT
BRANCH   1   3
ATOM      3  C19 MOL d          17.677  32.390  15.412  0.00  0.00     0.044 C 
ATOM      4  H10 MOL d          17.636  32.427  16.510  0.00  0.00     0.077 H 
BRANCH   3   5
ATOM      5  N20 MOL d          18.949  32.939  14.970  0.00  0.00    -0.329 N 
ATOM      6  C21 MOL d          19.704  33.798  15.647  0.00  0.00     0.361 C 
ATOM      7  O22 MOL d          19.478  34.218  16.771  0.00  0.00    -0.239 OA
ATOM      8  H9  MOL d          19.287  32.643  14.077  0.00  0.00     0.165 HD
BRANCH   6   9
ATOM      9  O23 MOL d          20.877  34.293  14.948  0.00  0.00    -0.302 OA
BRANCH   9  10
ATOM     10  C22 MOL d          21.677  35.318  15.539  0.00  0.00     0.049 C 
ATOM     11  H7  MOL d          21.978  36.052  14.776  0.00  0.00     0.078 H 
ATOM     12  H8  MOL d          21.116  35.826  16.336  0.00  0.00     0.078 H 
BRANCH  10  13
ATOM     13  C24 MOL d          22.902  34.629  16.116  0.00  0.00     0.034 C 
ATOM     14  N29 MOL d          22.510  33.783  17.211  0.00  0.00    -0.354 N 
ATOM     15  C27 MOL d          22.628  32.491  16.962  0.00  0.00     0.218 C 
ATOM     16  H1  MOL d          22.178  34.142  18.084  0.00  0.00     0.162 HD
ATOM     17  O28 MOL d          22.343  31.596  17.723  0.00  0.00    -0.274 OA
ATOM     18  C26 MOL d          23.201  32.260  15.587  0.00  0.00     0.011 C 
ATOM     19  C25 MOL d          23.559  33.665  15.128  0.00  0.00    -0.036 C 
ATOM     20  H5  MOL d          22.456  31.804  14.918  0.00  0.00     0.047 H 
ATOM     21  H6  MOL d          24.094  31.619  15.632  0.00  0.00     0.047 H 
ATOM     22  H3  MOL d          24.651  33.800  15.136  0.00  0.00     0.036 H 
ATOM     23  H4  MOL d          23.175  33.842  14.112  0.00  0.00     0.036 H 
ATOM     24  H2  MOL d          23.624  35.391  16.445  0.00  0.00     0.075 H 
ENDBRANCH  10  13
ENDBRANCH   9  10
ENDBRANCH   6   9
ENDBRANCH   3   5
BRANCH   3  25
ATOM     25  C32 MOL d          16.554  33.279  14.869  0.00  0.00    -0.020 C 
ATOM     26  H11 MOL d          15.716  32.641  14.548  0.00  0.00     0.043 H 
ATOM     27  H12 MOL d          16.932  33.848  14.007  0.00  0.00     0.043 H 
BRANCH  25  28
ATOM     28  C38 MOL d          16.058  34.253  15.927  0.00  0.00    -0.056 A 
ATOM     29  C37 MOL d          16.341  35.607  15.799  0.00  0.00    -0.077 A 
ATOM     30  C36 MOL d          15.889  36.512  16.758  0.00  0.00    -0.082 A 
ATOM     31  H13 MOL d          16.916  35.961  14.951  0.00  0.00     0.084 H 
ATOM     32  C35 MOL d          15.146  36.066  17.845  0.00  0.00    -0.083 A 
ATOM     33  H14 MOL d          16.118  37.566  16.656  0.00  0.00     0.083 H 
ATOM     34  C34 MOL d          14.860  34.712  17.973  0.00  0.00    -0.082 A 
ATOM     35  H15 MOL d          14.793  36.771  18.589  0.00  0.00     0.083 H 
ATOM     36  C33 MOL d          15.310  33.813  17.010  0.00  0.00    -0.077 A 
ATOM     37  H16 MOL d          14.286  34.357  18.821  0.00  0.00     0.083 H 
ATOM     38  H17 MOL d          15.074  32.760  17.107  0.00  0.00     0.084 H 
ENDBRANCH  25  28
ENDBRANCH   3  25
ENDBRANCH   1   3
BRANCH   1  39
ATOM     39  O18 MOL d          16.796  30.191  15.939  0.00  0.00    -0.392 OA
ATOM     40  H19 MOL d          16.729  30.690  16.744  0.00  0.00     0.210 HD
ENDBRANCH   1  39
BRANCH   1  41
ATOM     41  C16 MOL d          18.944  30.229  14.857  0.00  0.00     0.019 C 
ATOM     42  H20 MOL d          19.019  29.415  15.592  0.00  0.00     0.061 H 
ATOM     43  H21 MOL d          19.747  30.958  15.034  0.00  0.00     0.061 H 
BRANCH  41  44
ATOM     44  N11 MOL d          19.066  29.675  13.482  0.00  0.00    -0.204 NA
BRANCH  44  45
ATOM     45  C12 MOL d          18.896  28.203  13.459  0.00  0.00    -0.004 C 
ATOM     46  H22 MOL d          18.896  27.828  14.493  0.00  0.00     0.058 H 
ATOM     47  H23 MOL d          19.736  27.757  12.907  0.00  0.00     0.058 H 
BRANCH  45  48
ATOM     48  C13 MOL d          17.578  27.791  12.780  0.00  0.00    -0.046 C 
ATOM     49  H24 MOL d          16.793  27.788  13.550  0.00  0.00     0.041 H 
BRANCH  48  50
ATOM     50  C14 MOL d          17.122  28.737  11.668  0.00  0.00    -0.072 C 
ATOM     51  H25 MOL d          17.175  28.217  10.700  0.00  0.00     0.028 H 
ATOM     52  H26 MOL d          17.777  29.620  11.646  0.00  0.00     0.028 H 
ATOM     53  H27 MOL d          16.085  29.053  11.857  0.00  0.00     0.028 H 
ENDBRANCH  48  50
BRANCH  48  54
ATOM     54  C15 MOL d          17.725  26.367  12.232  0.00  0.00    -0.064 C 
ATOM     55  H28 MOL d          16.918  25.749  12.650  0.00  0.00     0.033 H 
ATOM     56  H29 MOL d          18.698  25.969  12.555  0.00  0.00     0.033 H 
BRANCH  54  57
ATOM     57  C18 MOL d          17.654  26.286  10.715  0.00  0.00    -0.076 C 
ATOM     58  H30 MOL d          18.657  26.447  10.292  0.00  0.00     0.027 H 
ATOM     59  H31 MOL d          16.968  27.059  10.337  0.00  0.00     0.027 H 
ATOM     60  H32 MOL d          17.286  25.293  10.417  0.00  0.00     0.027 H 
ENDBRANCH  54  57
ENDBRANCH  48  54
ENDBRANCH  45  48
ENDBRANCH  44  45
BRANCH  44  61
ATOM     61  S8  MOL d          20.365  30.197  12.649  0.00  0.00     0.243 S 
ATOM     62  O10 MOL d          21.104  31.059  13.519  0.00  0.00    -0.206 OA
ATOM     63  O9  MOL d          19.839  30.846  11.471  0.00  0.00    -0.206 OA
BRANCH  61  64
ATOM     64  C5  MOL d          21.304  28.939  12.159  0.00  0.00     0.076 A 
ATOM     65  C6  MOL d          22.597  28.845  12.677  0.00  0.00    -0.059 A 
ATOM     66  C7  MOL d          23.432  27.776  12.357  0.00  0.00    -0.052 A 
ATOM     67  H33 MOL d          22.959  29.620  13.343  0.00  0.00     0.086 H 
ATOM     68  C2  MOL d          23.010  26.780  11.499  0.00  0.00     0.074 A 
ATOM     69  H34 MOL d          24.426  27.725  12.787  0.00  0.00     0.087 H 
ATOM     70  C3  MOL d          21.729  26.849  10.948  0.00  0.00     0.036 A 
ATOM     71  N1  MOL d          23.661  25.677  11.061  0.00  0.00    -0.253 NA
ATOM     72  C4  MOL d          20.888  27.924  11.283  0.00  0.00    -0.042 A 
ATOM     73  S1  MOL d          21.326  25.562   9.893  0.00  0.00    -0.081 SA
ATOM     74  H35 MOL d          19.894  27.971  10.853  0.00  0.00     0.088 H 
ATOM     75  C1  MOL d          22.916  24.944  10.219  0.00  0.00     0.041 A 
ATOM     76  H36 MOL d          23.283  24.022   9.769  0.00  0.00     0.126 H 
ENDBRANCH  61  64
ENDBRANCH  44  61
ENDBRANCH  41  44
ENDBRANCH   1  41
TORSDOF 17
ENDMDL
MODEL 2
REMARK VINA RESULT:      -7.9      2.486      7.473
REMARK  17 active torsions:
REMARK  status: ('A' for Active; 'I' for Inactive)
REMARK    1  A    between atoms: C24_4  and  C22_7 
REMARK    2  A    between atoms: C22_7  and  O23_8 
REMARK    3  A    between atoms: O23_8  and  C21_9 
REMARK       I    between atoms: C21_9  and  N20_11 
REMARK    4  A    between atoms: N20_11  and  C19_12 
REMARK    5  A    between atoms: C19_12  and  C32_13 
REMARK    6  A    between atoms: C19_12  and  C17_20 
REMARK    7  A    between atoms: C32_13  and  C38_14 
REMARK    8  A    between atoms: C17_20  and  O18_21 
REMARK    9  A    between atoms: C17_20  and  C16_22 
REMARK   10  A    between atoms: C16_22  and  N11_23 
REMARK   11  A    between atoms: N11_23  and  C12_24 
REMARK   12  A    between atoms: N11_23  and  S8_29 
REMARK   13  A    between atoms: C12_24  and  C13_25 
REMARK   14  A    between atoms: C13_25  and  C14_26 
REMARK   15  A    between atoms: C13_25  and  C15_27 
REMARK   16  A    between atoms: C15_27  and  C18_28 
REMARK   17  A    between atoms: S8_29  and  C5_32 
ROOT
ATOM      1  C17 MOL d          18.987  32.217  13.437  0.00  0.00     0.067 C 
ATOM      2  H18 MOL d          18.436  33.168  13.467  0.00  0.00     0.088 H 
ENDROOT
BRANCH   1   3
ATOM      3  C19 MOL d          17.970  31.084  13.588  0.00  0.00     0.044 C 
ATOM      4  H10 MOL d          18.465  30.260  14.124  0.00  0.00     0.077 H 
BRANCH   3   5
ATOM      5  N20 MOL d          16.840  31.546  14.377  0.00  0.00    -0.329 N 
ATOM      6  C21 MOL d          16.718  31.445  15.697  0.00  0.00     0.361 C 
ATOM      7  O22 MOL d          17.559  31.001  16.461  0.00  0.00    -0.239 OA
ATOM      8  H9  MOL d          16.087  31.979  13.882  0.00  0.00     0.165 HD
BRANCH   6   9
ATOM      9  O23 MOL d          15.443  31.874  16.246  0.00  0.00    -0.302 OA
BRANCH   9  10
ATOM     10  C22 MOL d          15.045  33.241  16.132  0.00  0.00     0.049 C 
ATOM     11  H7  MOL d          15.248  33.613  15.117  0.00  0.00     0.078 H 
ATOM     12  H8  MOL d          13.973  33.344  16.354  0.00  0.00     0.078 H 
BRANCH  10  13
ATOM     13  C24 MOL d          15.867  34.015  17.148  0.00  0.00     0.034 C 
ATOM     14  N29 MOL d          16.656  35.012  16.475  0.00  0.00    -0.354 N 
ATOM     15  C27 MOL d          16.274  36.253  16.715  0.00  0.00     0.218 C 
ATOM     16  H1  MOL d          17.426  34.784  15.877  0.00  0.00     0.162 HD
ATOM     17  O28 MOL d          16.774  37.249  16.247  0.00  0.00    -0.274 OA
ATOM     18  C26 MOL d          15.124  36.281  17.690  0.00  0.00     0.011 C 
ATOM     19  C25 MOL d          15.003  34.826  18.114  0.00  0.00    -0.036 C 
ATOM     20  H5  MOL d          14.201  36.629  17.204  0.00  0.00     0.047 H 
ATOM     21  H6  MOL d          15.351  36.927  18.551  0.00  0.00     0.047 H 
ATOM     22  H3  MOL d          15.367  34.700  19.145  0.00  0.00     0.036 H 
ATOM     23  H4  MOL d          13.955  34.499  18.052  0.00  0.00     0.036 H 
ATOM     24  H2  MOL d          16.508  33.315  17.704  0.00  0.00     0.075 H 
ENDBRANCH  10  13
ENDBRANCH   9  10
ENDBRANCH   6   9
ENDBRANCH   3   5
BRANCH   3  25
ATOM     25  C32 MOL d          17.439  30.531  12.261  0.00  0.00    -0.020 C 
ATOM     26  H11 MOL d          17.980  31.010  11.432  0.00  0.00     0.043 H 
ATOM     27  H12 MOL d          16.367  30.760  12.182  0.00  0.00     0.043 H 
BRANCH  25  28
ATOM     28  C38 MOL d          17.632  29.024  12.173  0.00  0.00    -0.056 A 
ATOM     29  C37 MOL d          17.856  28.433  10.935  0.00  0.00    -0.077 A 
ATOM     30  C36 MOL d          18.039  27.055  10.839  0.00  0.00    -0.082 A 
ATOM     31  H13 MOL d          17.889  29.046  10.042  0.00  0.00     0.084 H 
ATOM     32  C35 MOL d          18.005  26.264  11.981  0.00  0.00    -0.083 A 
ATOM     33  H14 MOL d          18.208  26.599   9.871  0.00  0.00     0.083 H 
ATOM     34  C34 MOL d          17.784  26.853  13.220  0.00  0.00    -0.082 A 
ATOM     35  H15 MOL d          18.151  25.192  11.906  0.00  0.00     0.083 H 
ATOM     36  C33 MOL d          17.606  28.231  13.311  0.00  0.00    -0.077 A 
ATOM     37  H16 MOL d          17.750  26.242  14.114  0.00  0.00     0.083 H 
ATOM     38  H17 MOL d          17.446  28.689  14.280  0.00  0.00     0.084 H 
ENDBRANCH  25  28
ENDBRANCH   3  25
ENDBRANCH   1   3
BRANCH   1  39
ATOM     39  O18 MOL d          19.658  32.111  12.178  0.00  0.00    -0.392 OA
ATOM     40  H19 MOL d          19.064  31.743  11.534  0.00  0.00     0.210 HD
ENDBRANCH   1  39
BRANCH   1  41
ATOM     41  C16 MOL d          20.048  32.243  14.547  0.00  0.00     0.019 C 
ATOM     42  H20 MOL d          19.696  31.656  15.408  0.00  0.00     0.061 H 
ATOM     43  H21 MOL d          20.229  33.281  14.861  0.00  0.00     0.061 H 
BRANCH  41  44
ATOM     44  N11 MOL d          21.307  31.653  14.021  0.00  0.00    -0.204 NA
BRANCH  44  45
ATOM     45  C12 MOL d          21.404  30.203  14.305  0.00  0.00    -0.004 C 
ATOM     46  H22 MOL d          20.663  29.941  15.074  0.00  0.00     0.058 H 
ATOM     47  H23 MOL d          22.415  29.980  14.678  0.00  0.00     0.058 H 
BRANCH  45  48
ATOM     48  C13 MOL d          21.138  29.355  13.048  0.00  0.00    -0.046 C 
ATOM     49  H24 MOL d          20.049  29.249  12.943  0.00  0.00     0.041 H 
BRANCH  48  50
ATOM     50  C14 MOL d          21.665  29.971  11.752  0.00  0.00    -0.072 C 
ATOM     51  H25 MOL d          21.594  31.067  11.811  0.00  0.00     0.028 H 
ATOM     52  H26 MOL d          21.065  29.610  10.904  0.00  0.00     0.028 H 
ATOM     53  H27 MOL d          22.717  29.680  11.608  0.00  0.00     0.028 H 
ENDBRANCH  48  50
BRANCH  48  54
ATOM     54  C15 MOL d          21.744  27.961  13.252  0.00  0.00    -0.064 C 
ATOM     55  H28 MOL d          21.220  27.474  14.088  0.00  0.00     0.033 H 
ATOM     56  H29 MOL d          22.809  28.078  13.504  0.00  0.00     0.033 H 
BRANCH  54  57
ATOM     57  C18 MOL d          21.636  27.063  12.029  0.00  0.00    -0.076 C 
ATOM     58  H30 MOL d          20.959  27.525  11.295  0.00  0.00     0.027 H 
ATOM     59  H31 MOL d          21.238  26.082  12.329  0.00  0.00     0.027 H 
ATOM     60  H32 MOL d          22.632  26.934  11.580  0.00  0.00     0.027 H 
ENDBRANCH  54  57
ENDBRANCH  48  54
ENDBRANCH  45  48
ENDBRANCH  44  45
BRANCH  44  61
ATOM     61  S8  MOL d          22.658  32.485  14.392  0.00  0.00     0.243 S 
ATOM     62  O10 MOL d          22.983  33.290  13.254  0.00  0.00    -0.206 OA
ATOM     63  O9  MOL d          23.651  31.491  14.724  0.00  0.00    -0.206 OA
BRANCH  61  64
ATOM     64  C5  MOL d          22.428  33.434  15.716  0.00  0.00     0.076 A 
ATOM     65  C6  MOL d          22.534  32.840  16.975  0.00  0.00    -0.059 A 
ATOM     66  C7  MOL d          22.412  33.590  18.144  0.00  0.00    -0.052 A 
ATOM     67  H33 MOL d          22.715  31.774  17.045  0.00  0.00     0.086 H 
ATOM     68  C2  MOL d          22.165  34.947  18.093  0.00  0.00     0.074 A 
ATOM     69  H34 MOL d          22.513  33.101  19.106  0.00  0.00     0.087 H 
ATOM     70  C3  MOL d          22.036  35.572  16.851  0.00  0.00     0.036 A 
ATOM     71  N1  MOL d          22.008  35.840  19.098  0.00  0.00    -0.253 NA
ATOM     72  C4  MOL d          22.170  34.814  15.676  0.00  0.00    -0.042 A 
ATOM     73  S1  MOL d          21.722  37.254  16.918  0.00  0.00    -0.081 SA
ATOM     74  H35 MOL d          22.072  35.306  14.715  0.00  0.00     0.088 H 
ATOM     75  C1  MOL d          21.770  37.082  18.646  0.00  0.00     0.041 A 
ATOM     76  H36 MOL d          21.618  37.925  19.318  0.00  0.00     0.126 H 
ENDBRANCH  61  64
ENDBRANCH  44  61
ENDBRANCH  41  44
ENDBRANCH   1  41
TORSDOF 17
ENDMDL
MODEL 3
REMARK VINA RESULT:      -7.8      2.315      6.219
REMARK  17 active torsions:
REMARK  status: ('A' for Active; 'I' for Inactive)
REMARK    1  A    between atoms: C24_4  and  C22_7 
REMARK    2  A    between atoms: C22_7  and  O23_8 
REMARK    3  A    between atoms: O23_8  and  C21_9 
REMARK       I    between atoms: C21_9  and  N20_11 
REMARK    4  A    between atoms: N20_11  and  C19_12 
REMARK    5  A    between atoms: C19_12  and  C32_13 
REMARK    6  A    between atoms: C19_12  and  C17_20 
REMARK    7  A    between atoms: C32_13  and  C38_14 
REMARK    8  A    between atoms: C17_20  and  O18_21 
REMARK    9  A    between atoms: C17_20  and  C16_22 
REMARK   10  A    between atoms: C16_22  and  N11_23 
REMARK   11  A    between atoms: N11_23  and  C12_24 
REMARK   12  A    between atoms: N11_23  and  S8_29 
REMARK   13  A    between atoms: C12_24  and  C13_25 
REMARK   14  A    between atoms: C13_25  and  C14_26 
REMARK   15  A    between atoms: C13_25  and  C15_27 
REMARK   16  A    between atoms: C15_27  and  C18_28 
REMARK   17  A    between atoms: S8_29  and  C5_32 
ROOT
ATOM      1  C17 MOL d          18.464  32.430  14.720  0.00  0.00     0.067 C 
ATOM      2  H18 MOL d          18.218  33.409  15.156  0.00  0.00     0.088 H 
ENDROOT
BRANCH   1   3
ATOM      3  C19 MOL d          17.153  31.669  14.513  0.00  0.00     0.044 C 
ATOM      4  H10 MOL d          16.656  32.094  13.628  0.00  0.00     0.077 H 
BRANCH   3   5
ATOM      5  N20 MOL d          17.440  30.266  14.261  0.00  0.00    -0.329 N 
ATOM      6  C21 MOL d          17.826  29.745  13.100  0.00  0.00     0.361 C 
ATOM      7  O22 MOL d          18.055  30.370  12.077  0.00  0.00    -0.239 OA
ATOM      8  H9  MOL d          17.339  29.636  15.030  0.00  0.00     0.165 HD
BRANCH   6   9
ATOM      9  O23 MOL d          17.939  28.298  13.066  0.00  0.00    -0.302 OA
BRANCH   9  10
ATOM     10  C22 MOL d          17.185  27.548  12.113  0.00  0.00     0.049 C 
ATOM     11  H7  MOL d          16.515  26.843  12.628  0.00  0.00     0.078 H 
ATOM     12  H8  MOL d          16.591  28.224  11.481  0.00  0.00     0.078 H 
BRANCH  10  13
ATOM     13  C24 MOL d          18.192  26.790  11.266  0.00  0.00     0.034 C 
ATOM     14  N29 MOL d          18.667  25.642  11.991  0.00  0.00    -0.354 N 
ATOM     15  C27 MOL d          18.264  24.486  11.493  0.00  0.00     0.218 C 
ATOM     16  H1  MOL d          19.251  25.712  12.800  0.00  0.00     0.162 HD
ATOM     17  O28 MOL d          18.522  23.394  11.943  0.00  0.00    -0.274 OA
ATOM     18  C26 MOL d          17.442  24.697  10.247  0.00  0.00     0.011 C 
ATOM     19  C25 MOL d          17.573  26.192  10.002  0.00  0.00    -0.036 C 
ATOM     20  H5  MOL d          16.392  24.414  10.412  0.00  0.00     0.047 H 
ATOM     21  H6  MOL d          17.848  24.121   9.402  0.00  0.00     0.047 H 
ATOM     22  H3  MOL d          18.225  26.379   9.136  0.00  0.00     0.036 H 
ATOM     23  H4  MOL d          16.583  26.635   9.819  0.00  0.00     0.036 H 
ATOM     24  H2  MOL d          19.022  27.461  11.004  0.00  0.00     0.075 H 
ENDBRANCH  10  13
ENDBRANCH   9  10
ENDBRANCH   6   9
ENDBRANCH   3   5
BRANCH   3  25
ATOM     25  C32 MOL d          16.177  31.758  15.690  0.00  0.00    -0.020 C 
ATOM     26  H11 MOL d          16.600  31.213  16.547  0.00  0.00     0.043 H 
ATOM     27  H12 MOL d          15.221  31.300  15.399  0.00  0.00     0.043 H 
BRANCH  25  28
ATOM     28  C38 MOL d          15.930  33.203  16.096  0.00  0.00    -0.056 A 
ATOM     29  C37 MOL d          16.351  34.232  15.262  0.00  0.00    -0.077 A 
ATOM     30  C36 MOL d          16.127  35.560  15.618  0.00  0.00    -0.082 A 
ATOM     31  H13 MOL d          16.855  33.999  14.330  0.00  0.00     0.084 H 
ATOM     32  C35 MOL d          15.476  35.865  16.807  0.00  0.00    -0.083 A 
ATOM     33  H14 MOL d          16.462  36.358  14.966  0.00  0.00     0.083 H 
ATOM     34  C34 MOL d          15.052  34.838  17.642  0.00  0.00    -0.082 A 
ATOM     35  H15 MOL d          15.299  36.899  17.083  0.00  0.00     0.083 H 
ATOM     36  C33 MOL d          15.274  33.512  17.279  0.00  0.00    -0.077 A 
ATOM     37  H16 MOL d          14.549  35.068  18.574  0.00  0.00     0.083 H 
ATOM     38  H17 MOL d          14.931  32.713  17.927  0.00  0.00     0.084 H 
ENDBRANCH  25  28
ENDBRANCH   3  25
ENDBRANCH   1   3
BRANCH   1  39
ATOM     39  O18 MOL d          19.118  32.634  13.464  0.00  0.00    -0.392 OA
ATOM     40  H19 MOL d          19.692  31.900  13.285  0.00  0.00     0.210 HD
ENDBRANCH   1  39
BRANCH   1  41
ATOM     41  C16 MOL d          19.445  31.719  15.664  0.00  0.00     0.019 C 
ATOM     42  H20 MOL d          19.795  30.786  15.198  0.00  0.00     0.061 H 
ATOM     43  H21 MOL d          18.942  31.488  16.614  0.00  0.00     0.061 H 
BRANCH  41  44
ATOM     44  N11 MOL d          20.603  32.617  15.917  0.00  0.00    -0.204 NA
BRANCH  44  45
ATOM     45  C12 MOL d          20.219  34.047  15.871  0.00  0.00    -0.004 C 
ATOM     46  H22 MOL d          19.122  34.121  15.879  0.00  0.00     0.058 H 
ATOM     47  H23 MOL d          20.610  34.490  14.944  0.00  0.00     0.058 H 
BRANCH  45  48
ATOM     48  C13 MOL d          20.779  34.828  17.073  0.00  0.00    -0.046 C 
ATOM     49  H24 MOL d          21.090  34.095  17.831  0.00  0.00     0.041 H 
BRANCH  48  50
ATOM     50  C14 MOL d          21.998  35.693  16.747  0.00  0.00    -0.072 C 
ATOM     51  H25 MOL d          21.688  36.542  16.121  0.00  0.00     0.028 H 
ATOM     52  H26 MOL d          22.741  35.090  16.204  0.00  0.00     0.028 H 
ATOM     53  H27 MOL d          22.441  36.069  17.681  0.00  0.00     0.028 H 
ENDBRANCH  48  50
BRANCH  48  54
ATOM     54  C15 MOL d          19.663  35.696  17.666  0.00  0.00    -0.064 C 
ATOM     55  H28 MOL d          19.141  36.202  16.841  0.00  0.00     0.033 H 
ATOM     56  H29 MOL d          20.121  36.447  18.327  0.00  0.00     0.033 H 
BRANCH  54  57
ATOM     57  C18 MOL d          18.640  34.909  18.470  0.00  0.00    -0.076 C 
ATOM     58  H30 MOL d          18.941  34.892  19.528  0.00  0.00     0.027 H 
ATOM     59  H31 MOL d          18.585  33.879  18.088  0.00  0.00     0.027 H 
ATOM     60  H32 MOL d          17.653  35.387  18.377  0.00  0.00     0.027 H 
ENDBRANCH  54  57
ENDBRANCH  48  54
ENDBRANCH  45  48
ENDBRANCH  44  45
BRANCH  44  61
ATOM     61  S8  MOL d          21.939  32.269  15.052  0.00  0.00     0.243 S 
ATOM     62  O10 MOL d          23.045  32.292  15.959  0.00  0.00    -0.206 OA
ATOM     63  O9  MOL d          22.001  33.266  14.010  0.00  0.00    -0.206 OA
BRANCH  61  64
ATOM     64  C5  MOL d          21.817  30.793  14.336  0.00  0.00     0.076 A 
ATOM     65  C6  MOL d          21.288  29.742  15.087  0.00  0.00    -0.059 A 
ATOM     66  C7  MOL d          21.098  28.477  14.533  0.00  0.00    -0.052 A 
ATOM     67  H33 MOL d          21.020  29.912  16.123  0.00  0.00     0.086 H 
ATOM     68  C2  MOL d          21.444  28.219  13.222  0.00  0.00     0.074 A 
ATOM     69  H34 MOL d          20.672  27.686  15.139  0.00  0.00     0.087 H 
ATOM     70  C3  MOL d          21.992  29.242  12.445  0.00  0.00     0.036 A 
ATOM     71  N1  MOL d          21.348  27.074  12.507  0.00  0.00    -0.253 NA
ATOM     72  C4  MOL d          22.172  30.518  13.007  0.00  0.00    -0.042 A 
ATOM     73  S1  MOL d          22.388  28.797  10.840  0.00  0.00    -0.081 SA
ATOM     74  H35 MOL d          22.595  31.308  12.397  0.00  0.00     0.088 H 
ATOM     75  C1  MOL d          21.800  27.216  11.250  0.00  0.00     0.041 A 
ATOM     76  H36 MOL d          21.797  26.394  10.536  0.00  0.00     0.126 H 
ENDBRANCH  61  64
ENDBRANCH  44  61
ENDBRANCH  41  44
ENDBRANCH   1  41
TORSDOF 17
ENDMDL
MODEL 4
REMARK VINA RESULT:      -7.8      1.607      2.802
REMARK  17 active torsions:
REMARK  status: ('A' for Active; 'I' for Inactive)
REMARK    1  A    between atoms: C24_4  and  C22_7 
REMARK    2  A    between atoms: C22_7  and  O23_8 
REMARK    3  A    between atoms: O23_8  and  C21_9 
REMARK       I    between atoms: C21_9  and  N20_11 
REMARK    4  A    between atoms: N20_11  and  C19_12 
REMARK    5  A    between atoms: C19_12  and  C32_13 
REMARK    6  A    between atoms: C19_12  and  C17_20 
REMARK    7  A    between atoms: C32_13  and  C38_14 
REMARK    8  A    between atoms: C17_20  and  O18_21 
REMARK    9  A    between atoms: C17_20  and  C16_22 
REMARK   10  A    between atoms: C16_22  and  N11_23 
REMARK   11  A    between atoms: N11_23  and  C12_24 
REMARK   12  A    between atoms: N11_23  and  S8_29 
REMARK   13  A    between atoms: C12_24  and  C13_25 
REMARK   14  A    between atoms: C13_25  and  C14_26 
REMARK   15  A    between atoms: C13_25  and  C15_27 
REMARK   16  A    between atoms: C15_27  and  C18_28 
REMARK   17  A    between atoms: S8_29  and  C5_32 
ROOT
ATOM      1  C17 MOL d          16.983  31.474  14.816  0.00  0.00     0.067 C 
ATOM      2  H18 MOL d          16.113  31.550  14.148  0.00  0.00     0.088 H 
ENDROOT
BRANCH   1   3
ATOM      3  C19 MOL d          17.149  32.822  15.522  0.00  0.00     0.044 C 
ATOM      4  H10 MOL d          16.891  32.679  16.582  0.00  0.00     0.077 H 
BRANCH   3   5
ATOM      5  N20 MOL d          18.536  33.251  15.431  0.00  0.00    -0.329 N 
ATOM      6  C21 MOL d          19.251  33.791  16.413  0.00  0.00     0.361 C 
ATOM      7  O22 MOL d          18.876  33.958  17.562  0.00  0.00    -0.239 OA
ATOM      8  H9  MOL d          18.992  33.129  14.550  0.00  0.00     0.165 HD
BRANCH   6   9
ATOM      9  O23 MOL d          20.581  34.246  16.047  0.00  0.00    -0.302 OA
BRANCH   9  10
ATOM     10  C22 MOL d          21.679  34.016  16.930  0.00  0.00     0.049 C 
ATOM     11  H7  MOL d          22.267  34.938  17.053  0.00  0.00     0.078 H 
ATOM     12  H8  MOL d          21.314  33.680  17.912  0.00  0.00     0.078 H 
BRANCH  10  13
ATOM     13  C24 MOL d          22.529  32.933  16.288  0.00  0.00     0.034 C 
ATOM     14  N29 MOL d          21.769  32.263  15.268  0.00  0.00    -0.354 N 
ATOM     15  C27 MOL d          22.190  32.500  14.038  0.00  0.00     0.218 C 
ATOM     16  H1  MOL d          20.990  31.669  15.471  0.00  0.00     0.162 HD
ATOM     17  O28 MOL d          21.698  32.062  13.026  0.00  0.00    -0.274 OA
ATOM     18  C26 MOL d          23.410  33.387  14.052  0.00  0.00     0.011 C 
ATOM     19  C25 MOL d          23.734  33.496  15.534  0.00  0.00    -0.036 C 
ATOM     20  H5  MOL d          23.186  34.375  13.623  0.00  0.00     0.047 H 
ATOM     21  H6  MOL d          24.241  32.927  13.498  0.00  0.00     0.047 H 
ATOM     22  H3  MOL d          24.636  32.911  15.769  0.00  0.00     0.036 H 
ATOM     23  H4  MOL d          23.897  34.549  15.810  0.00  0.00     0.036 H 
ATOM     24  H2  MOL d          22.859  32.226  17.063  0.00  0.00     0.075 H 
ENDBRANCH  10  13
ENDBRANCH   9  10
ENDBRANCH   6   9
ENDBRANCH   3   5
BRANCH   3  25
ATOM     25  C32 MOL d          16.261  33.940  14.967  0.00  0.00    -0.020 C 
ATOM     26  H11 MOL d          15.303  33.507  14.642  0.00  0.00     0.043 H 
ATOM     27  H12 MOL d          16.765  34.405  14.108  0.00  0.00     0.043 H 
BRANCH  25  28
ATOM     28  C38 MOL d          15.990  35.005  16.019  0.00  0.00    -0.056 A 
ATOM     29  C37 MOL d          16.621  36.240  15.923  0.00  0.00    -0.077 A 
ATOM     30  C36 MOL d          16.380  37.227  16.876  0.00  0.00    -0.082 A 
ATOM     31  H13 MOL d          17.304  36.435  15.103  0.00  0.00     0.084 H 
ATOM     32  C35 MOL d          15.501  36.987  17.925  0.00  0.00    -0.083 A 
ATOM     33  H14 MOL d          16.879  38.186  16.798  0.00  0.00     0.083 H 
ATOM     34  C34 MOL d          14.867  35.754  18.022  0.00  0.00    -0.082 A 
ATOM     35  H15 MOL d          15.311  37.757  18.664  0.00  0.00     0.083 H 
ATOM     36  C33 MOL d          15.109  34.772  17.064  0.00  0.00    -0.077 A 
ATOM     37  H16 MOL d          14.185  35.557  18.841  0.00  0.00     0.083 H 
ATOM     38  H17 MOL d          14.603  33.816  17.136  0.00  0.00     0.084 H 
ENDBRANCH  25  28
ENDBRANCH   3  25
ENDBRANCH   1   3
BRANCH   1  39
ATOM     39  O18 MOL d          16.740  30.443  15.778  0.00  0.00    -0.392 OA
ATOM     40  H19 MOL d          16.196  30.786  16.477  0.00  0.00     0.210 HD
ENDBRANCH   1  39
BRANCH   1  41
ATOM     41  C16 MOL d          18.200  31.069  13.972  0.00  0.00     0.019 C 
ATOM     42  H20 MOL d          19.118  31.184  14.567  0.00  0.00     0.061 H 
ATOM     43  H21 MOL d          18.260  31.707  13.079  0.00  0.00     0.061 H 
BRANCH  41  44
ATOM     44  N11 MOL d          18.046  29.648  13.560  0.00  0.00    -0.204 NA
BRANCH  44  45
ATOM     45  C12 MOL d          18.839  28.733  14.413  0.00  0.00    -0.004 C 
ATOM     46  H22 MOL d          19.116  27.847  13.823  0.00  0.00     0.058 H 
ATOM     47  H23 MOL d          18.224  28.425  15.272  0.00  0.00     0.058 H 
BRANCH  45  48
ATOM     48  C13 MOL d          20.122  29.404  14.934  0.00  0.00    -0.046 C 
ATOM     49  H24 MOL d          20.268  30.332  14.362  0.00  0.00     0.041 H 
BRANCH  48  50
ATOM     50  C14 MOL d          20.076  29.783  16.415  0.00  0.00    -0.072 C 
ATOM     51  H25 MOL d          20.106  28.871  17.028  0.00  0.00     0.028 H 
ATOM     52  H26 MOL d          19.147  30.334  16.623  0.00  0.00     0.028 H 
ATOM     53  H27 MOL d          20.941  30.417  16.659  0.00  0.00     0.028 H 
ENDBRANCH  48  50
BRANCH  48  54
ATOM     54  C15 MOL d          21.313  28.476  14.666  0.00  0.00    -0.064 C 
ATOM     55  H28 MOL d          20.936  27.448  14.565  0.00  0.00     0.033 H 
ATOM     56  H29 MOL d          21.998  28.533  15.526  0.00  0.00     0.033 H 
BRANCH  54  57
ATOM     57  C18 MOL d          22.091  28.829  13.408  0.00  0.00    -0.076 C 
ATOM     58  H30 MOL d          23.120  28.451  13.496  0.00  0.00     0.027 H 
ATOM     59  H31 MOL d          22.112  29.922  13.284  0.00  0.00     0.027 H 
ATOM     60  H32 MOL d          21.605  28.370  12.535  0.00  0.00     0.027 H 
ENDBRANCH  54  57
ENDBRANCH  48  54
ENDBRANCH  45  48
ENDBRANCH  44  45
BRANCH  44  61
ATOM     61  S8  MOL d          18.225  29.377  11.964  0.00  0.00     0.243 S 
ATOM     62  O10 MOL d          19.267  30.243  11.505  0.00  0.00    -0.206 OA
ATOM     63  O9  MOL d          16.932  29.634  11.375  0.00  0.00    -0.206 OA
BRANCH  61  64
ATOM     64  C5  MOL d          18.616  27.807  11.667  0.00  0.00     0.076 A 
ATOM     65  C6  MOL d          17.652  26.831  11.927  0.00  0.00    -0.059 A 
ATOM     66  C7  MOL d          17.885  25.486  11.645  0.00  0.00    -0.052 A 
ATOM     67  H33 MOL d          16.702  27.125  12.358  0.00  0.00     0.086 H 
ATOM     68  C2  MOL d          19.090  25.073  11.112  0.00  0.00     0.074 A 
ATOM     69  H34 MOL d          17.111  24.755  11.847  0.00  0.00     0.087 H 
ATOM     70  C3  MOL d          20.084  26.019  10.853  0.00  0.00     0.036 A 
ATOM     71  N1  MOL d          19.512  23.831  10.777  0.00  0.00    -0.253 NA
ATOM     72  C4  MOL d          19.839  27.375  11.130  0.00  0.00    -0.042 A 
ATOM     73  S1  MOL d          21.534  25.384  10.202  0.00  0.00    -0.081 SA
ATOM     74  H35 MOL d          20.614  28.104  10.925  0.00  0.00     0.088 H 
ATOM     75  C1  MOL d          20.763  23.830  10.290  0.00  0.00     0.041 A 
ATOM     76  H36 MOL d          21.261  22.915   9.972  0.00  0.00     0.126 H 
ENDBRANCH  61  64
ENDBRANCH  44  61
ENDBRANCH  41  44
ENDBRANCH   1  41
TORSDOF 17
ENDMDL
MODEL 5
REMARK VINA RESULT:      -7.3      1.994      3.624
REMARK  17 active torsions:
REMARK  status: ('A' for Active; 'I' for Inactive)
REMARK    1  A    between atoms: C24_4  and  C22_7 
REMARK    2  A    between atoms: C22_7  and  O23_8 
REMARK    3  A    between atoms: O23_8  and  C21_9 
REMARK       I    between atoms: C21_9  and  N20_11 
REMARK    4  A    between atoms: N20_11  and  C19_12 
REMARK    5  A    between atoms: C19_12  and  C32_13 
REMARK    6  A    between atoms: C19_12  and  C17_20 
REMARK    7  A    between atoms: C32_13  and  C38_14 
REMARK    8  A    between atoms: C17_20  and  O18_21 
REMARK    9  A    between atoms: C17_20  and  C16_22 
REMARK   10  A    between atoms: C16_22  and  N11_23 
REMARK   11  A    between atoms: N11_23  and  C12_24 
REMARK   12  A    between atoms: N11_23  and  S8_29 
REMARK   13  A    between atoms: C12_24  and  C13_25 
REMARK   14  A    between atoms: C13_25  and  C14_26 
REMARK   15  A    between atoms: C13_25  and  C15_27 
REMARK   16  A    between atoms: C15_27  and  C18_28 
REMARK   17  A    between atoms: S8_29  and  C5_32 
ROOT
ATOM      1  C17 MOL d          18.245  30.079  15.300  0.00  0.00     0.067 C 
ATOM      2  H18 MOL d          17.548  29.245  15.470  0.00  0.00     0.088 H 
ENDROOT
BRANCH   1   3
ATOM      3  C19 MOL d          17.660  31.322  15.973  0.00  0.00     0.044 C 
ATOM      4  H10 MOL d          16.925  30.984  16.719  0.00  0.00     0.077 H 
BRANCH   3   5
ATOM      5  N20 MOL d          18.718  32.051  16.653  0.00  0.00    -0.329 N 
ATOM      6  C21 MOL d          19.605  32.857  16.077  0.00  0.00     0.361 C 
ATOM      7  O22 MOL d          19.636  33.157  14.895  0.00  0.00    -0.239 OA
ATOM      8  H9  MOL d          18.784  31.936  17.644  0.00  0.00     0.165 HD
BRANCH   6   9
ATOM      9  O23 MOL d          20.640  33.382  16.950  0.00  0.00    -0.302 OA
BRANCH   9  10
ATOM     10  C22 MOL d          21.853  33.887  16.391  0.00  0.00     0.049 C 
ATOM     11  H7  MOL d          22.719  33.492  16.943  0.00  0.00     0.078 H 
ATOM     12  H8  MOL d          21.931  33.602  15.332  0.00  0.00     0.078 H 
BRANCH  10  13
ATOM     13  C24 MOL d          21.791  35.399  16.524  0.00  0.00     0.034 C 
ATOM     14  N29 MOL d          20.423  35.837  16.438  0.00  0.00    -0.354 N 
ATOM     15  C27 MOL d          19.936  36.306  17.573  0.00  0.00     0.218 C 
ATOM     16  H1  MOL d          19.889  35.789  15.594  0.00  0.00     0.162 HD
ATOM     17  O28 MOL d          18.810  36.712  17.744  0.00  0.00    -0.274 OA
ATOM     18  C26 MOL d          20.989  36.299  18.652  0.00  0.00     0.011 C 
ATOM     19  C25 MOL d          22.245  35.892  17.898  0.00  0.00    -0.036 C 
ATOM     20  H5  MOL d          20.746  35.569  19.438  0.00  0.00     0.047 H 
ATOM     21  H6  MOL d          21.103  37.297  19.101  0.00  0.00     0.047 H 
ATOM     22  H3  MOL d          22.918  36.755  17.788  0.00  0.00     0.036 H 
ATOM     23  H4  MOL d          22.767  35.086  18.437  0.00  0.00     0.036 H 
ATOM     24  H2  MOL d          22.401  35.857  15.732  0.00  0.00     0.075 H 
ENDBRANCH  10  13
ENDBRANCH   9  10
ENDBRANCH   6   9
ENDBRANCH   3   5
BRANCH   3  25
ATOM     25  C32 MOL d          16.950  32.284  15.014  0.00  0.00    -0.020 C 
ATOM     26  H11 MOL d          16.184  31.728  14.453  0.00  0.00     0.043 H 
ATOM     27  H12 MOL d          17.688  32.701  14.314  0.00  0.00     0.043 H 
BRANCH  25  28
ATOM     28  C38 MOL d          16.282  33.424  15.768  0.00  0.00    -0.056 A 
ATOM     29  C37 MOL d          15.475  33.143  16.863  0.00  0.00    -0.077 A 
ATOM     30  C36 MOL d          14.861  34.178  17.566  0.00  0.00    -0.082 A 
ATOM     31  H13 MOL d          15.322  32.115  17.172  0.00  0.00     0.084 H 
ATOM     32  C35 MOL d          15.057  35.498  17.180  0.00  0.00    -0.083 A 
ATOM     33  H14 MOL d          14.228  33.952  18.416  0.00  0.00     0.083 H 
ATOM     34  C34 MOL d          15.867  35.782  16.086  0.00  0.00    -0.082 A 
ATOM     35  H15 MOL d          14.582  36.303  17.729  0.00  0.00     0.083 H 
ATOM     36  C33 MOL d          16.481  34.745  15.390  0.00  0.00    -0.077 A 
ATOM     37  H16 MOL d          16.020  36.809  15.776  0.00  0.00     0.083 H 
ATOM     38  H17 MOL d          17.122  34.970  14.546  0.00  0.00     0.084 H 
ENDBRANCH  25  28
ENDBRANCH   3  25
ENDBRANCH   1   3
BRANCH   1  39
ATOM     39  O18 MOL d          19.508  29.752  15.888  0.00  0.00    -0.392 OA
ATOM     40  H19 MOL d          20.208  30.048  15.318  0.00  0.00     0.210 HD
ENDBRANCH   1  39
BRANCH   1  41
ATOM     41  C16 MOL d          18.445  30.235  13.786  0.00  0.00     0.019 C 
ATOM     42  H20 MOL d          19.162  31.045  13.589  0.00  0.00     0.061 H 
ATOM     43  H21 MOL d          17.483  30.475  13.309  0.00  0.00     0.061 H 
BRANCH  41  44
ATOM     44  N11 MOL d          18.970  28.958  13.236  0.00  0.00    -0.204 NA
BRANCH  44  45
ATOM     45  C12 MOL d          20.132  29.172  12.343  0.00  0.00    -0.004 C 
ATOM     46  H22 MOL d          19.938  30.050  11.710  0.00  0.00     0.058 H 
ATOM     47  H23 MOL d          20.261  28.283  11.708  0.00  0.00     0.058 H 
BRANCH  45  48
ATOM     48  C13 MOL d          21.428  29.409  13.138  0.00  0.00    -0.046 C 
ATOM     49  H24 MOL d          21.246  29.091  14.175  0.00  0.00     0.041 H 
BRANCH  48  50
ATOM     50  C14 MOL d          22.634  28.620  12.624  0.00  0.00    -0.072 C 
ATOM     51  H25 MOL d          23.525  28.891  13.208  0.00  0.00     0.028 H 
ATOM     52  H26 MOL d          22.803  28.859  11.564  0.00  0.00     0.028 H 
ATOM     53  H27 MOL d          22.439  27.542  12.732  0.00  0.00     0.028 H 
ENDBRANCH  48  50
BRANCH  48  54
ATOM     54  C15 MOL d          21.744  30.909  13.139  0.00  0.00    -0.064 C 
ATOM     55  H28 MOL d          20.820  31.458  13.369  0.00  0.00     0.033 H 
ATOM     56  H29 MOL d          22.099  31.190  12.136  0.00  0.00     0.033 H 
BRANCH  54  57
ATOM     57  C18 MOL d          22.805  31.310  14.152  0.00  0.00    -0.076 C 
ATOM     58  H30 MOL d          22.984  30.474  14.845  0.00  0.00     0.027 H 
ATOM     59  H31 MOL d          22.459  32.187  14.719  0.00  0.00     0.027 H 
ATOM     60  H32 MOL d          23.739  31.557  13.627  0.00  0.00     0.027 H 
ENDBRANCH  54  57
ENDBRANCH  48  54
ENDBRANCH  45  48
ENDBRANCH  44  45
BRANCH  44  61
ATOM     61  S8  MOL d          17.838  27.966  12.612  0.00  0.00     0.243 S 
ATOM     62  O10 MOL d          17.069  28.738  11.685  0.00  0.00    -0.206 OA
ATOM     63  O9  MOL d          17.088  27.468  13.741  0.00  0.00    -0.206 OA
BRANCH  61  64
ATOM     64  C5  MOL d          18.526  26.680  11.852  0.00  0.00     0.076 A 
ATOM     65  C6  MOL d          17.793  25.494  11.777  0.00  0.00    -0.059 A 
ATOM     66  C7  MOL d          18.282  24.379  11.098  0.00  0.00    -0.052 A 
ATOM     67  H33 MOL d          16.823  25.438  12.258  0.00  0.00     0.086 H 
ATOM     68  C2  MOL d          19.521  24.409  10.489  0.00  0.00     0.074 A 
ATOM     69  H34 MOL d          17.683  23.478  11.047  0.00  0.00     0.087 H 
ATOM     70  C3  MOL d          20.289  25.573  10.556  0.00  0.00     0.036 A 
ATOM     71  N1  MOL d          20.171  23.445   9.795  0.00  0.00    -0.253 NA
ATOM     72  C4  MOL d          19.786  26.696  11.234  0.00  0.00    -0.042 A 
ATOM     73  S1  MOL d          21.808  25.482   9.771  0.00  0.00    -0.081 SA
ATOM     74  H35 MOL d          20.387  27.597  11.281  0.00  0.00     0.088 H 
ATOM     75  C1  MOL d          21.373  23.852   9.359  0.00  0.00     0.041 A 
ATOM     76  H36 MOL d          22.033  23.203   8.784  0.00  0.00     0.126 H 
ENDBRANCH  61  64
ENDBRANCH  44  61
ENDBRANCH  41  44
ENDBRANCH   1  41
TORSDOF 17
ENDMDL
MODEL 6
REMARK VINA RESULT:      -7.0      1.883      5.963
REMARK  17 active torsions:
REMARK  status: ('A' for Active; 'I' for Inactive)
REMARK    1  A    between atoms: C24_4  and  C22_7 
REMARK    2  A    between atoms: C22_7  and  O23_8 
REMARK    3  A    between atoms: O23_8  and  C21_9 
REMARK       I    between atoms: C21_9  and  N20_11 
REMARK    4  A    between atoms: N20_11  and  C19_12 
REMARK    5  A    between atoms: C19_12  and  C32_13 
REMARK    6  A    between atoms: C19_12  and  C17_20 
REMARK    7  A    between atoms: C32_13  and  C38_14 
REMARK    8  A    between atoms: C17_20  and  O18_21 
REMARK    9  A    between atoms: C17_20  and  C16_22 
REMARK   10  A    between atoms: C16_22  and  N11_23 
REMARK   11  A    between atoms: N11_23  and  C12_24 
REMARK   12  A    between atoms: N11_23  and  S8_29 
REMARK   13  A    between atoms: C12_24  and  C13_25 
REMARK   14  A    between atoms: C13_25  and  C14_26 
REMARK   15  A    between atoms: C13_25  and  C15_27 
REMARK   16  A    between atoms: C15_27  and  C18_28 
REMARK   17  A    between atoms: S8_29  and  C5_32 
ROOT
ATOM      1  C17 MOL d          19.499  31.282  12.980  0.00  0.00     0.067 C 
ATOM      2  H18 MOL d          19.722  31.904  13.859  0.00  0.00     0.088 H 
ENDROOT
BRANCH   1   3
ATOM      3  C19 MOL d          18.392  30.300  13.373  0.00  0.00     0.044 C 
ATOM      4  H10 MOL d          18.865  29.330  13.585  0.00  0.00     0.077 H 
BRANCH   3   5
ATOM      5  N20 MOL d          17.728  30.772  14.577  0.00  0.00    -0.329 N 
ATOM      6  C21 MOL d          17.356  32.025  14.822  0.00  0.00     0.361 C 
ATOM      7  O22 MOL d          17.461  32.966  14.053  0.00  0.00    -0.239 OA
ATOM      8  H9  MOL d          17.533  30.093  15.284  0.00  0.00     0.165 HD
BRANCH   6   9
ATOM      9  O23 MOL d          16.814  32.273  16.147  0.00  0.00    -0.302 OA
BRANCH   9  10
ATOM     10  C22 MOL d          15.532  32.888  16.287  0.00  0.00     0.049 C 
ATOM     11  H7  MOL d          15.281  33.452  15.377  0.00  0.00     0.078 H 
ATOM     12  H8  MOL d          14.762  32.124  16.470  0.00  0.00     0.078 H 
BRANCH  10  13
ATOM     13  C24 MOL d          15.634  33.827  17.476  0.00  0.00     0.034 C 
ATOM     14  N29 MOL d          16.997  34.257  17.639  0.00  0.00    -0.354 N 
ATOM     15  C27 MOL d          17.195  35.534  17.362  0.00  0.00     0.218 C 
ATOM     16  H1  MOL d          17.729  33.644  17.935  0.00  0.00     0.162 HD
ATOM     17  O28 MOL d          18.257  36.111  17.410  0.00  0.00    -0.274 OA
ATOM     18  C26 MOL d          15.899  36.211  16.994  0.00  0.00     0.011 C 
ATOM     19  C25 MOL d          14.863  35.132  17.267  0.00  0.00    -0.036 C 
ATOM     20  H5  MOL d          15.893  36.505  15.934  0.00  0.00     0.047 H 
ATOM     21  H6  MOL d          15.722  37.097  17.622  0.00  0.00     0.047 H 
ATOM     22  H3  MOL d          14.286  35.380  18.170  0.00  0.00     0.036 H 
ATOM     23  H4  MOL d          14.180  35.036  16.410  0.00  0.00     0.036 H 
ATOM     24  H2  MOL d          15.273  33.310  18.377  0.00  0.00     0.075 H 
ENDBRANCH  10  13
ENDBRANCH   9  10
ENDBRANCH   6   9
ENDBRANCH   3   5
BRANCH   3  25
ATOM     25  C32 MOL d          17.330  30.081  12.290  0.00  0.00    -0.020 C 
ATOM     26  H11 MOL d          17.490  30.807  11.479  0.00  0.00     0.043 H 
ATOM     27  H12 MOL d          16.334  30.234  12.729  0.00  0.00     0.043 H 
BRANCH  25  28
ATOM     28  C38 MOL d          17.407  28.673  11.717  0.00  0.00    -0.056 A 
ATOM     29  C37 MOL d          17.245  28.479  10.351  0.00  0.00    -0.077 A 
ATOM     30  C36 MOL d          17.317  27.196   9.811  0.00  0.00    -0.082 A 
ATOM     31  H13 MOL d          17.062  29.329   9.703  0.00  0.00     0.084 H 
ATOM     32  C35 MOL d          17.559  26.104  10.635  0.00  0.00    -0.083 A 
ATOM     33  H14 MOL d          17.185  27.051   8.745  0.00  0.00     0.083 H 
ATOM     34  C34 MOL d          17.724  26.296  12.002  0.00  0.00    -0.082 A 
ATOM     35  H15 MOL d          17.618  25.106  10.214  0.00  0.00     0.083 H 
ATOM     36  C33 MOL d          17.655  27.580  12.535  0.00  0.00    -0.077 A 
ATOM     37  H16 MOL d          17.907  25.448  12.651  0.00  0.00     0.083 H 
ATOM     38  H17 MOL d          17.796  27.728  13.599  0.00  0.00     0.084 H 
ENDBRANCH  25  28
ENDBRANCH   3  25
ENDBRANCH   1   3
BRANCH   1  39
ATOM     39  O18 MOL d          19.052  32.127  11.916  0.00  0.00    -0.392 OA
ATOM     40  H19 MOL d          18.115  32.263  11.994  0.00  0.00     0.210 HD
ENDBRANCH   1  39
BRANCH   1  41
ATOM     41  C16 MOL d          20.799  30.595  12.537  0.00  0.00     0.019 C 
ATOM     42  H20 MOL d          21.397  31.292  11.931  0.00  0.00     0.061 H 
ATOM     43  H21 MOL d          20.561  29.703  11.940  0.00  0.00     0.061 H 
BRANCH  41  44
ATOM     44  N11 MOL d          21.568  30.197  13.746  0.00  0.00    -0.204 NA
BRANCH  44  45
ATOM     45  C12 MOL d          22.853  30.925  13.853  0.00  0.00    -0.004 C 
ATOM     46  H22 MOL d          23.081  31.390  12.883  0.00  0.00     0.058 H 
ATOM     47  H23 MOL d          23.647  30.209  14.112  0.00  0.00     0.058 H 
BRANCH  45  48
ATOM     48  C13 MOL d          22.801  32.022  14.931  0.00  0.00    -0.046 C 
ATOM     49  H24 MOL d          23.742  31.978  15.497  0.00  0.00     0.041 H 
BRANCH  48  50
ATOM     50  C14 MOL d          22.668  33.441  14.377  0.00  0.00    -0.072 C 
ATOM     51  H25 MOL d          21.929  33.449  13.562  0.00  0.00     0.028 H 
ATOM     52  H26 MOL d          23.642  33.777  13.992  0.00  0.00     0.028 H 
ATOM     53  H27 MOL d          22.336  34.118  15.178  0.00  0.00     0.028 H 
ENDBRANCH  48  50
BRANCH  48  54
ATOM     54  C15 MOL d          21.643  31.722  15.890  0.00  0.00    -0.064 C 
ATOM     55  H28 MOL d          22.065  31.417  16.859  0.00  0.00     0.033 H 
ATOM     56  H29 MOL d          21.050  30.895  15.471  0.00  0.00     0.033 H 
BRANCH  54  57
ATOM     57  C18 MOL d          20.718  32.906  16.121  0.00  0.00    -0.076 C 
ATOM     58  H30 MOL d          21.308  33.773  16.452  0.00  0.00     0.027 H 
ATOM     59  H31 MOL d          19.979  32.649  16.896  0.00  0.00     0.027 H 
ATOM     60  H32 MOL d          20.196  33.153  15.185  0.00  0.00     0.027 H 
ENDBRANCH  54  57
ENDBRANCH  48  54
ENDBRANCH  45  48
ENDBRANCH  44  45
BRANCH  44  61
ATOM     61  S8  MOL d          21.705  28.589  13.968  0.00  0.00     0.243 S 
ATOM     62  O10 MOL d          20.425  28.112  14.393  0.00  0.00    -0.206 OA
ATOM     63  O9  MOL d          22.759  28.417  14.940  0.00  0.00    -0.206 OA
BRANCH  61  64
ATOM     64  C5  MOL d          22.165  27.833  12.582  0.00  0.00     0.076 A 
ATOM     65  C6  MOL d          23.459  28.061  12.108  0.00  0.00    -0.059 A 
ATOM     66  C7  MOL d          23.943  27.411  10.974  0.00  0.00    -0.052 A 
ATOM     67  H33 MOL d          24.100  28.759  12.634  0.00  0.00     0.086 H 
ATOM     68  C2  MOL d          23.148  26.529  10.270  0.00  0.00     0.074 A 
ATOM     69  H34 MOL d          24.956  27.601  10.640  0.00  0.00     0.087 H 
ATOM     70  C3  MOL d          21.842  26.288  10.705  0.00  0.00     0.036 A 
ATOM     71  N1  MOL d          23.422  25.812   9.156  0.00  0.00    -0.253 NA
ATOM     72  C4  MOL d          21.364  26.939  11.855  0.00  0.00    -0.042 A 
ATOM     73  S1  MOL d          20.954  25.183   9.745  0.00  0.00    -0.081 SA
ATOM     74  H35 MOL d          20.351  26.746  12.188  0.00  0.00     0.088 H 
ATOM     75  C1  MOL d          22.380  25.063   8.760  0.00  0.00     0.041 A 
ATOM     76  H36 MOL d          22.425  24.424   7.880  0.00  0.00     0.126 H 
ENDBRANCH  61  64
ENDBRANCH  44  61
ENDBRANCH  41  44
ENDBRANCH   1  41
TORSDOF 17
ENDMDL
MODEL 7
REMARK VINA RESULT:      -6.9      2.348      7.360
REMARK  17 active torsions:
REMARK  status: ('A' for Active; 'I' for Inactive)
REMARK    1  A    between atoms: C24_4  and  C22_7 
REMARK    2  A    between atoms: C22_7  and  O23_8 
REMARK    3  A    between atoms: O23_8  and  C21_9 
REMARK       I    between atoms: C21_9  and  N20_11 
REMARK    4  A    between atoms: N20_11  and  C19_12 
REMARK    5  A    between atoms: C19_12  and  C32_13 
REMARK    6  A    between atoms: C19_12  and  C17_20 
REMARK    7  A    between atoms: C32_13  and  C38_14 
REMARK    8  A    between atoms: C17_20  and  O18_21 
REMARK    9  A    between atoms: C17_20  and  C16_22 
REMARK   10  A    between atoms: C16_22  and  N11_23 
REMARK   11  A    between atoms: N11_23  and  C12_24 
REMARK   12  A    between atoms: N11_23  and  S8_29 
REMARK   13  A    between atoms: C12_24  and  C13_25 
REMARK   14  A    between atoms: C13_25  and  C14_26 
REMARK   15  A    between atoms: C13_25  and  C15_27 
REMARK   16  A    between atoms: C15_27  and  C18_28 
REMARK   17  A    between atoms: S8_29  and  C5_32 
ROOT
ATOM      1  C17 MOL d          21.290  28.908  11.919  0.00  0.00     0.067 C 
ATOM      2  H18 MOL d          21.405  28.241  11.053  0.00  0.00     0.088 H 
ENDROOT
BRANCH   1   3
ATOM      3  C19 MOL d          22.682  29.156  12.507  0.00  0.00     0.044 C 
ATOM      4  H10 MOL d          23.220  29.826  11.820  0.00  0.00     0.077 H 
BRANCH   3   5
ATOM      5  N20 MOL d          22.555  29.810  13.799  0.00  0.00    -0.329 N 
ATOM      6  C21 MOL d          22.295  31.099  13.998  0.00  0.00     0.361 C 
ATOM      7  O22 MOL d          22.065  31.924  13.130  0.00  0.00    -0.239 OA
ATOM      8  H9  MOL d          22.673  29.239  14.611  0.00  0.00     0.165 HD
BRANCH   6   9
ATOM      9  O23 MOL d          22.332  31.542  15.381  0.00  0.00    -0.302 OA
BRANCH   9  10
ATOM     10  C22 MOL d          22.918  32.803  15.707  0.00  0.00     0.049 C 
ATOM     11  H7  MOL d          23.523  32.715  16.622  0.00  0.00     0.078 H 
ATOM     12  H8  MOL d          23.551  33.154  14.879  0.00  0.00     0.078 H 
BRANCH  10  13
ATOM     13  C24 MOL d          21.766  33.767  15.932  0.00  0.00     0.034 C 
ATOM     14  N29 MOL d          21.363  33.728  17.312  0.00  0.00    -0.354 N 
ATOM     15  C27 MOL d          21.643  34.829  17.986  0.00  0.00     0.218 C 
ATOM     16  H1  MOL d          20.912  32.936  17.725  0.00  0.00     0.162 HD
ATOM     17  O28 MOL d          21.415  35.017  19.159  0.00  0.00    -0.274 OA
ATOM     18  C26 MOL d          22.274  35.862  17.087  0.00  0.00     0.011 C 
ATOM     19  C25 MOL d          22.164  35.227  15.710  0.00  0.00    -0.036 C 
ATOM     20  H5  MOL d          23.326  36.035  17.360  0.00  0.00     0.047 H 
ATOM     21  H6  MOL d          21.724  36.813  17.129  0.00  0.00     0.047 H 
ATOM     22  H3  MOL d          21.396  35.743  15.115  0.00  0.00     0.036 H 
ATOM     23  H4  MOL d          23.131  35.281  15.188  0.00  0.00     0.036 H 
ATOM     24  H2  MOL d          20.931  33.494  15.270  0.00  0.00     0.075 H 
ENDBRANCH  10  13
ENDBRANCH   9  10
ENDBRANCH   6   9
ENDBRANCH   3   5
BRANCH   3  25
ATOM     25  C32 MOL d          23.526  27.890  12.687  0.00  0.00    -0.020 C 
ATOM     26  H11 MOL d          23.057  27.254  13.452  0.00  0.00     0.043 H 
ATOM     27  H12 MOL d          24.535  28.177  13.016  0.00  0.00     0.043 H 
BRANCH  25  28
ATOM     28  C38 MOL d          23.632  27.106  11.387  0.00  0.00    -0.056 A 
ATOM     29  C37 MOL d          23.443  25.730  11.399  0.00  0.00    -0.077 A 
ATOM     30  C36 MOL d          23.533  24.999  10.216  0.00  0.00    -0.082 A 
ATOM     31  H13 MOL d          23.224  25.223  12.332  0.00  0.00     0.084 H 
ATOM     32  C35 MOL d          23.806  25.643   9.015  0.00  0.00    -0.083 A 
ATOM     33  H14 MOL d          23.390  23.925  10.232  0.00  0.00     0.083 H 
ATOM     34  C34 MOL d          23.993  27.021   9.001  0.00  0.00    -0.082 A 
ATOM     35  H15 MOL d          23.873  25.075   8.095  0.00  0.00     0.083 H 
ATOM     36  C33 MOL d          23.898  27.746  10.185  0.00  0.00    -0.077 A 
ATOM     37  H16 MOL d          24.213  27.529   8.069  0.00  0.00     0.083 H 
ATOM     38  H17 MOL d          24.032  28.822  10.168  0.00  0.00     0.084 H 
ENDBRANCH  25  28
ENDBRANCH   3  25
ENDBRANCH   1   3
BRANCH   1  39
ATOM     39  O18 MOL d          20.716  30.143  11.479  0.00  0.00    -0.392 OA
ATOM     40  H19 MOL d          21.393  30.807  11.434  0.00  0.00     0.210 HD
ENDBRANCH   1  39
BRANCH   1  41
ATOM     41  C16 MOL d          20.316  28.248  12.906  0.00  0.00     0.019 C 
ATOM     42  H20 MOL d          20.012  28.979  13.669  0.00  0.00     0.061 H 
ATOM     43  H21 MOL d          20.805  27.392  13.392  0.00  0.00     0.061 H 
BRANCH  41  44
ATOM     44  N11 MOL d          19.119  27.780  12.157  0.00  0.00    -0.204 NA
BRANCH  44  45
ATOM     45  C12 MOL d          19.436  27.459  10.746  0.00  0.00    -0.004 C 
ATOM     46  H22 MOL d          20.527  27.498  10.608  0.00  0.00     0.058 H 
ATOM     47  H23 MOL d          18.958  28.205  10.095  0.00  0.00     0.058 H 
BRANCH  45  48
ATOM     48  C13 MOL d          18.934  26.058  10.352  0.00  0.00    -0.046 C 
ATOM     49  H24 MOL d          18.714  25.510  11.279  0.00  0.00     0.041 H 
BRANCH  48  50
ATOM     50  C14 MOL d          17.658  26.063   9.510  0.00  0.00    -0.072 C 
ATOM     51  H25 MOL d          17.510  25.069   9.064  0.00  0.00     0.028 H 
ATOM     52  H26 MOL d          17.748  26.814   8.712  0.00  0.00     0.028 H 
ATOM     53  H27 MOL d          16.797  26.308  10.150  0.00  0.00     0.028 H 
ENDBRANCH  48  50
BRANCH  48  54
ATOM     54  C15 MOL d          20.053  25.321   9.606  0.00  0.00    -0.064 C 
ATOM     55  H28 MOL d          20.967  25.370  10.215  0.00  0.00     0.033 H 
ATOM     56  H29 MOL d          20.223  25.829   8.645  0.00  0.00     0.033 H 
BRANCH  54  57
ATOM     57  C18 MOL d          19.741  23.859   9.327  0.00  0.00    -0.076 C 
ATOM     58  H30 MOL d          19.553  23.723   8.252  0.00  0.00     0.027 H 
ATOM     59  H31 MOL d          18.847  23.559   9.896  0.00  0.00     0.027 H 
ATOM     60  H32 MOL d          20.595  23.237   9.633  0.00  0.00     0.027 H 
ENDBRANCH  54  57
ENDBRANCH  48  54
ENDBRANCH  45  48
ENDBRANCH  44  45
BRANCH  44  61
ATOM     61  S8  MOL d          17.795  28.712  12.335  0.00  0.00     0.243 S 
ATOM     62  O10 MOL d          16.700  27.836  12.622  0.00  0.00    -0.206 OA
ATOM     63  O9  MOL d          17.664  29.446  11.099  0.00  0.00    -0.206 OA
BRANCH  61  64
ATOM     64  C5  MOL d          17.991  29.799  13.553  0.00  0.00     0.076 A 
ATOM     65  C6  MOL d          18.708  29.398  14.682  0.00  0.00    -0.059 A 
ATOM     66  C7  MOL d          18.968  30.280  15.729  0.00  0.00    -0.052 A 
ATOM     67  H33 MOL d          19.070  28.378  14.745  0.00  0.00     0.086 H 
ATOM     68  C2  MOL d          18.508  31.581  15.690  0.00  0.00     0.074 A 
ATOM     69  H34 MOL d          19.539  29.940  16.586  0.00  0.00     0.087 H 
ATOM     70  C3  MOL d          17.773  32.014  14.584  0.00  0.00     0.036 A 
ATOM     71  N1  MOL d          18.644  32.578  16.595  0.00  0.00    -0.253 NA
ATOM     72  C4  MOL d          17.523  31.122  13.527  0.00  0.00    -0.042 A 
ATOM     73  S1  MOL d          17.250  33.643  14.657  0.00  0.00    -0.081 SA
ATOM     74  H35 MOL d          16.954  31.465  12.671  0.00  0.00     0.088 H 
ATOM     75  C1  MOL d          18.044  33.712  16.201  0.00  0.00     0.041 A 
ATOM     76  H36 MOL d          18.054  34.617  16.808  0.00  0.00     0.126 H 
ENDBRANCH  61  64
ENDBRANCH  44  61
ENDBRANCH  41  44
ENDBRANCH   1  41
TORSDOF 17
ENDMDL
MODEL 8
REMARK VINA RESULT:      -6.8      2.197      3.928
REMARK  17 active torsions:
REMARK  status: ('A' for Active; 'I' for Inactive)
REMARK    1  A    between atoms: C24_4  and  C22_7 
REMARK    2  A    between atoms: C22_7  and  O23_8 
REMARK    3  A    between atoms: O23_8  and  C21_9 
REMARK       I    between atoms: C21_9  and  N20_11 
REMARK    4  A    between atoms: N20_11  and  C19_12 
REMARK    5  A    between atoms: C19_12  and  C32_13 
REMARK    6  A    between atoms: C19_12  and  C17_20 
REMARK    7  A    between atoms: C32_13  and  C38_14 
REMARK    8  A    between atoms: C17_20  and  O18_21 
REMARK    9  A    between atoms: C17_20  and  C16_22 
REMARK   10  A    between atoms: C16_22  and  N11_23 
REMARK   11  A    between atoms: N11_23  and  C12_24 
REMARK   12  A    between atoms: N11_23  and  S8_29 
REMARK   13  A    between atoms: C12_24  and  C13_25 
REMARK   14  A    between atoms: C13_25  and  C14_26 
REMARK   15  A    between atoms: C13_25  and  C15_27 
REMARK   16  A    between atoms: C15_27  and  C18_28 
REMARK   17  A    between atoms: S8_29  and  C5_32 
ROOT
ATOM      1  C17 MOL d          20.331  30.895  15.263  0.00  0.00     0.067 C 
ATOM      2  H18 MOL d          19.976  29.916  15.615  0.00  0.00     0.088 H 
ENDROOT
BRANCH   1   3
ATOM      3  C19 MOL d          19.620  31.974  16.083  0.00  0.00     0.044 C 
ATOM      4  H10 MOL d          18.873  31.473  16.717  0.00  0.00     0.077 H 
BRANCH   3   5
ATOM      5  N20 MOL d          20.583  32.651  16.935  0.00  0.00    -0.329 N 
ATOM      6  C21 MOL d          21.549  33.467  16.525  0.00  0.00     0.361 C 
ATOM      7  O22 MOL d          21.744  33.822  15.375  0.00  0.00    -0.239 OA
ATOM      8  H9  MOL d          20.513  32.488  17.919  0.00  0.00     0.165 HD
BRANCH   6   9
ATOM      9  O23 MOL d          22.461  33.931  17.556  0.00  0.00    -0.302 OA
BRANCH   9  10
ATOM     10  C22 MOL d          21.943  34.503  18.758  0.00  0.00     0.049 C 
ATOM     11  H7  MOL d          20.891  34.213  18.894  0.00  0.00     0.078 H 
ATOM     12  H8  MOL d          22.532  34.165  19.624  0.00  0.00     0.078 H 
BRANCH  10  13
ATOM     13  C24 MOL d          22.057  36.009  18.602  0.00  0.00     0.034 C 
ATOM     14  N29 MOL d          22.458  36.328  17.258  0.00  0.00    -0.354 N 
ATOM     15  C27 MOL d          21.517  36.915  16.540  0.00  0.00     0.218 C 
ATOM     16  H1  MOL d          23.369  36.122  16.898  0.00  0.00     0.162 HD
ATOM     17  O28 MOL d          21.619  37.257  15.385  0.00  0.00    -0.274 OA
ATOM     18  C26 MOL d          20.275  37.139  17.365  0.00  0.00     0.011 C 
ATOM     19  C25 MOL d          20.715  36.724  18.760  0.00  0.00    -0.036 C 
ATOM     20  H5  MOL d          19.445  36.512  17.009  0.00  0.00     0.047 H 
ATOM     21  H6  MOL d          19.971  38.196  17.345  0.00  0.00     0.047 H 
ATOM     22  H3  MOL d          20.831  37.611  19.401  0.00  0.00     0.036 H 
ATOM     23  H4  MOL d          19.973  36.044  19.205  0.00  0.00     0.036 H 
ATOM     24  H2  MOL d          22.784  36.394  19.331  0.00  0.00     0.075 H 
ENDBRANCH  10  13
ENDBRANCH   9  10
ENDBRANCH   6   9
ENDBRANCH   3   5
BRANCH   3  25
ATOM     25  C32 MOL d          18.893  33.029  15.243  0.00  0.00    -0.020 C 
ATOM     26  H11 MOL d          18.671  32.606  14.252  0.00  0.00     0.043 H 
ATOM     27  H12 MOL d          19.544  33.907  15.130  0.00  0.00     0.043 H 
BRANCH  25  28
ATOM     28  C38 MOL d          17.590  33.459  15.901  0.00  0.00    -0.056 A 
ATOM     29  C37 MOL d          17.621  34.366  16.953  0.00  0.00    -0.077 A 
ATOM     30  C36 MOL d          16.436  34.773  17.563  0.00  0.00    -0.082 A 
ATOM     31  H13 MOL d          18.570  34.758  17.301  0.00  0.00     0.084 H 
ATOM     32  C35 MOL d          15.215  34.280  17.117  0.00  0.00    -0.083 A 
ATOM     33  H14 MOL d          16.466  35.477  18.386  0.00  0.00     0.083 H 
ATOM     34  C34 MOL d          15.182  33.375  16.063  0.00  0.00    -0.082 A 
ATOM     35  H15 MOL d          14.293  34.600  17.590  0.00  0.00     0.083 H 
ATOM     36  C33 MOL d          16.369  32.975  15.455  0.00  0.00    -0.077 A 
ATOM     37  H16 MOL d          14.234  32.981  15.715  0.00  0.00     0.083 H 
ATOM     38  H17 MOL d          16.339  32.278  14.626  0.00  0.00     0.084 H 
ENDBRANCH  25  28
ENDBRANCH   3  25
ENDBRANCH   1   3
BRANCH   1  39
ATOM     39  O18 MOL d          21.745  30.975  15.467  0.00  0.00    -0.392 OA
ATOM     40  H19 MOL d          21.924  31.065  16.395  0.00  0.00     0.210 HD
ENDBRANCH   1  39
BRANCH   1  41
ATOM     41  C16 MOL d          20.056  30.988  13.755  0.00  0.00     0.019 C 
ATOM     42  H20 MOL d          20.919  31.448  13.250  0.00  0.00     0.061 H 
ATOM     43  H21 MOL d          19.160  31.601  13.579  0.00  0.00     0.061 H 
BRANCH  41  44
ATOM     44  N11 MOL d          19.837  29.618  13.221  0.00  0.00    -0.204 NA
BRANCH  44  45
ATOM     45  C12 MOL d          20.515  29.412  11.921  0.00  0.00    -0.004 C 
ATOM     46  H22 MOL d          20.553  30.370  11.383  0.00  0.00     0.058 H 
ATOM     47  H23 MOL d          19.940  28.683  11.331  0.00  0.00     0.058 H 
BRANCH  45  48
ATOM     48  C13 MOL d          21.950  28.885  12.101  0.00  0.00    -0.046 C 
ATOM     49  H24 MOL d          22.633  29.742  12.009  0.00  0.00     0.041 H 
BRANCH  48  50
ATOM     50  C14 MOL d          22.214  28.235  13.460  0.00  0.00    -0.072 C 
ATOM     51  H25 MOL d          23.209  28.534  13.822  0.00  0.00     0.028 H 
ATOM     52  H26 MOL d          22.176  27.140  13.355  0.00  0.00     0.028 H 
ATOM     53  H27 MOL d          21.448  28.562  14.178  0.00  0.00     0.028 H 
ENDBRANCH  48  50
BRANCH  48  54
ATOM     54  C15 MOL d          22.261  27.893  10.974  0.00  0.00    -0.064 C 
ATOM     55  H28 MOL d          23.328  27.631  11.027  0.00  0.00     0.033 H 
ATOM     56  H29 MOL d          22.051  28.384  10.012  0.00  0.00     0.033 H 
BRANCH  54  57
ATOM     57  C18 MOL d          21.447  26.611  11.046  0.00  0.00    -0.076 C 
ATOM     58  H30 MOL d          21.410  26.144  10.051  0.00  0.00     0.027 H 
ATOM     59  H31 MOL d          20.424  26.844  11.380  0.00  0.00     0.027 H 
ATOM     60  H32 MOL d          21.916  25.918  11.760  0.00  0.00     0.027 H 
ENDBRANCH  54  57
ENDBRANCH  48  54
ENDBRANCH  45  48
ENDBRANCH  44  45
BRANCH  44  61
ATOM     61  S8  MOL d          18.286  29.119  13.238  0.00  0.00     0.243 S 
ATOM     62  O10 MOL d          17.468  30.286  13.104  0.00  0.00    -0.206 OA
ATOM     63  O9  MOL d          18.116  28.410  14.484  0.00  0.00    -0.206 OA
BRANCH  61  64
ATOM     64  C5  MOL d          17.985  28.067  12.010  0.00  0.00     0.076 A 
ATOM     65  C6  MOL d          17.696  28.595  10.750  0.00  0.00    -0.059 A 
ATOM     66  C7  MOL d          17.489  27.769   9.646  0.00  0.00    -0.052 A 
ATOM     67  H33 MOL d          17.631  29.670  10.627  0.00  0.00     0.086 H 
ATOM     68  C2  MOL d          17.547  26.395   9.769  0.00  0.00     0.074 A 
ATOM     69  H34 MOL d          17.280  28.211   8.679  0.00  0.00     0.087 H 
ATOM     70  C3  MOL d          17.818  25.831  11.018  0.00  0.00     0.036 A 
ATOM     71  N1  MOL d          17.371  25.431   8.836  0.00  0.00    -0.253 NA
ATOM     72  C4  MOL d          18.035  26.669  12.124  0.00  0.00    -0.042 A 
ATOM     73  S1  MOL d          17.854  24.119  11.044  0.00  0.00    -0.081 SA
ATOM     74  H35 MOL d          18.247  26.225  13.090  0.00  0.00     0.088 H 
ATOM     75  C1  MOL d          17.499  24.196   9.346  0.00  0.00     0.041 A 
ATOM     76  H36 MOL d          17.388  23.301   8.735  0.00  0.00     0.126 H 
ENDBRANCH  61  64
ENDBRANCH  44  61
ENDBRANCH  41  44
ENDBRANCH   1  41
TORSDOF 17
ENDMDL
MODEL 9
REMARK VINA RESULT:      -6.6      1.830      6.136
REMARK  17 active torsions:
REMARK  status: ('A' for Active; 'I' for Inactive)
REMARK    1  A    between atoms: C24_4  and  C22_7 
REMARK    2  A    between atoms: C22_7  and  O23_8 
REMARK    3  A    between atoms: O23_8  and  C21_9 
REMARK       I    between atoms: C21_9  and  N20_11 
REMARK    4  A    between atoms: N20_11  and  C19_12 
REMARK    5  A    between atoms: C19_12  and  C32_13 
REMARK    6  A    between atoms: C19_12  and  C17_20 
REMARK    7  A    between atoms: C32_13  and  C38_14 
REMARK    8  A    between atoms: C17_20  and  O18_21 
REMARK    9  A    between atoms: C17_20  and  C16_22 
REMARK   10  A    between atoms: C16_22  and  N11_23 
REMARK   11  A    between atoms: N11_23  and  C12_24 
REMARK   12  A    between atoms: N11_23  and  S8_29 
REMARK   13  A    between atoms: C12_24  and  C13_25 
REMARK   14  A    between atoms: C13_25  and  C14_26 
REMARK   15  A    between atoms: C13_25  and  C15_27 
REMARK   16  A    between atoms: C15_27  and  C18_28 
REMARK   17  A    between atoms: S8_29  and  C5_32 
ROOT
ATOM      1  C17 MOL d          18.850  31.643  14.587  0.00  0.00     0.067 C 
ATOM      2  H18 MOL d          18.724  32.390  15.384  0.00  0.00     0.088 H 
ENDROOT
BRANCH   1   3
ATOM      3  C19 MOL d          17.520  30.904  14.424  0.00  0.00     0.044 C 
ATOM      4  H10 MOL d          17.617  29.927  14.921  0.00  0.00     0.077 H 
BRANCH   3   5
ATOM      5  N20 MOL d          16.461  31.659  15.075  0.00  0.00    -0.329 N 
ATOM      6  C21 MOL d          16.579  32.355  16.201  0.00  0.00     0.361 C 
ATOM      7  O22 MOL d          17.608  32.519  16.836  0.00  0.00    -0.239 OA
ATOM      8  H9  MOL d          15.563  31.653  14.635  0.00  0.00     0.165 HD
BRANCH   6   9
ATOM      9  O23 MOL d          15.350  32.930  16.717  0.00  0.00    -0.302 OA
BRANCH   9  10
ATOM     10  C22 MOL d          15.110  34.332  16.585  0.00  0.00     0.049 C 
ATOM     11  H7  MOL d          15.729  34.749  15.776  0.00  0.00     0.078 H 
ATOM     12  H8  MOL d          14.048  34.517  16.367  0.00  0.00     0.078 H 
BRANCH  10  13
ATOM     13  C24 MOL d          15.490  34.961  17.914  0.00  0.00     0.034 C 
ATOM     14  N29 MOL d          16.923  34.996  18.041  0.00  0.00    -0.354 N 
ATOM     15  C27 MOL d          17.439  36.211  17.988  0.00  0.00     0.218 C 
ATOM     16  H1  MOL d          17.479  34.173  18.159  0.00  0.00     0.162 HD
ATOM     17  O28 MOL d          18.615  36.483  18.055  0.00  0.00    -0.274 OA
ATOM     18  C26 MOL d          16.353  37.249  17.858  0.00  0.00     0.011 C 
ATOM     19  C25 MOL d          15.080  36.431  18.012  0.00  0.00    -0.036 C 
ATOM     20  H5  MOL d          16.390  37.741  16.874  0.00  0.00     0.047 H 
ATOM     21  H6  MOL d          16.433  38.008  18.650  0.00  0.00     0.047 H 
ATOM     22  H3  MOL d          14.617  36.631  18.990  0.00  0.00     0.036 H 
ATOM     23  H4  MOL d          14.369  36.681  17.211  0.00  0.00     0.036 H 
ATOM     24  H2  MOL d          15.036  34.382  18.731  0.00  0.00     0.075 H 
ENDBRANCH  10  13
ENDBRANCH   9  10
ENDBRANCH   6   9
ENDBRANCH   3   5
BRANCH   3  25
ATOM     25  C32 MOL d          17.111  30.654  12.969  0.00  0.00    -0.020 C 
ATOM     26  H11 MOL d          17.684  31.328  12.316  0.00  0.00     0.043 H 
ATOM     27  H12 MOL d          16.037  30.861  12.859  0.00  0.00     0.043 H 
BRANCH  25  28
ATOM     28  C38 MOL d          17.383  29.215  12.557  0.00  0.00    -0.056 A 
ATOM     29  C37 MOL d          17.806  28.297  13.510  0.00  0.00    -0.077 A 
ATOM     30  C36 MOL d          18.054  26.974  13.149  0.00  0.00    -0.082 A 
ATOM     31  H13 MOL d          17.944  28.611  14.539  0.00  0.00     0.084 H 
ATOM     32  C35 MOL d          17.873  26.563  11.834  0.00  0.00    -0.083 A 
ATOM     33  H14 MOL d          18.389  26.263  13.895  0.00  0.00     0.083 H 
ATOM     34  C34 MOL d          17.447  27.479  10.879  0.00  0.00    -0.082 A 
ATOM     35  H15 MOL d          18.064  25.533  11.553  0.00  0.00     0.083 H 
ATOM     36  C33 MOL d          17.197  28.798  11.247  0.00  0.00    -0.077 A 
ATOM     37  H16 MOL d          17.310  27.167   9.850  0.00  0.00     0.083 H 
ATOM     38  H17 MOL d          16.853  29.507  10.502  0.00  0.00     0.084 H 
ENDBRANCH  25  28
ENDBRANCH   3  25
ENDBRANCH   1   3
BRANCH   1  39
ATOM     39  O18 MOL d          19.191  32.315  13.372  0.00  0.00    -0.392 OA
ATOM     40  H19 MOL d          19.303  33.242  13.545  0.00  0.00     0.210 HD
ENDBRANCH   1  39
BRANCH   1  41
ATOM     41  C16 MOL d          20.019  30.725  14.974  0.00  0.00     0.019 C 
ATOM     42  H20 MOL d          20.205  30.002  14.166  0.00  0.00     0.061 H 
ATOM     43  H21 MOL d          19.775  30.184  15.900  0.00  0.00     0.061 H 
BRANCH  41  44
ATOM     44  N11 MOL d          21.232  31.558  15.188  0.00  0.00    -0.204 NA
BRANCH  44  45
ATOM     45  C12 MOL d          20.894  32.930  15.632  0.00  0.00    -0.004 C 
ATOM     46  H22 MOL d          19.816  32.980  15.845  0.00  0.00     0.058 H 
ATOM     47  H23 MOL d          21.142  33.636  14.825  0.00  0.00     0.058 H 
BRANCH  45  48
ATOM     48  C13 MOL d          21.671  33.329  16.899  0.00  0.00    -0.046 C 
ATOM     49  H24 MOL d          20.950  33.757  17.610  0.00  0.00     0.041 H 
BRANCH  48  50
ATOM     50  C14 MOL d          22.368  32.163  17.602  0.00  0.00    -0.072 C 
ATOM     51  H25 MOL d          21.669  31.689  18.307  0.00  0.00     0.028 H 
ATOM     52  H26 MOL d          23.245  32.537  18.150  0.00  0.00     0.028 H 
ATOM     53  H27 MOL d          22.691  31.424  16.854  0.00  0.00     0.028 H 
ENDBRANCH  48  50
BRANCH  48  54
ATOM     54  C15 MOL d          22.695  34.410  16.535  0.00  0.00    -0.064 C 
ATOM     55  H28 MOL d          22.954  34.300  15.472  0.00  0.00     0.033 H 
ATOM     56  H29 MOL d          23.594  34.259  17.150  0.00  0.00     0.033 H 
BRANCH  54  57
ATOM     57  C18 MOL d          22.193  35.828  16.762  0.00  0.00    -0.076 C 
ATOM     58  H30 MOL d          21.790  35.915  17.782  0.00  0.00     0.027 H 
ATOM     59  H31 MOL d          21.400  36.057  16.034  0.00  0.00     0.027 H 
ATOM     60  H32 MOL d          23.024  36.537  16.633  0.00  0.00     0.027 H 
ENDBRANCH  54  57
ENDBRANCH  48  54
ENDBRANCH  45  48
ENDBRANCH  44  45
BRANCH  44  61
ATOM     61  S8  MOL d          22.316  31.511  13.972  0.00  0.00     0.243 S 
ATOM     62  O10 MOL d          23.616  31.502  14.568  0.00  0.00    -0.206 OA
ATOM     63  O9  MOL d          22.040  32.671  13.157  0.00  0.00    -0.206 OA
BRANCH  61  64
ATOM     64  C5  MOL d          22.106  30.174  13.038  0.00  0.00     0.076 A 
ATOM     65  C6  MOL d          20.993  30.130  12.196  0.00  0.00    -0.059 A 
ATOM     66  C7  MOL d          20.778  29.058  11.331  0.00  0.00    -0.052 A 
ATOM     67  H33 MOL d          20.281  30.947  12.215  0.00  0.00     0.086 H 
ATOM     68  C2  MOL d          21.655  27.993  11.292  0.00  0.00     0.074 A 
ATOM     69  H34 MOL d          19.912  29.061  10.680  0.00  0.00     0.087 H 
ATOM     70  C3  MOL d          22.771  27.994  12.132  0.00  0.00     0.036 A 
ATOM     71  N1  MOL d          21.623  26.868  10.539  0.00  0.00    -0.253 NA
ATOM     72  C4  MOL d          22.987  29.082  12.994  0.00  0.00    -0.042 A 
ATOM     73  S1  MOL d          23.777  26.615  11.998  0.00  0.00    -0.081 SA
ATOM     74  H35 MOL d          23.856  29.078  13.642  0.00  0.00     0.088 H 
ATOM     75  C1  MOL d          22.660  26.053  10.793  0.00  0.00     0.041 A 
ATOM     76  H36 MOL d          22.791  25.103  10.278  0.00  0.00     0.126 H 
ENDBRANCH  61  64
ENDBRANCH  44  61
ENDBRANCH  41  44
ENDBRANCH   1  41
TORSDOF 17
ENDMDL
MODEL 10
REMARK VINA RESULT:      -6.1      2.202      6.843
REMARK  17 active torsions:
REMARK  status: ('A' for Active; 'I' for Inactive)
REMARK    1  A    between atoms: C24_4  and  C22_7 
REMARK    2  A    between atoms: C22_7  and  O23_8 
REMARK    3  A    between atoms: O23_8  and  C21_9 
REMARK       I    between atoms: C21_9  and  N20_11 
REMARK    4  A    between atoms: N20_11  and  C19_12 
REMARK    5  A    between atoms: C19_12  and  C32_13 
REMARK    6  A    between atoms: C19_12  and  C17_20 
REMARK    7  A    between atoms: C32_13  and  C38_14 
REMARK    8  A    between atoms: C17_20  and  O18_21 
REMARK    9  A    between atoms: C17_20  and  C16_22 
REMARK   10  A    between atoms: C16_22  and  N11_23 
REMARK   11  A    between atoms: N11_23  and  C12_24 
REMARK   12  A    between atoms: N11_23  and  S8_29 
REMARK   13  A    between atoms: C12_24  and  C13_25 
REMARK   14  A    between atoms: C13_25  and  C14_26 
REMARK   15  A    between atoms: C13_25  and  C15_27 
REMARK   16  A    between atoms: C15_27  and  C18_28 
REMARK   17  A    between atoms: S8_29  and  C5_32 
ROOT
ATOM      1  C17 MOL d          19.514  27.533  13.312  0.00  0.00     0.067 C 
ATOM      2  H18 MOL d          19.605  26.460  13.088  0.00  0.00     0.088 H 
ENDROOT
BRANCH   1   3
ATOM      3  C19 MOL d          18.110  27.777  13.871  0.00  0.00     0.044 C 
ATOM      4  H10 MOL d          18.132  27.540  14.945  0.00  0.00     0.077 H 
BRANCH   3   5
ATOM      5  N20 MOL d          17.758  29.178  13.706  0.00  0.00    -0.329 N 
ATOM      6  C21 MOL d          18.078  30.165  14.535  0.00  0.00     0.361 C 
ATOM      7  O22 MOL d          18.768  30.063  15.537  0.00  0.00    -0.239 OA
ATOM      8  H9  MOL d          17.226  29.420  12.894  0.00  0.00     0.165 HD
BRANCH   6   9
ATOM      9  O23 MOL d          17.512  31.464  14.217  0.00  0.00    -0.302 OA
BRANCH   9  10
ATOM     10  C22 MOL d          17.590  32.526  15.169  0.00  0.00     0.049 C 
ATOM     11  H7  MOL d          17.908  32.137  16.148  0.00  0.00     0.078 H 
ATOM     12  H8  MOL d          18.304  33.291  14.828  0.00  0.00     0.078 H 
BRANCH  10  13
ATOM     13  C24 MOL d          16.195  33.119  15.268  0.00  0.00     0.034 C 
ATOM     14  N29 MOL d          15.707  32.985  16.615  0.00  0.00    -0.354 N 
ATOM     15  C27 MOL d          15.601  34.130  17.266  0.00  0.00     0.218 C 
ATOM     16  H1  MOL d          15.469  32.103  17.022  0.00  0.00     0.162 HD
ATOM     17  O28 MOL d          15.231  34.261  18.409  0.00  0.00    -0.274 OA
ATOM     18  C26 MOL d          15.982  35.288  16.378  0.00  0.00     0.011 C 
ATOM     19  C25 MOL d          16.174  34.628  15.022  0.00  0.00    -0.036 C 
ATOM     20  H5  MOL d          16.913  35.762  16.723  0.00  0.00     0.047 H 
ATOM     21  H6  MOL d          15.179  36.040  16.342  0.00  0.00     0.047 H 
ATOM     22  H3  MOL d          15.342  34.891  14.351  0.00  0.00     0.036 H 
ATOM     23  H4  MOL d          17.125  34.952  14.573  0.00  0.00     0.036 H 
ATOM     24  H2  MOL d          15.533  32.606  14.556  0.00  0.00     0.075 H 
ENDBRANCH  10  13
ENDBRANCH   9  10
ENDBRANCH   6   9
ENDBRANCH   3   5
BRANCH   3  25
ATOM     25  C32 MOL d          17.016  26.924  13.223  0.00  0.00    -0.020 C 
ATOM     26  H11 MOL d          16.045  27.424  13.357  0.00  0.00     0.043 H 
ATOM     27  H12 MOL d          16.992  25.939  13.712  0.00  0.00     0.043 H 
BRANCH  25  28
ATOM     28  C38 MOL d          17.271  26.732  11.735  0.00  0.00    -0.056 A 
ATOM     29  C37 MOL d          17.093  27.800  10.865  0.00  0.00    -0.077 A 
ATOM     30  C36 MOL d          17.328  27.640   9.501  0.00  0.00    -0.082 A 
ATOM     31  H13 MOL d          16.770  28.761  11.249  0.00  0.00     0.084 H 
ATOM     32  C35 MOL d          17.748  26.413   9.002  0.00  0.00    -0.083 A 
ATOM     33  H14 MOL d          17.182  28.476   8.826  0.00  0.00     0.083 H 
ATOM     34  C34 MOL d          17.929  25.344   9.871  0.00  0.00    -0.082 A 
ATOM     35  H15 MOL d          17.934  26.290   7.941  0.00  0.00     0.083 H 
ATOM     36  C33 MOL d          17.697  25.510  11.234  0.00  0.00    -0.077 A 
ATOM     37  H16 MOL d          18.251  24.382   9.489  0.00  0.00     0.083 H 
ATOM     38  H17 MOL d          17.852  24.677  11.910  0.00  0.00     0.084 H 
ENDBRANCH  25  28
ENDBRANCH   3  25
ENDBRANCH   1   3
BRANCH   1  39
ATOM     39  O18 MOL d          20.499  27.887  14.287  0.00  0.00    -0.392 OA
ATOM     40  H19 MOL d          20.073  28.288  15.035  0.00  0.00     0.210 HD
ENDBRANCH   1  39
BRANCH   1  41
ATOM     41  C16 MOL d          19.807  28.317  12.024  0.00  0.00     0.019 C 
ATOM     42  H20 MOL d          19.905  29.387  12.257  0.00  0.00     0.061 H 
ATOM     43  H21 MOL d          18.986  28.172  11.308  0.00  0.00     0.061 H 
BRANCH  41  44
ATOM     44  N11 MOL d          21.077  27.815  11.436  0.00  0.00    -0.204 NA
BRANCH  44  45
ATOM     45  C12 MOL d          21.257  26.361  11.657  0.00  0.00    -0.004 C 
ATOM     46  H22 MOL d          20.287  25.919  11.926  0.00  0.00     0.058 H 
ATOM     47  H23 MOL d          21.969  26.213  12.483  0.00  0.00     0.058 H 
BRANCH  45  48
ATOM     48  C13 MOL d          21.795  25.654  10.401  0.00  0.00    -0.046 C 
ATOM     49  H24 MOL d          21.471  26.236   9.527  0.00  0.00     0.041 H 
BRANCH  48  50
ATOM     50  C14 MOL d          23.320  25.551  10.342  0.00  0.00    -0.072 C 
ATOM     51  H25 MOL d          23.626  24.516  10.552  0.00  0.00     0.028 H 
ATOM     52  H26 MOL d          23.761  26.224  11.093  0.00  0.00     0.028 H 
ATOM     53  H27 MOL d          23.668  25.840   9.340  0.00  0.00     0.028 H 
ENDBRANCH  48  50
BRANCH  48  54
ATOM     54  C15 MOL d          21.171  24.256  10.312  0.00  0.00    -0.064 C 
ATOM     55  H28 MOL d          20.189  24.282  10.806  0.00  0.00     0.033 H 
ATOM     56  H29 MOL d          21.828  23.548  10.838  0.00  0.00     0.033 H 
BRANCH  54  57
ATOM     57  C18 MOL d          20.977  23.763   8.886  0.00  0.00    -0.076 C 
ATOM     58  H30 MOL d          21.352  24.521   8.182  0.00  0.00     0.027 H 
ATOM     59  H31 MOL d          19.907  23.588   8.701  0.00  0.00     0.027 H 
ATOM     60  H32 MOL d          21.533  22.824   8.744  0.00  0.00     0.027 H 
ENDBRANCH  54  57
ENDBRANCH  48  54
ENDBRANCH  45  48
ENDBRANCH  44  45
BRANCH  44  61
ATOM     61  S8  MOL d          22.395  28.701  11.800  0.00  0.00     0.243 S 
ATOM     62  O10 MOL d          23.037  29.026  10.563  0.00  0.00    -0.206 OA
ATOM     63  O9  MOL d          23.187  27.880  12.686  0.00  0.00    -0.206 OA
BRANCH  61  64
ATOM     64  C5  MOL d          21.986  30.073  12.609  0.00  0.00     0.076 A 
ATOM     65  C6  MOL d          20.971  30.870  12.077  0.00  0.00    -0.059 A 
ATOM     66  C7  MOL d          20.526  32.016  12.735  0.00  0.00    -0.052 A 
ATOM     67  H33 MOL d          20.518  30.592  11.132  0.00  0.00     0.086 H 
ATOM     68  C2  MOL d          21.091  32.409  13.931  0.00  0.00     0.074 A 
ATOM     69  H34 MOL d          19.727  32.606  12.301  0.00  0.00     0.087 H 
ATOM     70  C3  MOL d          22.120  31.645  14.486  0.00  0.00     0.036 A 
ATOM     71  N1  MOL d          20.812  33.477  14.714  0.00  0.00    -0.253 NA
ATOM     72  C4  MOL d          22.557  30.486  13.823  0.00  0.00    -0.042 A 
ATOM     73  S1  MOL d          22.745  32.240  15.965  0.00  0.00    -0.081 SA
ATOM     74  H35 MOL d          23.355  29.897  14.260  0.00  0.00     0.088 H 
ATOM     75  C1  MOL d          21.589  33.527  15.808  0.00  0.00     0.041 A 
ATOM     76  H36 MOL d          21.501  34.322  16.548  0.00  0.00     0.126 H 
ENDBRANCH  61  64
ENDBRANCH  44  61
ENDBRANCH  41  44
ENDBRANCH   1  41
TORSDOF 17
ENDMDL
