MODEL 1
REMARK VINA RESULT:      -9.7      0.000      0.000
REMARK  6 active torsions:
REMARK  status: ('A' for Active; 'I' for Inactive)
REMARK    1  A    between atoms: C07_7  and  N03_3 
REMARK    2  A    between atoms: N03_3  and  C09_9 
REMARK    3  A    between atoms: C06_6  and  N04_4 
REMARK    4  A    between atoms: N04_4  and  C16_16 
REMARK    5  A    between atoms: C14_14  and  C15_15 
REMARK    6  A    between atoms: C19_19  and  C22_22 
ROOT
ATOM      1  N01 MOL d           3.516  31.823   8.878  0.00  0.00    -0.075 NA
ATOM      2  N02 MOL d           4.264  30.756   6.931  0.00  0.00    -0.045 NA
ATOM      3  C05 MOL d           3.877  30.765   9.621  0.00  0.00     0.025 A 
ATOM      4  C06 MOL d           3.708  31.804   7.555  0.00  0.00     0.728 A 
ATOM      5  C07 MOL d           4.642  29.670   7.638  0.00  0.00     0.148 A 
ATOM      6  C08 MOL d           4.453  29.651   9.019  0.00  0.00    -0.021 A 
ATOM      7  H3  MOL d           3.719  30.779  10.693  0.00  0.00     0.115 H 
ATOM      8  H4  MOL d           4.746  28.790   9.609  0.00  0.00     0.091 H 
ENDROOT
BRANCH   5   9
ATOM      9  N03 MOL d           5.237  28.524   6.999  0.00  0.00    -0.340 N 
ATOM     10  H1  MOL d           4.623  27.830   6.550  0.00  0.00     0.167 HD
BRANCH   9  11
ATOM     11  C09 MOL d           6.659  28.318   6.966  0.00  0.00     0.044 A 
ATOM     12  C10 MOL d           7.351  28.098   8.147  0.00  0.00    -0.056 A 
ATOM     13  C11 MOL d           8.725  27.904   8.121  0.00  0.00    -0.081 A 
ATOM     14  H5  MOL d           6.819  28.076   9.091  0.00  0.00     0.086 H 
ATOM     15  C12 MOL d           9.419  27.932   6.922  0.00  0.00    -0.082 A 
ATOM     16  H6  MOL d           9.260  27.728   9.047  0.00  0.00     0.083 H 
ATOM     17  C13 MOL d           8.729  28.157   5.742  0.00  0.00    -0.070 A 
ATOM     18  H7  MOL d          10.492  27.779   6.908  0.00  0.00     0.083 H 
ATOM     19  C14 MOL d           7.354  28.351   5.760  0.00  0.00     0.001 A 
ATOM     20  H8  MOL d           9.265  28.181   4.801  0.00  0.00     0.084 H 
BRANCH  19  21
ATOM     21  C15 MOL d           6.644  28.585   4.467  0.00  0.00    -0.024 A 
ATOM     22  C23 MOL d           6.296  29.870   4.074  0.00  0.00    -0.072 A 
ATOM     23  C24 MOL d           5.642  30.069   2.868  0.00  0.00    -0.082 A 
ATOM     24  H13 MOL d           6.535  30.716   4.709  0.00  0.00     0.084 H 
ATOM     25  C25 MOL d           5.340  28.986   2.057  0.00  0.00    -0.083 A 
ATOM     26  H14 MOL d           5.368  31.071   2.559  0.00  0.00     0.083 H 
ATOM     27  C26 MOL d           5.687  27.703   2.445  0.00  0.00    -0.082 A 
ATOM     28  H15 MOL d           4.828  29.145   1.113  0.00  0.00     0.083 H 
ATOM     29  C27 MOL d           6.341  27.504   3.650  0.00  0.00    -0.072 A 
ATOM     30  H16 MOL d           5.447  26.858   1.809  0.00  0.00     0.083 H 
ATOM     31  H17 MOL d           6.618  26.502   3.956  0.00  0.00     0.084 H 
ENDBRANCH  19  21
ENDBRANCH   9  11
ENDBRANCH   5   9
BRANCH   4  32
ATOM     32  N04 MOL d           3.303  32.977   6.832  0.00  0.00    -0.188 N 
ATOM     33  H2  MOL d           3.420  33.881   7.311  0.00  0.00     0.184 HD
BRANCH  32  34
ATOM     34  C16 MOL d           2.754  33.015   5.508  0.00  0.00     0.049 A 
ATOM     35  C17 MOL d           1.467  33.512   5.346  0.00  0.00    -0.056 A 
ATOM     36  C18 MOL d           0.896  33.583   4.085  0.00  0.00    -0.064 A 
ATOM     37  H9  MOL d           0.905  33.845   6.212  0.00  0.00     0.087 H 
ATOM     38  C19 MOL d           1.617  33.158   2.978  0.00  0.00     0.041 A 
ATOM     39  H10 MOL d          -0.110  33.970   3.964  0.00  0.00     0.085 H 
ATOM     40  C20 MOL d           2.908  32.667   3.135  0.00  0.00    -0.064 A 
ATOM     41  C21 MOL d           3.479  32.599   4.400  0.00  0.00    -0.056 A 
ATOM     42  H11 MOL d           3.471  32.336   2.269  0.00  0.00     0.085 H 
ATOM     43  H12 MOL d           4.487  32.222   4.521  0.00  0.00     0.087 H 
BRANCH  38  44
ATOM     44  C22 MOL d           0.996  33.234   1.622  0.00  0.00     0.209 C 
ATOM     45  O28 MOL d           0.226  34.191   1.340  0.00  0.00    -0.644 OA
ATOM     46  O29 MOL d           1.242  32.343   0.761  0.00  0.00    -0.644 OA
ENDBRANCH  38  44
ENDBRANCH  32  34
ENDBRANCH   4  32
TORSDOF 6
ENDMDL
MODEL 2
REMARK VINA RESULT:      -9.3      1.253      3.266
REMARK  6 active torsions:
REMARK  status: ('A' for Active; 'I' for Inactive)
REMARK    1  A    between atoms: C07_7  and  N03_3 
REMARK    2  A    between atoms: N03_3  and  C09_9 
REMARK    3  A    between atoms: C06_6  and  N04_4 
REMARK    4  A    between atoms: N04_4  and  C16_16 
REMARK    5  A    between atoms: C14_14  and  C15_15 
REMARK    6  A    between atoms: C19_19  and  C22_22 
ROOT
ATOM      1  N01 MOL d           3.855  30.723   8.683  0.00  0.00    -0.075 NA
ATOM      2  N02 MOL d           4.302  30.283   6.426  0.00  0.00    -0.045 NA
ATOM      3  C05 MOL d           4.560  29.643   9.054  0.00  0.00     0.025 A 
ATOM      4  C06 MOL d           3.731  31.024   7.386  0.00  0.00     0.728 A 
ATOM      5  C07 MOL d           5.020  29.188   6.752  0.00  0.00     0.148 A 
ATOM      6  C08 MOL d           5.166  28.838   8.094  0.00  0.00    -0.021 A 
ATOM      7  H3  MOL d           4.658  29.396  10.105  0.00  0.00     0.115 H 
ATOM      8  H4  MOL d           5.736  27.963   8.381  0.00  0.00     0.091 H 
ENDROOT
BRANCH   5   9
ATOM      9  N03 MOL d           5.641  28.367   5.745  0.00  0.00    -0.340 N 
ATOM     10  H1  MOL d           6.010  27.443   6.014  0.00  0.00     0.167 HD
BRANCH   9  11
ATOM     11  C09 MOL d           5.765  28.793   4.378  0.00  0.00     0.044 A 
ATOM     12  C10 MOL d           4.652  28.784   3.550  0.00  0.00    -0.056 A 
ATOM     13  C11 MOL d           4.768  29.189   2.228  0.00  0.00    -0.081 A 
ATOM     14  H5  MOL d           3.692  28.460   3.936  0.00  0.00     0.086 H 
ATOM     15  C12 MOL d           5.988  29.602   1.720  0.00  0.00    -0.082 A 
ATOM     16  H6  MOL d           3.894  29.182   1.587  0.00  0.00     0.083 H 
ATOM     17  C13 MOL d           7.101  29.607   2.546  0.00  0.00    -0.070 A 
ATOM     18  H7  MOL d           6.072  29.917   0.686  0.00  0.00     0.083 H 
ATOM     19  C14 MOL d           6.994  29.204   3.870  0.00  0.00     0.001 A 
ATOM     20  H8  MOL d           8.060  29.928   2.155  0.00  0.00     0.084 H 
BRANCH  19  21
ATOM     21  C15 MOL d           8.215  29.229   4.731  0.00  0.00    -0.024 A 
ATOM     22  C23 MOL d           8.499  30.333   5.521  0.00  0.00    -0.072 A 
ATOM     23  C24 MOL d           9.633  30.337   6.318  0.00  0.00    -0.082 A 
ATOM     24  H13 MOL d           7.836  31.191   5.516  0.00  0.00     0.084 H 
ATOM     25  C25 MOL d          10.479  29.238   6.325  0.00  0.00    -0.083 A 
ATOM     26  H14 MOL d           9.860  31.198   6.936  0.00  0.00     0.083 H 
ATOM     27  C26 MOL d          10.197  28.133   5.538  0.00  0.00    -0.082 A 
ATOM     28  H15 MOL d          11.366  29.243   6.950  0.00  0.00     0.083 H 
ATOM     29  C27 MOL d           9.063  28.130   4.743  0.00  0.00    -0.072 A 
ATOM     30  H16 MOL d          10.861  27.276   5.545  0.00  0.00     0.083 H 
ATOM     31  H17 MOL d           8.836  27.266   4.128  0.00  0.00     0.084 H 
ENDBRANCH  19  21
ENDBRANCH   9  11
ENDBRANCH   5   9
BRANCH   4  32
ATOM     32  N04 MOL d           2.969  32.200   7.071  0.00  0.00    -0.188 N 
ATOM     33  H2  MOL d           2.686  32.795   7.862  0.00  0.00     0.184 HD
BRANCH  32  34
ATOM     34  C16 MOL d           2.563  32.628   5.764  0.00  0.00     0.049 A 
ATOM     35  C17 MOL d           3.333  32.236   4.677  0.00  0.00    -0.056 A 
ATOM     36  C18 MOL d           2.975  32.610   3.392  0.00  0.00    -0.064 A 
ATOM     37  H9  MOL d           4.220  31.633   4.835  0.00  0.00     0.087 H 
ATOM     38  C19 MOL d           1.838  33.380   3.190  0.00  0.00     0.041 A 
ATOM     39  H10 MOL d           3.581  32.303   2.547  0.00  0.00     0.085 H 
ATOM     40  C20 MOL d           1.060  33.769   4.275  0.00  0.00    -0.064 A 
ATOM     41  C21 MOL d           1.420  33.390   5.562  0.00  0.00    -0.056 A 
ATOM     42  H11 MOL d           0.171  34.370   4.117  0.00  0.00     0.085 H 
ATOM     43  H12 MOL d           0.810  33.688   6.407  0.00  0.00     0.087 H 
BRANCH  38  44
ATOM     44  C22 MOL d           1.458  33.784   1.804  0.00  0.00     0.209 C 
ATOM     45  O28 MOL d           0.274  34.138   1.559  0.00  0.00    -0.644 OA
ATOM     46  O29 MOL d           2.319  33.770   0.881  0.00  0.00    -0.644 OA
ENDBRANCH  38  44
ENDBRANCH  32  34
ENDBRANCH   4  32
TORSDOF 6
ENDMDL
MODEL 3
REMARK VINA RESULT:      -8.4      2.386      4.504
REMARK  6 active torsions:
REMARK  status: ('A' for Active; 'I' for Inactive)
REMARK    1  A    between atoms: C07_7  and  N03_3 
REMARK    2  A    between atoms: N03_3  and  C09_9 
REMARK    3  A    between atoms: C06_6  and  N04_4 
REMARK    4  A    between atoms: N04_4  and  C16_16 
REMARK    5  A    between atoms: C14_14  and  C15_15 
REMARK    6  A    between atoms: C19_19  and  C22_22 
ROOT
ATOM      1  N01 MOL d           7.105  30.050   1.131  0.00  0.00    -0.075 NA
ATOM      2  N02 MOL d           5.595  29.131   2.669  0.00  0.00    -0.045 NA
ATOM      3  C05 MOL d           8.130  29.428   1.735  0.00  0.00     0.025 A 
ATOM      4  C06 MOL d           5.864  29.899   1.603  0.00  0.00     0.728 A 
ATOM      5  C07 MOL d           6.595  28.487   3.307  0.00  0.00     0.148 A 
ATOM      6  C08 MOL d           7.904  28.624   2.848  0.00  0.00    -0.021 A 
ATOM      7  H3  MOL d           9.137  29.552   1.354  0.00  0.00     0.115 H 
ATOM      8  H4  MOL d           8.724  28.118   3.345  0.00  0.00     0.091 H 
ENDROOT
BRANCH   5   9
ATOM      9  N03 MOL d           6.342  27.658   4.458  0.00  0.00    -0.340 N 
ATOM     10  H1  MOL d           5.440  27.164   4.528  0.00  0.00     0.167 HD
BRANCH   9  11
ATOM     11  C09 MOL d           7.306  27.497   5.512  0.00  0.00     0.044 A 
ATOM     12  C10 MOL d           8.431  26.714   5.304  0.00  0.00    -0.056 A 
ATOM     13  C11 MOL d           9.361  26.551   6.320  0.00  0.00    -0.081 A 
ATOM     14  H5  MOL d           8.584  26.229   4.346  0.00  0.00     0.086 H 
ATOM     15  C12 MOL d           9.177  27.161   7.550  0.00  0.00    -0.082 A 
ATOM     16  H6  MOL d          10.240  25.940   6.150  0.00  0.00     0.083 H 
ATOM     17  C13 MOL d           8.051  27.940   7.760  0.00  0.00    -0.070 A 
ATOM     18  H7  MOL d           9.908  27.030   8.340  0.00  0.00     0.083 H 
ATOM     19  C14 MOL d           7.116  28.109   6.748  0.00  0.00     0.001 A 
ATOM     20  H8  MOL d           7.900  28.421   8.720  0.00  0.00     0.084 H 
BRANCH  19  21
ATOM     21  C15 MOL d           5.917  28.961   7.011  0.00  0.00    -0.024 A 
ATOM     22  C23 MOL d           5.483  29.880   6.066  0.00  0.00    -0.072 A 
ATOM     23  C24 MOL d           4.365  30.658   6.324  0.00  0.00    -0.082 A 
ATOM     24  H13 MOL d           6.016  29.989   5.128  0.00  0.00     0.084 H 
ATOM     25  C25 MOL d           3.683  30.516   7.523  0.00  0.00    -0.083 A 
ATOM     26  H14 MOL d           4.024  31.378   5.588  0.00  0.00     0.083 H 
ATOM     27  C26 MOL d           4.114  29.599   8.468  0.00  0.00    -0.082 A 
ATOM     28  H15 MOL d           2.809  31.126   7.722  0.00  0.00     0.083 H 
ATOM     29  C27 MOL d           5.230  28.820   8.209  0.00  0.00    -0.072 A 
ATOM     30  H16 MOL d           3.580  29.491   9.405  0.00  0.00     0.083 H 
ATOM     31  H17 MOL d           5.568  28.098   8.943  0.00  0.00     0.084 H 
ENDBRANCH  19  21
ENDBRANCH   9  11
ENDBRANCH   5   9
BRANCH   4  32
ATOM     32  N04 MOL d           4.821  30.591   0.897  0.00  0.00    -0.188 N 
ATOM     33  H2  MOL d           4.711  30.367  -0.102  0.00  0.00     0.184 HD
BRANCH  32  34
ATOM     34  C16 MOL d           3.918  31.560   1.445  0.00  0.00     0.049 A 
ATOM     35  C17 MOL d           3.124  32.287   0.567  0.00  0.00    -0.056 A 
ATOM     36  C18 MOL d           2.224  33.225   1.048  0.00  0.00    -0.064 A 
ATOM     37  H9  MOL d           3.209  32.119  -0.500  0.00  0.00     0.087 H 
ATOM     38  C19 MOL d           2.115  33.437   2.415  0.00  0.00     0.041 A 
ATOM     39  H10 MOL d           1.608  33.791   0.359  0.00  0.00     0.085 H 
ATOM     40  C20 MOL d           2.903  32.707   3.298  0.00  0.00    -0.064 A 
ATOM     41  C21 MOL d           3.802  31.765   2.813  0.00  0.00    -0.056 A 
ATOM     42  H11 MOL d           2.817  32.872   4.366  0.00  0.00     0.085 H 
ATOM     43  H12 MOL d           4.412  31.191   3.502  0.00  0.00     0.087 H 
BRANCH  38  44
ATOM     44  C22 MOL d           1.147  34.451   2.929  0.00  0.00     0.209 C 
ATOM     45  O28 MOL d           0.427  35.094   2.118  0.00  0.00    -0.644 OA
ATOM     46  O29 MOL d           1.050  34.664   4.169  0.00  0.00    -0.644 OA
ENDBRANCH  38  44
ENDBRANCH  32  34
ENDBRANCH   4  32
TORSDOF 6
ENDMDL
MODEL 4
REMARK VINA RESULT:      -8.2      4.009      8.239
REMARK  6 active torsions:
REMARK  status: ('A' for Active; 'I' for Inactive)
REMARK    1  A    between atoms: C07_7  and  N03_3 
REMARK    2  A    between atoms: N03_3  and  C09_9 
REMARK    3  A    between atoms: C06_6  and  N04_4 
REMARK    4  A    between atoms: N04_4  and  C16_16 
REMARK    5  A    between atoms: C14_14  and  C15_15 
REMARK    6  A    between atoms: C19_19  and  C22_22 
ROOT
ATOM      1  N01 MOL d           7.940  29.860   1.112  0.00  0.00    -0.075 NA
ATOM      2  N02 MOL d           6.530  29.726   2.978  0.00  0.00    -0.045 NA
ATOM      3  C05 MOL d           6.917  30.265   0.343  0.00  0.00     0.025 A 
ATOM      4  C06 MOL d           7.735  29.593   2.406  0.00  0.00     0.728 A 
ATOM      5  C07 MOL d           5.473  30.130   2.243  0.00  0.00     0.148 A 
ATOM      6  C08 MOL d           5.646  30.412   0.889  0.00  0.00    -0.021 A 
ATOM      7  H3  MOL d           7.082  30.478  -0.707  0.00  0.00     0.115 H 
ATOM      8  H4  MOL d           4.812  30.736   0.277  0.00  0.00     0.091 H 
ENDROOT
BRANCH   5   9
ATOM      9  N03 MOL d           4.163  30.277   2.825  0.00  0.00    -0.340 N 
ATOM     10  H1  MOL d           3.734  29.468   3.297  0.00  0.00     0.167 HD
BRANCH   9  11
ATOM     11  C09 MOL d           3.435  31.515   2.771  0.00  0.00     0.044 A 
ATOM     12  C10 MOL d           3.120  32.076   1.542  0.00  0.00    -0.056 A 
ATOM     13  C11 MOL d           2.423  33.274   1.484  0.00  0.00    -0.081 A 
ATOM     14  H5  MOL d           3.419  31.579   0.626  0.00  0.00     0.086 H 
ATOM     15  C12 MOL d           2.037  33.923   2.645  0.00  0.00    -0.082 A 
ATOM     16  H6  MOL d           2.177  33.706   0.521  0.00  0.00     0.083 H 
ATOM     17  C13 MOL d           2.355  33.366   3.873  0.00  0.00    -0.070 A 
ATOM     18  H7  MOL d           1.492  34.859   2.593  0.00  0.00     0.083 H 
ATOM     19  C14 MOL d           3.052  32.167   3.940  0.00  0.00     0.001 A 
ATOM     20  H8  MOL d           2.057  33.868   4.786  0.00  0.00     0.084 H 
BRANCH  19  21
ATOM     21  C15 MOL d           3.372  31.594   5.282  0.00  0.00    -0.024 A 
ATOM     22  C23 MOL d           4.103  30.420   5.393  0.00  0.00    -0.072 A 
ATOM     23  C24 MOL d           4.395  29.905   6.646  0.00  0.00    -0.082 A 
ATOM     24  H13 MOL d           4.445  29.905   4.502  0.00  0.00     0.084 H 
ATOM     25  C25 MOL d           3.959  30.565   7.785  0.00  0.00    -0.083 A 
ATOM     26  H14 MOL d           4.965  28.987   6.737  0.00  0.00     0.083 H 
ATOM     27  C26 MOL d           3.231  31.738   7.678  0.00  0.00    -0.082 A 
ATOM     28  H15 MOL d           4.190  30.161   8.765  0.00  0.00     0.083 H 
ATOM     29  C27 MOL d           2.940  32.253   6.425  0.00  0.00    -0.072 A 
ATOM     30  H16 MOL d           2.889  32.251   8.570  0.00  0.00     0.083 H 
ATOM     31  H17 MOL d           2.373  33.173   6.336  0.00  0.00     0.084 H 
ENDBRANCH  19  21
ENDBRANCH   9  11
ENDBRANCH   5   9
BRANCH   4  32
ATOM     32  N04 MOL d           8.882  29.174   3.163  0.00  0.00    -0.188 N 
ATOM     33  H2  MOL d           9.795  29.226   2.690  0.00  0.00     0.184 HD
BRANCH  32  34
ATOM     34  C16 MOL d           8.881  28.689   4.512  0.00  0.00     0.049 A 
ATOM     35  C17 MOL d           8.457  29.549   5.518  0.00  0.00    -0.056 A 
ATOM     36  C18 MOL d           8.423  29.123   6.836  0.00  0.00    -0.064 A 
ATOM     37  H9  MOL d           8.151  30.558   5.269  0.00  0.00     0.087 H 
ATOM     38  C19 MOL d           8.813  27.829   7.153  0.00  0.00     0.041 A 
ATOM     39  H10 MOL d           8.093  29.799   7.618  0.00  0.00     0.085 H 
ATOM     40  C20 MOL d           9.232  26.963   6.149  0.00  0.00    -0.064 A 
ATOM     41  C21 MOL d           9.262  27.392   4.827  0.00  0.00    -0.056 A 
ATOM     42  H11 MOL d           9.536  25.953   6.397  0.00  0.00     0.085 H 
ATOM     43  H12 MOL d           9.582  26.715   4.044  0.00  0.00     0.087 H 
BRANCH  38  44
ATOM     44  C22 MOL d           8.779  27.377   8.575  0.00  0.00     0.209 C 
ATOM     45  O28 MOL d           7.892  27.823   9.351  0.00  0.00    -0.644 OA
ATOM     46  O29 MOL d           9.634  26.551   8.999  0.00  0.00    -0.644 OA
ENDBRANCH  38  44
ENDBRANCH  32  34
ENDBRANCH   4  32
TORSDOF 6
ENDMDL
MODEL 5
REMARK VINA RESULT:      -8.2      3.999      7.821
REMARK  6 active torsions:
REMARK  status: ('A' for Active; 'I' for Inactive)
REMARK    1  A    between atoms: C07_7  and  N03_3 
REMARK    2  A    between atoms: N03_3  and  C09_9 
REMARK    3  A    between atoms: C06_6  and  N04_4 
REMARK    4  A    between atoms: N04_4  and  C16_16 
REMARK    5  A    between atoms: C14_14  and  C15_15 
REMARK    6  A    between atoms: C19_19  and  C22_22 
ROOT
ATOM      1  N01 MOL d           7.887  29.089   1.469  0.00  0.00    -0.075 NA
ATOM      2  N02 MOL d           6.534  29.263   3.373  0.00  0.00    -0.045 NA
ATOM      3  C05 MOL d           6.855  29.429   0.680  0.00  0.00     0.025 A 
ATOM      4  C06 MOL d           7.714  29.006   2.792  0.00  0.00     0.728 A 
ATOM      5  C07 MOL d           5.469  29.608   2.619  0.00  0.00     0.148 A 
ATOM      6  C08 MOL d           5.609  29.699   1.235  0.00  0.00    -0.021 A 
ATOM      7  H3  MOL d           6.994  29.493  -0.393  0.00  0.00     0.115 H 
ATOM      8  H4  MOL d           4.768  29.972   0.608  0.00  0.00     0.091 H 
ENDROOT
BRANCH   5   9
ATOM      9  N03 MOL d           4.185  29.885   3.211  0.00  0.00    -0.340 N 
ATOM     10  H1  MOL d           3.336  29.753   2.643  0.00  0.00     0.167 HD
BRANCH   9  11
ATOM     11  C09 MOL d           4.048  30.338   4.568  0.00  0.00     0.044 A 
ATOM     12  C10 MOL d           4.483  29.534   5.611  0.00  0.00    -0.056 A 
ATOM     13  C11 MOL d           4.348  29.965   6.922  0.00  0.00    -0.081 A 
ATOM     14  H5  MOL d           4.927  28.568   5.401  0.00  0.00     0.086 H 
ATOM     15  C12 MOL d           3.778  31.196   7.206  0.00  0.00    -0.082 A 
ATOM     16  H6  MOL d           4.692  29.333   7.733  0.00  0.00     0.083 H 
ATOM     17  C13 MOL d           3.340  31.998   6.165  0.00  0.00    -0.070 A 
ATOM     18  H7  MOL d           3.676  31.527   8.233  0.00  0.00     0.083 H 
ATOM     19  C14 MOL d           3.472  31.574   4.849  0.00  0.00     0.001 A 
ATOM     20  H8  MOL d           2.893  32.962   6.379  0.00  0.00     0.084 H 
BRANCH  19  21
ATOM     21  C15 MOL d           2.993  32.469   3.753  0.00  0.00    -0.024 A 
ATOM     22  C23 MOL d           3.860  32.888   2.754  0.00  0.00    -0.072 A 
ATOM     23  C24 MOL d           3.397  33.714   1.742  0.00  0.00    -0.082 A 
ATOM     24  H13 MOL d           4.897  32.570   2.764  0.00  0.00     0.084 H 
ATOM     25  C25 MOL d           2.071  34.118   1.728  0.00  0.00    -0.083 A 
ATOM     26  H14 MOL d           4.072  34.044   0.960  0.00  0.00     0.083 H 
ATOM     27  C26 MOL d           1.203  33.701   2.724  0.00  0.00    -0.082 A 
ATOM     28  H15 MOL d           1.712  34.764   0.935  0.00  0.00     0.083 H 
ATOM     29  C27 MOL d           1.666  32.874   3.735  0.00  0.00    -0.072 A 
ATOM     30  H16 MOL d           0.167  34.020   2.712  0.00  0.00     0.083 H 
ATOM     31  H17 MOL d           0.989  32.542   4.514  0.00  0.00     0.084 H 
ENDBRANCH  19  21
ENDBRANCH   9  11
ENDBRANCH   5   9
BRANCH   4  32
ATOM     32  N04 MOL d           8.868  28.645   3.568  0.00  0.00    -0.188 N 
ATOM     33  H2  MOL d           9.773  28.639   3.077  0.00  0.00     0.184 HD
BRANCH  32  34
ATOM     34  C16 MOL d           8.885  28.294   4.958  0.00  0.00     0.049 A 
ATOM     35  C17 MOL d           8.384  29.211   5.872  0.00  0.00    -0.056 A 
ATOM     36  C18 MOL d           8.363  28.912   7.226  0.00  0.00    -0.064 A 
ATOM     37  H9  MOL d           8.006  30.166   5.525  0.00  0.00     0.087 H 
ATOM     38  C19 MOL d           8.844  27.688   7.668  0.00  0.00     0.041 A 
ATOM     39  H10 MOL d           7.972  29.632   7.936  0.00  0.00     0.085 H 
ATOM     40  C20 MOL d           9.341  26.764   6.755  0.00  0.00    -0.064 A 
ATOM     41  C21 MOL d           9.357  27.065   5.399  0.00  0.00    -0.056 A 
ATOM     42  H11 MOL d           9.716  25.808   7.102  0.00  0.00     0.085 H 
ATOM     43  H12 MOL d           9.739  26.342   4.687  0.00  0.00     0.087 H 
BRANCH  38  44
ATOM     44  C22 MOL d           8.824  27.372   9.128  0.00  0.00     0.209 C 
ATOM     45  O28 MOL d           9.654  26.551   9.601  0.00  0.00    -0.644 OA
ATOM     46  O29 MOL d           7.978  27.926   9.884  0.00  0.00    -0.644 OA
ENDBRANCH  38  44
ENDBRANCH  32  34
ENDBRANCH   4  32
TORSDOF 6
ENDMDL
MODEL 6
REMARK VINA RESULT:      -8.2      2.672      5.221
REMARK  6 active torsions:
REMARK  status: ('A' for Active; 'I' for Inactive)
REMARK    1  A    between atoms: C07_7  and  N03_3 
REMARK    2  A    between atoms: N03_3  and  C09_9 
REMARK    3  A    between atoms: C06_6  and  N04_4 
REMARK    4  A    between atoms: N04_4  and  C16_16 
REMARK    5  A    between atoms: C14_14  and  C15_15 
REMARK    6  A    between atoms: C19_19  and  C22_22 
ROOT
ATOM      1  N01 MOL d           7.157  30.212   0.443  0.00  0.00    -0.075 NA
ATOM      2  N02 MOL d           5.557  30.004   2.140  0.00  0.00    -0.045 NA
ATOM      3  C05 MOL d           7.955  29.324   1.058  0.00  0.00     0.025 A 
ATOM      4  C06 MOL d           5.983  30.541   0.988  0.00  0.00     0.728 A 
ATOM      5  C07 MOL d           6.325  29.106   2.793  0.00  0.00     0.148 A 
ATOM      6  C08 MOL d           7.560  28.743   2.259  0.00  0.00    -0.021 A 
ATOM      7  H3  MOL d           8.909  29.058   0.618  0.00  0.00     0.115 H 
ATOM      8  H4  MOL d           8.196  28.026   2.765  0.00  0.00     0.091 H 
ENDROOT
BRANCH   5   9
ATOM      9  N03 MOL d           5.900  28.514   4.036  0.00  0.00    -0.340 N 
ATOM     10  H1  MOL d           6.130  27.527   4.221  0.00  0.00     0.167 HD
BRANCH   9  11
ATOM     11  C09 MOL d           5.166  29.253   5.025  0.00  0.00     0.044 A 
ATOM     12  C10 MOL d           4.055  29.995   4.648  0.00  0.00    -0.056 A 
ATOM     13  C11 MOL d           3.347  30.715   5.599  0.00  0.00    -0.081 A 
ATOM     14  H5  MOL d           3.741  30.011   3.611  0.00  0.00     0.086 H 
ATOM     15  C12 MOL d           3.738  30.706   6.928  0.00  0.00    -0.082 A 
ATOM     16  H6  MOL d           2.478  31.290   5.299  0.00  0.00     0.083 H 
ATOM     17  C13 MOL d           4.850  29.969   7.304  0.00  0.00    -0.070 A 
ATOM     18  H7  MOL d           3.180  31.271   7.666  0.00  0.00     0.083 H 
ATOM     19  C14 MOL d           5.564  29.245   6.359  0.00  0.00     0.001 A 
ATOM     20  H8  MOL d           5.162  29.958   8.342  0.00  0.00     0.084 H 
BRANCH  19  21
ATOM     21  C15 MOL d           6.754  28.459   6.804  0.00  0.00    -0.024 A 
ATOM     22  C23 MOL d           6.593  27.275   7.510  0.00  0.00    -0.072 A 
ATOM     23  C24 MOL d           7.708  26.555   7.910  0.00  0.00    -0.082 A 
ATOM     24  H13 MOL d           5.600  26.914   7.749  0.00  0.00     0.084 H 
ATOM     25  C25 MOL d           8.979  27.016   7.602  0.00  0.00    -0.083 A 
ATOM     26  H14 MOL d           7.587  25.631   8.464  0.00  0.00     0.083 H 
ATOM     27  C26 MOL d           9.142  28.197   6.896  0.00  0.00    -0.082 A 
ATOM     28  H15 MOL d           9.850  26.451   7.916  0.00  0.00     0.083 H 
ATOM     29  C27 MOL d           8.027  28.916   6.495  0.00  0.00    -0.072 A 
ATOM     30  H16 MOL d          10.137  28.556   6.658  0.00  0.00     0.083 H 
ATOM     31  H17 MOL d           8.150  29.838   5.939  0.00  0.00     0.084 H 
ENDBRANCH  19  21
ENDBRANCH   9  11
ENDBRANCH   5   9
BRANCH   4  32
ATOM     32  N04 MOL d           5.184  31.491   0.265  0.00  0.00    -0.188 N 
ATOM     33  H2  MOL d           5.401  31.614  -0.734  0.00  0.00     0.184 HD
BRANCH  32  34
ATOM     34  C16 MOL d           4.115  32.285   0.796  0.00  0.00     0.049 A 
ATOM     35  C17 MOL d           2.852  31.713   0.881  0.00  0.00    -0.056 A 
ATOM     36  C18 MOL d           1.789  32.433   1.401  0.00  0.00    -0.064 A 
ATOM     37  H9  MOL d           2.698  30.695   0.539  0.00  0.00     0.087 H 
ATOM     38  C19 MOL d           1.988  33.734   1.841  0.00  0.00     0.041 A 
ATOM     39  H10 MOL d           0.805  31.982   1.464  0.00  0.00     0.085 H 
ATOM     40  C20 MOL d           3.252  34.309   1.763  0.00  0.00    -0.064 A 
ATOM     41  C21 MOL d           4.317  33.583   1.245  0.00  0.00    -0.056 A 
ATOM     42  H11 MOL d           3.407  35.326   2.108  0.00  0.00     0.085 H 
ATOM     43  H12 MOL d           5.303  34.030   1.190  0.00  0.00     0.087 H 
BRANCH  38  44
ATOM     44  C22 MOL d           0.838  34.508   2.397  0.00  0.00     0.209 C 
ATOM     45  O28 MOL d           0.734  34.663   3.643  0.00  0.00    -0.644 OA
ATOM     46  O29 MOL d          -0.026  35.004   1.622  0.00  0.00    -0.644 OA
ENDBRANCH  38  44
ENDBRANCH  32  34
ENDBRANCH   4  32
TORSDOF 6
ENDMDL
MODEL 7
REMARK VINA RESULT:      -7.6      3.453      6.198
REMARK  6 active torsions:
REMARK  status: ('A' for Active; 'I' for Inactive)
REMARK    1  A    between atoms: C07_7  and  N03_3 
REMARK    2  A    between atoms: N03_3  and  C09_9 
REMARK    3  A    between atoms: C06_6  and  N04_4 
REMARK    4  A    between atoms: N04_4  and  C16_16 
REMARK    5  A    between atoms: C14_14  and  C15_15 
REMARK    6  A    between atoms: C19_19  and  C22_22 
ROOT
ATOM      1  N01 MOL d           2.263  32.373   1.576  0.00  0.00    -0.075 NA
ATOM      2  N02 MOL d           4.192  31.906   2.820  0.00  0.00    -0.045 NA
ATOM      3  C05 MOL d           1.664  32.892   2.660  0.00  0.00     0.025 A 
ATOM      4  C06 MOL d           3.504  31.887   1.670  0.00  0.00     0.728 A 
ATOM      5  C07 MOL d           3.630  32.418   3.936  0.00  0.00     0.148 A 
ATOM      6  C08 MOL d           2.334  32.929   3.879  0.00  0.00    -0.021 A 
ATOM      7  H3  MOL d           0.656  33.284   2.586  0.00  0.00     0.115 H 
ATOM      8  H4  MOL d           1.861  33.343   4.762  0.00  0.00     0.091 H 
ENDROOT
BRANCH   5   9
ATOM      9  N03 MOL d           4.339  32.449   5.190  0.00  0.00    -0.340 N 
ATOM     10  H1  MOL d           5.169  33.052   5.278  0.00  0.00     0.167 HD
BRANCH   9  11
ATOM     11  C09 MOL d           3.926  31.665   6.321  0.00  0.00     0.044 A 
ATOM     12  C10 MOL d           3.008  32.185   7.222  0.00  0.00    -0.056 A 
ATOM     13  C11 MOL d           2.612  31.434   8.319  0.00  0.00    -0.081 A 
ATOM     14  H5  MOL d           2.601  33.177   7.069  0.00  0.00     0.086 H 
ATOM     15  C12 MOL d           3.126  30.165   8.530  0.00  0.00    -0.082 A 
ATOM     16  H6  MOL d           1.891  31.844   9.018  0.00  0.00     0.083 H 
ATOM     17  C13 MOL d           4.046  29.647   7.633  0.00  0.00    -0.070 A 
ATOM     18  H7  MOL d           2.811  29.583   9.389  0.00  0.00     0.083 H 
ATOM     19  C14 MOL d           4.448  30.392   6.532  0.00  0.00     0.001 A 
ATOM     20  H8  MOL d           4.453  28.655   7.792  0.00  0.00     0.084 H 
BRANCH  19  21
ATOM     21  C15 MOL d           5.438  29.797   5.584  0.00  0.00    -0.024 A 
ATOM     22  C23 MOL d           6.789  30.090   5.698  0.00  0.00    -0.072 A 
ATOM     23  C24 MOL d           7.694  29.524   4.813  0.00  0.00    -0.082 A 
ATOM     24  H13 MOL d           7.137  30.758   6.478  0.00  0.00     0.084 H 
ATOM     25  C25 MOL d           7.248  28.668   3.818  0.00  0.00    -0.083 A 
ATOM     26  H14 MOL d           8.751  29.752   4.899  0.00  0.00     0.083 H 
ATOM     27  C26 MOL d           5.899  28.373   3.702  0.00  0.00    -0.082 A 
ATOM     28  H15 MOL d           7.958  28.226   3.128  0.00  0.00     0.083 H 
ATOM     29  C27 MOL d           4.996  28.937   4.588  0.00  0.00    -0.072 A 
ATOM     30  H16 MOL d           5.553  27.704   2.923  0.00  0.00     0.083 H 
ATOM     31  H17 MOL d           3.940  28.706   4.504  0.00  0.00     0.084 H 
ENDBRANCH  19  21
ENDBRANCH   9  11
ENDBRANCH   5   9
BRANCH   4  32
ATOM     32  N04 MOL d           4.078  31.358   0.463  0.00  0.00    -0.188 N 
ATOM     33  H2  MOL d           3.627  31.628  -0.422  0.00  0.00     0.184 HD
BRANCH  32  34
ATOM     34  C16 MOL d           5.216  30.491   0.370  0.00  0.00     0.049 A 
ATOM     35  C17 MOL d           6.480  31.053   0.486  0.00  0.00    -0.056 A 
ATOM     36  C18 MOL d           7.612  30.256   0.418  0.00  0.00    -0.064 A 
ATOM     37  H9  MOL d           6.582  32.123   0.631  0.00  0.00     0.087 H 
ATOM     38  C19 MOL d           7.479  28.886   0.235  0.00  0.00     0.041 A 
ATOM     39  H10 MOL d           8.597  30.700   0.508  0.00  0.00     0.085 H 
ATOM     40  C20 MOL d           6.215  28.318   0.125  0.00  0.00    -0.064 A 
ATOM     41  C21 MOL d           5.082  29.120   0.197  0.00  0.00    -0.056 A 
ATOM     42  H11 MOL d           6.112  27.248  -0.017  0.00  0.00     0.085 H 
ATOM     43  H12 MOL d           4.097  28.676   0.117  0.00  0.00     0.087 H 
BRANCH  38  44
ATOM     44  C22 MOL d           8.701  28.032   0.159  0.00  0.00     0.209 C 
ATOM     45  O28 MOL d           8.585  26.777   0.129  0.00  0.00    -0.644 OA
ATOM     46  O29 MOL d           9.846  28.564   0.125  0.00  0.00    -0.644 OA
ENDBRANCH  38  44
ENDBRANCH  32  34
ENDBRANCH   4  32
TORSDOF 6
ENDMDL
MODEL 8
REMARK VINA RESULT:      -7.1      3.102      6.965
REMARK  6 active torsions:
REMARK  status: ('A' for Active; 'I' for Inactive)
REMARK    1  A    between atoms: C07_7  and  N03_3 
REMARK    2  A    between atoms: N03_3  and  C09_9 
REMARK    3  A    between atoms: C06_6  and  N04_4 
REMARK    4  A    between atoms: N04_4  and  C16_16 
REMARK    5  A    between atoms: C14_14  and  C15_15 
REMARK    6  A    between atoms: C19_19  and  C22_22 
ROOT
ATOM      1  N01 MOL d           5.163  29.131   8.713  0.00  0.00    -0.075 NA
ATOM      2  N02 MOL d           5.056  29.806   6.472  0.00  0.00    -0.045 NA
ATOM      3  C05 MOL d           4.106  29.901   9.017  0.00  0.00     0.025 A 
ATOM      4  C06 MOL d           5.623  29.097   7.458  0.00  0.00     0.728 A 
ATOM      5  C07 MOL d           3.990  30.593   6.732  0.00  0.00     0.148 A 
ATOM      6  C08 MOL d           3.486  30.660   8.030  0.00  0.00    -0.021 A 
ATOM      7  H3  MOL d           3.734  29.930  10.035  0.00  0.00     0.115 H 
ATOM      8  H4  MOL d           2.633  31.286   8.263  0.00  0.00     0.091 H 
ENDROOT
BRANCH   5   9
ATOM      9  N03 MOL d           3.360  31.373   5.697  0.00  0.00    -0.340 N 
ATOM     10  H1  MOL d           2.591  32.010   5.952  0.00  0.00     0.167 HD
BRANCH   9  11
ATOM     11  C09 MOL d           3.768  31.292   4.322  0.00  0.00     0.044 A 
ATOM     12  C10 MOL d           4.708  30.348   3.935  0.00  0.00    -0.056 A 
ATOM     13  C11 MOL d           5.108  30.270   2.609  0.00  0.00    -0.081 A 
ATOM     14  H5  MOL d           5.128  29.671   4.669  0.00  0.00     0.086 H 
ATOM     15  C12 MOL d           4.582  31.131   1.660  0.00  0.00    -0.082 A 
ATOM     16  H6  MOL d           5.841  29.528   2.313  0.00  0.00     0.083 H 
ATOM     17  C13 MOL d           3.646  32.078   2.047  0.00  0.00    -0.070 A 
ATOM     18  H7  MOL d           4.899  31.065   0.626  0.00  0.00     0.083 H 
ATOM     19  C14 MOL d           3.239  32.162   3.371  0.00  0.00     0.001 A 
ATOM     20  H8  MOL d           3.230  32.755   1.310  0.00  0.00     0.084 H 
BRANCH  19  21
ATOM     21  C15 MOL d           2.224  33.192   3.748  0.00  0.00    -0.024 A 
ATOM     22  C23 MOL d           1.800  34.136   2.824  0.00  0.00    -0.072 A 
ATOM     23  C24 MOL d           0.853  35.080   3.190  0.00  0.00    -0.082 A 
ATOM     24  H13 MOL d           2.207  34.135   1.820  0.00  0.00     0.084 H 
ATOM     25  C25 MOL d           0.332  35.078   4.475  0.00  0.00    -0.083 A 
ATOM     26  H14 MOL d           0.520  35.821   2.471  0.00  0.00     0.083 H 
ATOM     27  C26 MOL d           0.753  34.136   5.399  0.00  0.00    -0.082 A 
ATOM     28  H15 MOL d          -0.409  35.818   4.758  0.00  0.00     0.083 H 
ATOM     29  C27 MOL d           1.698  33.191   5.033  0.00  0.00    -0.072 A 
ATOM     30  H16 MOL d           0.345  34.138   6.403  0.00  0.00     0.083 H 
ATOM     31  H17 MOL d           2.028  32.450   5.751  0.00  0.00     0.084 H 
ENDBRANCH  19  21
ENDBRANCH   9  11
ENDBRANCH   5   9
BRANCH   4  32
ATOM     32  N04 MOL d           6.752  28.243   7.212  0.00  0.00    -0.188 N 
ATOM     33  H2  MOL d           7.092  27.683   8.007  0.00  0.00     0.184 HD
BRANCH  32  34
ATOM     34  C16 MOL d           7.452  28.093   5.970  0.00  0.00     0.049 A 
ATOM     35  C17 MOL d           8.696  28.697   5.841  0.00  0.00    -0.056 A 
ATOM     36  C18 MOL d           9.420  28.568   4.666  0.00  0.00    -0.064 A 
ATOM     37  H9  MOL d           9.104  29.272   6.665  0.00  0.00     0.087 H 
ATOM     38  C19 MOL d           8.898  27.830   3.613  0.00  0.00     0.041 A 
ATOM     39  H10 MOL d          10.390  29.043   4.570  0.00  0.00     0.085 H 
ATOM     40  C20 MOL d           7.656  27.218   3.740  0.00  0.00    -0.064 A 
ATOM     41  C21 MOL d           6.934  27.346   4.921  0.00  0.00    -0.056 A 
ATOM     42  H11 MOL d           7.249  26.641   2.917  0.00  0.00     0.085 H 
ATOM     43  H12 MOL d           5.968  26.864   5.022  0.00  0.00     0.087 H 
BRANCH  38  44
ATOM     44  C22 MOL d           9.680  27.698   2.348  0.00  0.00     0.209 C 
ATOM     45  O28 MOL d           9.942  26.553   1.892  0.00  0.00    -0.644 OA
ATOM     46  O29 MOL d          10.076  28.729   1.737  0.00  0.00    -0.644 OA
ENDBRANCH  38  44
ENDBRANCH  32  34
ENDBRANCH   4  32
TORSDOF 6
ENDMDL
MODEL 9
REMARK VINA RESULT:      -7.0      1.823      4.209
REMARK  6 active torsions:
REMARK  status: ('A' for Active; 'I' for Inactive)
REMARK    1  A    between atoms: C07_7  and  N03_3 
REMARK    2  A    between atoms: N03_3  and  C09_9 
REMARK    3  A    between atoms: C06_6  and  N04_4 
REMARK    4  A    between atoms: N04_4  and  C16_16 
REMARK    5  A    between atoms: C14_14  and  C15_15 
REMARK    6  A    between atoms: C19_19  and  C22_22 
ROOT
ATOM      1  N01 MOL d           5.750  28.121   7.827  0.00  0.00    -0.075 NA
ATOM      2  N02 MOL d           5.690  28.733   5.567  0.00  0.00    -0.045 NA
ATOM      3  C05 MOL d           6.253  26.917   7.509  0.00  0.00     0.025 A 
ATOM      4  C06 MOL d           5.473  29.003   6.862  0.00  0.00     0.728 A 
ATOM      5  C07 MOL d           6.195  27.536   5.201  0.00  0.00     0.148 A 
ATOM      6  C08 MOL d           6.490  26.588   6.179  0.00  0.00    -0.021 A 
ATOM      7  H3  MOL d           6.475  26.201   8.291  0.00  0.00     0.115 H 
ATOM      8  H4  MOL d           6.895  25.619   5.909  0.00  0.00     0.091 H 
ENDROOT
BRANCH   5   9
ATOM      9  N03 MOL d           6.435  27.211   3.818  0.00  0.00    -0.340 N 
ATOM     10  H1  MOL d           6.479  26.220   3.539  0.00  0.00     0.167 HD
BRANCH   9  11
ATOM     11  C09 MOL d           6.615  28.223   2.813  0.00  0.00     0.044 A 
ATOM     12  C10 MOL d           5.758  28.274   1.724  0.00  0.00    -0.056 A 
ATOM     13  C11 MOL d           5.931  29.246   0.749  0.00  0.00    -0.081 A 
ATOM     14  H5  MOL d           4.952  27.554   1.635  0.00  0.00     0.086 H 
ATOM     15  C12 MOL d           6.958  30.170   0.848  0.00  0.00    -0.082 A 
ATOM     16  H6  MOL d           5.256  29.282  -0.098  0.00  0.00     0.083 H 
ATOM     17  C13 MOL d           7.817  30.117   1.934  0.00  0.00    -0.070 A 
ATOM     18  H7  MOL d           7.088  30.927   0.083  0.00  0.00     0.083 H 
ATOM     19  C14 MOL d           7.651  29.148   2.914  0.00  0.00     0.001 A 
ATOM     20  H8  MOL d           8.624  30.837   2.018  0.00  0.00     0.084 H 
BRANCH  19  21
ATOM     21  C15 MOL d           8.594  29.127   4.073  0.00  0.00    -0.024 A 
ATOM     22  C23 MOL d           8.539  30.115   5.046  0.00  0.00    -0.072 A 
ATOM     23  C24 MOL d           9.418  30.076   6.117  0.00  0.00    -0.082 A 
ATOM     24  H13 MOL d           7.812  30.915   4.969  0.00  0.00     0.084 H 
ATOM     25  C25 MOL d          10.347  29.051   6.215  0.00  0.00    -0.083 A 
ATOM     26  H14 MOL d           9.380  30.847   6.878  0.00  0.00     0.083 H 
ATOM     27  C26 MOL d          10.403  28.063   5.246  0.00  0.00    -0.082 A 
ATOM     28  H15 MOL d          11.033  29.023   7.054  0.00  0.00     0.083 H 
ATOM     29  C27 MOL d           9.523  28.101   4.176  0.00  0.00    -0.072 A 
ATOM     30  H16 MOL d          11.131  27.264   5.324  0.00  0.00     0.083 H 
ATOM     31  H17 MOL d           9.560  27.328   3.417  0.00  0.00     0.084 H 
ENDBRANCH  19  21
ENDBRANCH   9  11
ENDBRANCH   5   9
BRANCH   4  32
ATOM     32  N04 MOL d           4.946  30.271   7.284  0.00  0.00    -0.188 N 
ATOM     33  H2  MOL d           5.236  30.607   8.213  0.00  0.00     0.184 HD
BRANCH  32  34
ATOM     34  C16 MOL d           4.057  31.115   6.541  0.00  0.00     0.049 A 
ATOM     35  C17 MOL d           2.971  31.670   7.204  0.00  0.00    -0.056 A 
ATOM     36  C18 MOL d           2.091  32.505   6.534  0.00  0.00    -0.064 A 
ATOM     37  H9  MOL d           2.811  31.450   8.254  0.00  0.00     0.087 H 
ATOM     38  C19 MOL d           2.298  32.788   5.191  0.00  0.00     0.041 A 
ATOM     39  H10 MOL d           1.244  32.935   7.057  0.00  0.00     0.085 H 
ATOM     40  C20 MOL d           3.388  32.239   4.524  0.00  0.00    -0.064 A 
ATOM     41  C21 MOL d           4.270  31.405   5.200  0.00  0.00    -0.056 A 
ATOM     42  H11 MOL d           3.549  32.462   3.475  0.00  0.00     0.085 H 
ATOM     43  H12 MOL d           5.123  30.982   4.681  0.00  0.00     0.087 H 
BRANCH  38  44
ATOM     44  C22 MOL d           1.345  33.685   4.472  0.00  0.00     0.209 C 
ATOM     45  O28 MOL d           0.898  33.345   3.344  0.00  0.00    -0.644 OA
ATOM     46  O29 MOL d           0.989  34.779   4.991  0.00  0.00    -0.644 OA
ENDBRANCH  38  44
ENDBRANCH  32  34
ENDBRANCH   4  32
TORSDOF 6
ENDMDL
MODEL 10
REMARK VINA RESULT:      -6.8      3.209      7.208
REMARK  6 active torsions:
REMARK  status: ('A' for Active; 'I' for Inactive)
REMARK    1  A    between atoms: C07_7  and  N03_3 
REMARK    2  A    between atoms: N03_3  and  C09_9 
REMARK    3  A    between atoms: C06_6  and  N04_4 
REMARK    4  A    between atoms: N04_4  and  C16_16 
REMARK    5  A    between atoms: C14_14  and  C15_15 
REMARK    6  A    between atoms: C19_19  and  C22_22 
ROOT
ATOM      1  N01 MOL d           3.563  30.502   8.557  0.00  0.00    -0.075 NA
ATOM      2  N02 MOL d           4.245  30.645   6.321  0.00  0.00    -0.045 NA
ATOM      3  C05 MOL d           2.752  31.561   8.399  0.00  0.00     0.025 A 
ATOM      4  C06 MOL d           4.296  30.065   7.528  0.00  0.00     0.728 A 
ATOM      5  C07 MOL d           3.443  31.711   6.115  0.00  0.00     0.148 A 
ATOM      6  C08 MOL d           2.669  32.200   7.166  0.00  0.00    -0.021 A 
ATOM      7  H3  MOL d           2.160  31.917   9.233  0.00  0.00     0.115 H 
ATOM      8  H4  MOL d           2.019  33.056   7.026  0.00  0.00     0.091 H 
ENDROOT
BRANCH   5   9
ATOM      9  N03 MOL d           3.369  32.361   4.832  0.00  0.00    -0.340 N 
ATOM     10  H1  MOL d           4.108  32.177   4.137  0.00  0.00     0.167 HD
BRANCH   9  11
ATOM     11  C09 MOL d           2.300  33.257   4.488  0.00  0.00     0.044 A 
ATOM     12  C10 MOL d           1.399  33.661   5.462  0.00  0.00    -0.056 A 
ATOM     13  C11 MOL d           0.362  34.522   5.133  0.00  0.00    -0.081 A 
ATOM     14  H5  MOL d           1.504  33.303   6.479  0.00  0.00     0.086 H 
ATOM     15  C12 MOL d           0.212  34.984   3.836  0.00  0.00    -0.082 A 
ATOM     16  H6  MOL d          -0.338  34.836   5.899  0.00  0.00     0.083 H 
ATOM     17  C13 MOL d           1.109  34.578   2.862  0.00  0.00    -0.070 A 
ATOM     18  H7  MOL d          -0.601  35.657   3.586  0.00  0.00     0.083 H 
ATOM     19  C14 MOL d           2.150  33.717   3.182  0.00  0.00     0.001 A 
ATOM     20  H8  MOL d           0.998  34.935   1.844  0.00  0.00     0.084 H 
BRANCH  19  21
ATOM     21  C15 MOL d           3.102  33.306   2.106  0.00  0.00    -0.024 A 
ATOM     22  C23 MOL d           3.679  34.255   1.274  0.00  0.00    -0.072 A 
ATOM     23  C24 MOL d           4.564  33.856   0.284  0.00  0.00    -0.082 A 
ATOM     24  H13 MOL d           3.440  35.305   1.397  0.00  0.00     0.084 H 
ATOM     25  C25 MOL d           4.872  32.513   0.129  0.00  0.00    -0.083 A 
ATOM     26  H14 MOL d           5.016  34.595  -0.369  0.00  0.00     0.083 H 
ATOM     27  C26 MOL d           4.298  31.564   0.959  0.00  0.00    -0.082 A 
ATOM     28  H15 MOL d           5.565  32.204  -0.646  0.00  0.00     0.083 H 
ATOM     29  C27 MOL d           3.414  31.963   1.949  0.00  0.00    -0.072 A 
ATOM     30  H16 MOL d           4.538  30.514   0.834  0.00  0.00     0.083 H 
ATOM     31  H17 MOL d           2.966  31.224   2.603  0.00  0.00     0.084 H 
ENDBRANCH  19  21
ENDBRANCH   9  11
ENDBRANCH   5   9
BRANCH   4  32
ATOM     32  N04 MOL d           5.132  28.923   7.776  0.00  0.00    -0.188 N 
ATOM     33  H2  MOL d           5.025  28.459   8.689  0.00  0.00     0.184 HD
BRANCH  32  34
ATOM     34  C16 MOL d           6.100  28.365   6.879  0.00  0.00     0.049 A 
ATOM     35  C17 MOL d           6.472  29.112   5.768  0.00  0.00    -0.056 A 
ATOM     36  C18 MOL d           7.416  28.624   4.878  0.00  0.00    -0.064 A 
ATOM     37  H9  MOL d           6.021  30.083   5.597  0.00  0.00     0.087 H 
ATOM     38  C19 MOL d           7.994  27.382   5.100  0.00  0.00     0.041 A 
ATOM     39  H10 MOL d           7.701  29.210   4.012  0.00  0.00     0.085 H 
ATOM     40  C20 MOL d           7.629  26.633   6.214  0.00  0.00    -0.064 A 
ATOM     41  C21 MOL d           6.686  27.127   7.106  0.00  0.00    -0.056 A 
ATOM     42  H11 MOL d           8.082  25.664   6.387  0.00  0.00     0.085 H 
ATOM     43  H12 MOL d           6.406  26.546   7.978  0.00  0.00     0.087 H 
BRANCH  38  44
ATOM     44  C22 MOL d           9.007  26.858   4.136  0.00  0.00     0.209 C 
ATOM     45  O28 MOL d           8.701  26.718   2.922  0.00  0.00    -0.644 OA
ATOM     46  O29 MOL d          10.166  26.557   4.537  0.00  0.00    -0.644 OA
ENDBRANCH  38  44
ENDBRANCH  32  34
ENDBRANCH   4  32
TORSDOF 6
ENDMDL
