MODEL 1
REMARK VINA RESULT:     -11.0      0.000      0.000
REMARK  9 active torsions:
REMARK  status: ('A' for Active; 'I' for Inactive)
REMARK    1  A    between atoms: C16_2  and  C17_3 
REMARK       I    between atoms: C16_2  and  N7_10 
REMARK    2  A    between atoms: C40_7  and  C44_8 
REMARK    3  A    between atoms: C8_14  and  C18_30 
REMARK    4  A    between atoms: C14_20  and  C37_21 
REMARK    5  A    between atoms: C14_20  and  C38_22 
REMARK    6  A    between atoms: C6_27  and  O36_28 
REMARK    7  A    between atoms: C21_34  and  O24_37 
REMARK    8  A    between atoms: O24_37  and  C25_38 
REMARK    9  A    between atoms: C25_38  and  C26_39 
ROOT
ATOM      1  O35 XNC d          27.074   6.621  40.254  0.00  0.00    -0.265 OA
ATOM      2  C16 XNC d          28.095   6.192  39.741  0.00  0.00     0.278 C 
ATOM      3  N7  XNC d          28.345   6.331  38.366  0.00  0.00    -0.296 N 
ATOM      4  C4  XNC d          29.636   6.222  37.780  0.00  0.00     0.068 A 
ATOM      5  C3  XNC d          30.672   7.080  38.179  0.00  0.00    -0.054 A 
ATOM      6  C2  XNC d          31.927   7.004  37.591  0.00  0.00    -0.078 A 
ATOM      7  C8  XNC d          27.214   6.599  37.451  0.00  0.00     0.086 C 
ATOM      8  C9  XNC d          26.737   5.295  36.867  0.00  0.00     0.087 C 
ATOM      9  S12 XNC d          25.032   5.161  36.893  0.00  0.00     0.176 S 
ATOM     10  O32 XNC d          24.482   6.306  36.170  0.00  0.00    -0.223 OA
ATOM     11  O33 XNC d          24.519   5.208  38.241  0.00  0.00    -0.223 OA
ATOM     12  C13 XNC d          24.587   3.588  36.131  0.00  0.00     0.040 C 
ATOM     13  C14 XNC d          25.575   3.150  35.055  0.00  0.00    -0.029 C 
ATOM     14  C15 XNC d          26.945   3.044  35.767  0.00  0.00    -0.018 C 
ATOM     15  C10 XNC d          27.528   4.312  36.374  0.00  0.00     0.030 C 
ATOM     16  N11 XNC d          28.916   4.345  36.332  0.00  0.00    -0.354 N 
ATOM     17  C5  XNC d          29.873   5.269  36.784  0.00  0.00     0.093 A 
ATOM     18  C6  XNC d          31.136   5.187  36.225  0.00  0.00     0.094 A 
ATOM     19  C1  XNC d          32.147   6.053  36.627  0.00  0.00    -0.049 A 
ATOM     20  H7  XNC d          30.489   7.813  38.957  0.00  0.00     0.087 H 
ATOM     21  H8  XNC d          32.718   7.683  37.888  0.00  0.00     0.083 H 
ATOM     22  H9  XNC d          26.377   7.023  38.025  0.00  0.00     0.090 H 
ATOM     23  H10 XNC d          23.591   3.688  35.674  0.00  0.00     0.057 H 
ATOM     24  H11 XNC d          24.555   2.815  36.914  0.00  0.00     0.057 H 
ATOM     25  H18 XNC d          27.670   2.670  35.029  0.00  0.00     0.043 H 
ATOM     26  H19 XNC d          26.838   2.311  36.579  0.00  0.00     0.043 H 
ATOM     27  H20 XNC d          29.329   3.521  35.873  0.00  0.00     0.166 HD
ATOM     28  H22 XNC d          33.127   5.974  36.170  0.00  0.00     0.087 H 
ENDROOT
BRANCH   7  29
ATOM     29  C18 XNC d          27.693   7.682  36.455  0.00  0.00     0.009 A 
ATOM     30  C23 XNC d          27.937   8.965  36.926  0.00  0.00     0.127 A 
ATOM     31  F34 XNC d          27.744   9.214  38.219  0.00  0.00    -0.205 F 
ATOM     32  C22 XNC d          28.357   9.979  36.063  0.00  0.00    -0.013 A 
ATOM     33  C21 XNC d          28.542   9.706  34.706  0.00  0.00     0.072 A 
ATOM     34  H23 XNC d          28.540  10.977  36.445  0.00  0.00     0.092 H 
ATOM     35  C20 XNC d          28.300   8.409  34.233  0.00  0.00    -0.050 A 
ATOM     36  C19 XNC d          27.873   7.411  35.100  0.00  0.00    -0.069 A 
ATOM     37  H24 XNC d          28.448   8.184  33.183  0.00  0.00     0.087 H 
ATOM     38  H25 XNC d          27.678   6.414  34.720  0.00  0.00     0.084 H 
BRANCH  33  39
ATOM     39  O24 XNC d          28.976  10.718  33.889  0.00  0.00    -0.347 OA
BRANCH  39  40
ATOM     40  C25 XNC d          28.085  11.694  33.305  0.00  0.00     0.050 C 
ATOM     41  H26 XNC d          28.629  12.639  33.156  0.00  0.00     0.082 H 
ATOM     42  H27 XNC d          27.237  11.863  33.984  0.00  0.00     0.082 H 
BRANCH  40  43
ATOM     43  C26 XNC d          27.563  11.198  31.963  0.00  0.00    -0.034 A 
ATOM     44  C31 XNC d          28.369  10.416  31.156  0.00  0.00    -0.075 A 
ATOM     45  C30 XNC d          27.898   9.923  29.945  0.00  0.00    -0.082 A 
ATOM     46  H28 XNC d          29.380  10.185  31.472  0.00  0.00     0.084 H 
ATOM     47  C29 XNC d          26.610  10.228  29.529  0.00  0.00    -0.083 A 
ATOM     48  H29 XNC d          28.535   9.302  29.328  0.00  0.00     0.083 H 
ATOM     49  C28 XNC d          25.788  11.026  30.341  0.00  0.00    -0.082 A 
ATOM     50  H30 XNC d          26.240   9.853  28.581  0.00  0.00     0.083 H 
ATOM     51  C27 XNC d          26.261  11.503  31.558  0.00  0.00    -0.075 A 
ATOM     52  H31 XNC d          24.782  11.271  30.019  0.00  0.00     0.083 H 
ATOM     53  H32 XNC d          25.622  12.109  32.189  0.00  0.00     0.084 H 
ENDBRANCH  40  43
ENDBRANCH  39  40
ENDBRANCH  33  39
ENDBRANCH   7  29
BRANCH   2  54
ATOM     54  C17 XNC d          29.079   5.524  40.631  0.00  0.00     0.125 A 
ATOM     55  C43 XNC d          29.219   4.146  40.636  0.00  0.00    -0.050 A 
ATOM     56  C42 XNC d          30.157   3.578  41.493  0.00  0.00    -0.079 A 
ATOM     57  H1  XNC d          28.613   3.524  39.987  0.00  0.00     0.087 H 
ATOM     58  C41 XNC d          30.960   4.395  42.310  0.00  0.00    -0.059 A 
ATOM     59  H2  XNC d          30.269   2.500  41.533  0.00  0.00     0.083 H 
ATOM     60  C40 XNC d          30.833   5.775  42.278  0.00  0.00     0.031 A 
ATOM     61  H3  XNC d          31.687   3.940  42.972  0.00  0.00     0.086 H 
ATOM     62  N39 XNC d          29.884   6.326  41.441  0.00  0.00    -0.248 NA
BRANCH  60  63
ATOM     63  C44 XNC d          31.665   6.679  43.148  0.00  0.00    -0.035 C 
ATOM     64  H4  XNC d          31.111   6.915  44.067  0.00  0.00     0.035 H 
ATOM     65  H5  XNC d          31.887   7.609  42.604  0.00  0.00     0.035 H 
ATOM     66  H6  XNC d          32.607   6.173  43.408  0.00  0.00     0.035 H 
ENDBRANCH  60  63
ENDBRANCH   2  54
BRANCH  18  67
ATOM     67  O36 XNC d          31.419   4.274  35.253  0.00  0.00    -0.358 OA
ATOM     68  H21 XNC d          31.777   3.489  35.652  0.00  0.00     0.217 HD
ENDBRANCH  18  67
BRANCH  13  69
ATOM     69  C37 XNC d          25.152   1.753  34.536  0.00  0.00    -0.068 C 
ATOM     70  H12 XNC d          24.093   1.578  34.775  0.00  0.00     0.028 H 
ATOM     71  H13 XNC d          25.769   0.981  35.018  0.00  0.00     0.028 H 
ATOM     72  H14 XNC d          25.294   1.708  33.446  0.00  0.00     0.028 H 
ENDBRANCH  13  69
BRANCH  13  73
ATOM     73  C38 XNC d          25.636   4.158  33.876  0.00  0.00    -0.068 C 
ATOM     74  H15 XNC d          26.127   3.684  33.013  0.00  0.00     0.028 H 
ATOM     75  H16 XNC d          26.209   5.046  34.181  0.00  0.00     0.028 H 
ATOM     76  H17 XNC d          24.615   4.459  33.598  0.00  0.00     0.028 H 
ENDBRANCH  13  73
TORSDOF 9
ENDMDL
MODEL 2
REMARK VINA RESULT:      -9.0      2.603      7.324
REMARK  9 active torsions:
REMARK  status: ('A' for Active; 'I' for Inactive)
REMARK    1  A    between atoms: C16_2  and  C17_3 
REMARK       I    between atoms: C16_2  and  N7_10 
REMARK    2  A    between atoms: C40_7  and  C44_8 
REMARK    3  A    between atoms: C8_14  and  C18_30 
REMARK    4  A    between atoms: C14_20  and  C37_21 
REMARK    5  A    between atoms: C14_20  and  C38_22 
REMARK    6  A    between atoms: C6_27  and  O36_28 
REMARK    7  A    between atoms: C21_34  and  O24_37 
REMARK    8  A    between atoms: O24_37  and  C25_38 
REMARK    9  A    between atoms: C25_38  and  C26_39 
ROOT
ATOM      1  O35 XNC d          29.887   5.283  33.271  0.00  0.00    -0.265 OA
ATOM      2  C16 XNC d          29.231   6.025  33.984  0.00  0.00     0.278 C 
ATOM      3  N7  XNC d          29.074   5.778  35.359  0.00  0.00    -0.296 N 
ATOM      4  C4  XNC d          28.679   6.767  36.301  0.00  0.00     0.068 A 
ATOM      5  C3  XNC d          29.445   7.929  36.474  0.00  0.00    -0.054 A 
ATOM      6  C2  XNC d          29.086   8.886  37.415  0.00  0.00    -0.078 A 
ATOM      7  C8  XNC d          29.318   4.416  35.879  0.00  0.00     0.086 C 
ATOM      8  C9  XNC d          28.007   3.679  35.961  0.00  0.00     0.087 C 
ATOM      9  S12 XNC d          28.118   2.090  35.339  0.00  0.00     0.176 S 
ATOM     10  O32 XNC d          29.171   1.394  36.075  0.00  0.00    -0.223 OA
ATOM     11  O33 XNC d          28.487   2.094  33.944  0.00  0.00    -0.223 OA
ATOM     12  C13 XNC d          26.506   1.304  35.534  0.00  0.00     0.040 C 
ATOM     13  C14 XNC d          25.741   1.814  36.751  0.00  0.00    -0.029 C 
ATOM     14  C15 XNC d          25.582   3.338  36.533  0.00  0.00    -0.018 C 
ATOM     15  C10 XNC d          26.849   4.179  36.456  0.00  0.00     0.030 C 
ATOM     16  N11 XNC d          26.681   5.460  36.966  0.00  0.00    -0.354 N 
ATOM     17  C5  XNC d          27.531   6.573  37.078  0.00  0.00     0.093 A 
ATOM     18  C6  XNC d          27.172   7.546  37.993  0.00  0.00     0.094 A 
ATOM     19  C1  XNC d          27.949   8.687  38.157  0.00  0.00    -0.049 A 
ATOM     20  H7  XNC d          30.328   8.083  35.866  0.00  0.00     0.087 H 
ATOM     21  H8  XNC d          29.693   9.772  37.559  0.00  0.00     0.083 H 
ATOM     22  H9  XNC d          29.955   3.866  35.169  0.00  0.00     0.090 H 
ATOM     23  H10 XNC d          26.656   0.219  35.643  0.00  0.00     0.057 H 
ATOM     24  H11 XNC d          25.907   1.503  34.633  0.00  0.00     0.057 H 
ATOM     25  H18 XNC d          24.979   3.728  37.366  0.00  0.00     0.043 H 
ATOM     26  H19 XNC d          25.037   3.480  35.589  0.00  0.00     0.043 H 
ATOM     27  H20 XNC d          25.736   5.630  37.338  0.00  0.00     0.166 HD
ATOM     28  H22 XNC d          27.651   9.434  38.884  0.00  0.00     0.087 H 
ENDROOT
BRANCH   7  29
ATOM     29  C18 XNC d          30.118   4.577  37.194  0.00  0.00     0.009 A 
ATOM     30  C23 XNC d          31.384   5.145  37.144  0.00  0.00     0.127 A 
ATOM     31  F34 XNC d          31.862   5.525  35.961  0.00  0.00    -0.205 F 
ATOM     32  C22 XNC d          32.149   5.299  38.302  0.00  0.00    -0.013 A 
ATOM     33  C21 XNC d          31.639   4.883  39.533  0.00  0.00     0.072 A 
ATOM     34  H23 XNC d          33.137   5.741  38.245  0.00  0.00     0.092 H 
ATOM     35  C20 XNC d          30.359   4.315  39.584  0.00  0.00    -0.050 A 
ATOM     36  C19 XNC d          29.611   4.158  38.422  0.00  0.00    -0.069 A 
ATOM     37  H24 XNC d          29.949   3.996  40.535  0.00  0.00     0.087 H 
ATOM     38  H25 XNC d          28.627   3.706  38.473  0.00  0.00     0.084 H 
BRANCH  33  39
ATOM     39  O24 XNC d          32.406   5.068  40.655  0.00  0.00    -0.347 OA
BRANCH  39  40
ATOM     40  C25 XNC d          31.957   5.832  41.796  0.00  0.00     0.050 C 
ATOM     41  H26 XNC d          32.785   5.932  42.514  0.00  0.00     0.082 H 
ATOM     42  H27 XNC d          31.118   5.308  42.276  0.00  0.00     0.082 H 
BRANCH  40  43
ATOM     43  C26 XNC d          31.501   7.217  41.360  0.00  0.00    -0.034 A 
ATOM     44  C31 XNC d          30.201   7.622  41.600  0.00  0.00    -0.075 A 
ATOM     45  C30 XNC d          29.776   8.896  41.242  0.00  0.00    -0.082 A 
ATOM     46  H28 XNC d          29.505   6.938  42.073  0.00  0.00     0.084 H 
ATOM     47  C29 XNC d          30.657   9.771  40.623  0.00  0.00    -0.083 A 
ATOM     48  H29 XNC d          28.758   9.206  41.447  0.00  0.00     0.083 H 
ATOM     49  C28 XNC d          31.977   9.364  40.372  0.00  0.00    -0.082 A 
ATOM     50  H30 XNC d          30.328  10.762  40.335  0.00  0.00     0.083 H 
ATOM     51  C27 XNC d          32.399   8.094  40.746  0.00  0.00    -0.075 A 
ATOM     52  H31 XNC d          32.669  10.041  39.884  0.00  0.00     0.083 H 
ATOM     53  H32 XNC d          33.422   7.785  40.561  0.00  0.00     0.084 H 
ENDBRANCH  40  43
ENDBRANCH  39  40
ENDBRANCH  33  39
ENDBRANCH   7  29
BRANCH   2  54
ATOM     54  C17 XNC d          28.613   7.216  33.348  0.00  0.00     0.125 A 
ATOM     55  C43 XNC d          27.337   7.160  32.813  0.00  0.00    -0.050 A 
ATOM     56  C42 XNC d          26.812   8.309  32.227  0.00  0.00    -0.079 A 
ATOM     57  H1  XNC d          26.760   6.242  32.848  0.00  0.00     0.087 H 
ATOM     58  C41 XNC d          27.556   9.502  32.213  0.00  0.00    -0.059 A 
ATOM     59  H2  XNC d          25.824   8.283  31.780  0.00  0.00     0.083 H 
ATOM     60  C40 XNC d          28.821   9.558  32.777  0.00  0.00     0.031 A 
ATOM     61  H3  XNC d          27.135  10.389  31.756  0.00  0.00     0.086 H 
ATOM     62  N39 XNC d          29.341   8.407  33.334  0.00  0.00    -0.248 NA
BRANCH  60  63
ATOM     63  C44 XNC d          29.651  10.814  32.768  0.00  0.00    -0.035 C 
ATOM     64  H4  XNC d          29.221  11.532  32.055  0.00  0.00     0.035 H 
ATOM     65  H5  XNC d          30.680  10.571  32.467  0.00  0.00     0.035 H 
ATOM     66  H6  XNC d          29.658  11.257  33.775  0.00  0.00     0.035 H 
ENDBRANCH  60  63
ENDBRANCH   2  54
BRANCH  18  67
ATOM     67  O36 XNC d          26.062   7.406  38.772  0.00  0.00    -0.358 OA
ATOM     68  H21 XNC d          25.460   6.800  38.358  0.00  0.00     0.217 HD
ENDBRANCH  18  67
BRANCH  13  69
ATOM     69  C37 XNC d          24.344   1.146  36.772  0.00  0.00    -0.068 C 
ATOM     70  H12 XNC d          23.841   1.376  37.722  0.00  0.00     0.028 H 
ATOM     71  H13 XNC d          24.457   0.057  36.672  0.00  0.00     0.028 H 
ATOM     72  H14 XNC d          23.741   1.530  35.935  0.00  0.00     0.028 H 
ENDBRANCH  13  69
BRANCH  13  73
ATOM     73  C38 XNC d          26.492   1.516  38.078  0.00  0.00    -0.068 C 
ATOM     74  H15 XNC d          27.561   1.366  37.868  0.00  0.00     0.028 H 
ATOM     75  H16 XNC d          26.077   0.608  38.537  0.00  0.00     0.028 H 
ATOM     76  H17 XNC d          26.369   2.365  38.767  0.00  0.00     0.028 H 
ENDBRANCH  13  73
TORSDOF 9
ENDMDL
