MODEL 1
REMARK VINA RESULT:      -7.5      0.000      0.000
REMARK  4 active torsions:
REMARK  status: ('A' for Active; 'I' for Inactive)
REMARK    1  A    between atoms: C3_2  and  O3_3 
REMARK    2  A    between atoms: C4_4  and  O4_5 
REMARK    3  A    between atoms: C_8  and  C1_12 
REMARK    4  A    between atoms: C1_12  and  O30_10 
ROOT
ATOM      1  C2  FA1 d          44.201   7.412  26.812  0.00  0.00    -0.001 C 
ATOM      2  C3  FA1 d          43.186   7.638  25.703  0.00  0.00     0.067 C 
ATOM      3  C4  FA1 d          43.849   7.360  24.352  0.00  0.00     0.076 C 
ATOM      4  C5  FA1 d          44.532   6.005  24.366  0.00  0.00    -0.074 C 
ATOM      5  C6  FA1 d          44.910   5.402  25.560  0.00  0.00    -0.066 C 
ATOM      6  C1  FA1 d          44.676   5.936  26.851  0.00  0.00     0.145 C 
ATOM      7  H1  FA1 d          43.737   7.664  27.778  0.00  0.00     0.042 H 
ATOM      8  H2  FA1 d          45.071   8.063  26.640  0.00  0.00     0.042 H 
ATOM      9  H3  FA1 d          42.345   6.942  25.839  0.00  0.00     0.087 H 
ATOM     10  H5  FA1 d          44.595   8.138  24.132  0.00  0.00     0.093 H 
ATOM     11  H7  FA1 d          44.729   5.496  23.424  0.00  0.00     0.080 H 
ATOM     12  H8  FA1 d          45.426   4.445  25.497  0.00  0.00     0.081 H 
ENDROOT
BRANCH   6  13
ATOM     13  C   FA1 d          46.037   5.791  27.557  0.00  0.00     0.327 C 
ATOM     14  O1  FA1 d          46.289   6.701  28.623  0.00  0.00    -0.184 OA
ATOM     15  O2  FA1 d          46.295   4.440  27.856  0.00  0.00    -0.184 OA
ENDBRANCH   6  13
BRANCH   6  16
ATOM     16  O30 FA1 d          43.673   5.046  27.465  0.00  0.00    -0.380 OA
ATOM     17  H9  FA1 d          43.414   5.398  28.309  0.00  0.00     0.211 HD
ENDBRANCH   6  16
BRANCH   2  18
ATOM     18  O3  FA1 d          42.678   8.999  25.755  0.00  0.00    -0.393 OA
ATOM     19  H4  FA1 d          43.382   9.607  25.561  0.00  0.00     0.210 HD
ENDBRANCH   2  18
BRANCH   3  20
ATOM     20  O4  FA1 d          42.828   7.388  23.385  0.00  0.00    -0.389 OA
ATOM     21  H6  FA1 d          42.094   7.892  23.715  0.00  0.00     0.210 HD
ENDBRANCH   3  20
TORSDOF 4
ENDMDL
MODEL 2
REMARK VINA RESULT:      -5.1      1.504      2.295
REMARK  4 active torsions:
REMARK  status: ('A' for Active; 'I' for Inactive)
REMARK    1  A    between atoms: C3_2  and  O3_3 
REMARK    2  A    between atoms: C4_4  and  O4_5 
REMARK    3  A    between atoms: C_8  and  C1_12 
REMARK    4  A    between atoms: C1_12  and  O30_10 
ROOT
ATOM      1  C2  FA1 d          44.022   7.037  25.705  0.00  0.00    -0.001 C 
ATOM      2  C3  FA1 d          43.761   6.067  24.565  0.00  0.00     0.067 C 
ATOM      3  C4  FA1 d          45.033   5.261  24.290  0.00  0.00     0.076 C 
ATOM      4  C5  FA1 d          45.564   4.654  25.576  0.00  0.00    -0.074 C 
ATOM      5  C6  FA1 d          45.231   5.187  26.815  0.00  0.00    -0.066 C 
ATOM      6  C1  FA1 d          44.360   6.287  27.020  0.00  0.00     0.145 C 
ATOM      7  H1  FA1 d          43.123   7.651  25.865  0.00  0.00     0.042 H 
ATOM      8  H2  FA1 d          44.868   7.686  25.436  0.00  0.00     0.042 H 
ATOM      9  H3  FA1 d          42.957   5.375  24.859  0.00  0.00     0.087 H 
ATOM     10  H5  FA1 d          45.804   5.913  23.854  0.00  0.00     0.093 H 
ATOM     11  H7  FA1 d          46.217   3.784  25.526  0.00  0.00     0.080 H 
ATOM     12  H8  FA1 d          45.673   4.725  27.696  0.00  0.00     0.081 H 
ENDROOT
BRANCH   6  13
ATOM     13  C   FA1 d          45.132   7.182  28.008  0.00  0.00     0.327 C 
ATOM     14  O1  FA1 d          46.326   6.628  28.551  0.00  0.00    -0.184 OA
ATOM     15  O2  FA1 d          45.262   8.484  27.493  0.00  0.00    -0.184 OA
ENDBRANCH   6  13
BRANCH   6  16
ATOM     16  O30 FA1 d          43.160   5.719  27.660  0.00  0.00    -0.380 OA
ATOM     17  H9  FA1 d          43.027   4.831  27.350  0.00  0.00     0.211 HD
ENDBRANCH   6  16
BRANCH   2  18
ATOM     18  O3  FA1 d          43.343   6.788  23.374  0.00  0.00    -0.393 OA
ATOM     19  H4  FA1 d          44.055   7.341  23.074  0.00  0.00     0.210 HD
ENDBRANCH   2  18
BRANCH   3  20
ATOM     20  O4  FA1 d          44.685   4.251  23.374  0.00  0.00    -0.389 OA
ATOM     21  H6  FA1 d          44.745   3.405  23.800  0.00  0.00     0.210 HD
ENDBRANCH   3  20
TORSDOF 4
ENDMDL
MODEL 3
REMARK VINA RESULT:      -4.6      1.299      4.319
REMARK  4 active torsions:
REMARK  status: ('A' for Active; 'I' for Inactive)
REMARK    1  A    between atoms: C3_2  and  O3_3 
REMARK    2  A    between atoms: C4_4  and  O4_5 
REMARK    3  A    between atoms: C_8  and  C1_12 
REMARK    4  A    between atoms: C1_12  and  O30_10 
ROOT
ATOM      1  C2  FA1 d          43.777   5.735  26.328  0.00  0.00    -0.001 C 
ATOM      2  C3  FA1 d          44.634   5.832  27.580  0.00  0.00     0.067 C 
ATOM      3  C4  FA1 d          45.697   6.915  27.379  0.00  0.00     0.076 C 
ATOM      4  C5  FA1 d          45.054   8.207  26.909  0.00  0.00    -0.074 C 
ATOM      5  C6  FA1 d          43.812   8.207  26.286  0.00  0.00    -0.066 C 
ATOM      6  C1  FA1 d          43.012   7.058  26.064  0.00  0.00     0.145 C 
ATOM      7  H1  FA1 d          43.050   4.920  26.455  0.00  0.00     0.042 H 
ATOM      8  H2  FA1 d          44.426   5.519  25.466  0.00  0.00     0.042 H 
ATOM      9  H3  FA1 d          43.996   6.111  28.431  0.00  0.00     0.087 H 
ATOM     10  H5  FA1 d          46.433   6.585  26.632  0.00  0.00     0.093 H 
ATOM     11  H7  FA1 d          45.576   9.150  27.062  0.00  0.00     0.080 H 
ATOM     12  H8  FA1 d          43.423   9.164  25.943  0.00  0.00     0.081 H 
ENDROOT
BRANCH   6  13
ATOM     13  C   FA1 d          42.589   7.190  24.589  0.00  0.00     0.327 C 
ATOM     14  O1  FA1 d          41.852   8.361  24.252  0.00  0.00    -0.184 OA
ATOM     15  O2  FA1 d          43.673   6.905  23.739  0.00  0.00    -0.184 OA
ENDBRANCH   6  13
BRANCH   6  16
ATOM     16  O30 FA1 d          41.849   7.214  26.956  0.00  0.00    -0.380 OA
ATOM     17  H9  FA1 d          41.121   6.705  26.617  0.00  0.00     0.211 HD
ENDBRANCH   6  16
BRANCH   2  18
ATOM     18  O3  FA1 d          45.257   4.549  27.865  0.00  0.00    -0.393 OA
ATOM     19  H4  FA1 d          46.071   4.479  27.381  0.00  0.00     0.210 HD
ENDBRANCH   2  18
BRANCH   3  20
ATOM     20  O4  FA1 d          46.327   7.102  28.623  0.00  0.00    -0.389 OA
ATOM     21  H6  FA1 d          46.849   6.336  28.830  0.00  0.00     0.210 HD
ENDBRANCH   3  20
TORSDOF 4
ENDMDL
