MODEL 1
REMARK VINA RESULT:      -8.8      0.000      0.000
REMARK  29 active torsions:
REMARK  status: ('A' for Active; 'I' for Inactive)
REMARK    1  A    between atoms: CR1_1  and  OR1_7 
REMARK    2  A    between atoms: CR2_2  and  OR2_8 
REMARK    3  A    between atoms: CR3_3  and  OR3_9 
REMARK    4  A    between atoms: OR4_10  and  CR4_4 
REMARK    5  A    between atoms: CR5_5  and  CR6_6 
REMARK    6  A    between atoms: CR6_6  and  OR6_12 
REMARK    7  A    between atoms: CV1_13  and  OR4_10 
REMARK    8  A    between atoms: CV2_14  and  OV2_19 
REMARK    9  A    between atoms: CV3_15  and  OV3_20 
REMARK   10  A    between atoms: NV4_21  and  CV4_16 
REMARK   11  A    between atoms: CV5_17  and  CV6_18 
REMARK   12  A    between atoms: CY1_45  and  NV4_21 
REMARK   13  A    between atoms: OY4_51  and  CQ1_23 
REMARK   14  A    between atoms: CQ2_24  and  OQ2_29 
REMARK   15  A    between atoms: CQ3_25  and  OQ3_30 
REMARK   16  A    between atoms: CQ4_26  and  OQ4_31 
REMARK   17  A    between atoms: CQ5_27  and  CQ6_28 
REMARK   18  A    between atoms: CQ6_28  and  OQ6_33 
REMARK   19  A    between atoms: OQ4_31  and  CW1_34 
REMARK   20  A    between atoms: CW2_35  and  OW2_40 
REMARK   21  A    between atoms: CW3_36  and  OW3_41 
REMARK   22  A    between atoms: CW4_37  and  OW4_42 
REMARK   23  A    between atoms: CW5_38  and  CW6_39 
REMARK   24  A    between atoms: CW6_39  and  OW6_44 
REMARK   25  A    between atoms: CY2_46  and  OY2_47 
REMARK   26  A    between atoms: CY3_48  and  OY3_49 
REMARK   27  A    between atoms: CY4_50  and  OY4_51 
REMARK   28  A    between atoms: CY5_52  and  CY7_54 
REMARK   29  A    between atoms: CY7_54  and  OY7_55 
ROOT
ATOM      1  CY1 MOL d          10.235  17.511  44.890  0.00  0.00     0.130 C 
ATOM      2  CY2 MOL d          11.201  18.755  44.779  0.00  0.00     0.090 C 
ATOM      3  CY3 MOL d          11.808  18.836  43.308  0.00  0.00     0.087 C 
ATOM      4  CY4 MOL d          12.578  17.479  42.911  0.00  0.00     0.074 C 
ATOM      5  CY5 MOL d          11.837  16.225  43.377  0.00  0.00    -0.004 C 
ATOM      6  CY6 MOL d          11.182  16.302  44.556  0.00  0.00    -0.028 C 
ATOM      7  H45 MOL d           9.856  17.399  45.916  0.00  0.00     0.088 H 
ATOM      8  H46 MOL d          12.026  18.623  45.496  0.00  0.00     0.090 H 
ATOM      9  H48 MOL d          10.972  18.971  42.605  0.00  0.00     0.091 H 
ATOM     10  H50 MOL d          13.589  17.500  43.342  0.00  0.00     0.088 H 
ATOM     11  H51 MOL d          11.059  16.059  42.618  0.00  0.00     0.047 H 
ATOM     12  H52 MOL d          10.565  15.394  44.629  0.00  0.00     0.036 H 
ATOM     13  H53 MOL d          11.953  16.285  45.341  0.00  0.00     0.036 H 
ENDROOT
BRANCH   1  14
ATOM     14  NV4 MOL d           9.033  17.739  43.960  0.00  0.00    -0.059 N 
ATOM     15  H22 MOL d           8.279  18.071  44.541  0.00  0.00     0.278 HD
ATOM     16  H23 MOL d           9.303  18.462  43.313  0.00  0.00     0.278 HD
BRANCH  14  17
ATOM     17  CV4 MOL d           8.484  16.629  43.150  0.00  0.00     0.153 C 
ATOM     18  CV3 MOL d           7.208  16.074  43.820  0.00  0.00     0.094 C 
ATOM     19  CV2 MOL d           6.664  14.928  42.971  0.00  0.00     0.110 C 
ATOM     20  H14 MOL d           6.456  16.873  43.901  0.00  0.00     0.090 H 
ATOM     21  CV1 MOL d           6.352  15.367  41.545  0.00  0.00     0.159 C 
ATOM     22  H13 MOL d           7.438  14.147  42.930  0.00  0.00     0.094 H 
ATOM     23  OV5 MOL d           7.524  15.999  40.963  0.00  0.00    -0.351 OA
ATOM     24  H12 MOL d           6.119  14.463  40.964  0.00  0.00     0.133 H 
ATOM     25  CV5 MOL d           8.070  17.140  41.723  0.00  0.00     0.068 C 
ATOM     26  H16 MOL d           7.300  17.919  41.822  0.00  0.00     0.086 H 
ATOM     27  H15 MOL d           9.240  15.835  43.059  0.00  0.00     0.092 H 
BRANCH  18  28
ATOM     28  OV3 MOL d           7.503  15.568  45.101  0.00  0.00    -0.391 OA
ATOM     29  H21 MOL d           7.332  16.238  45.752  0.00  0.00     0.210 HD
ENDBRANCH  18  28
BRANCH  19  30
ATOM     30  OV2 MOL d           5.498  14.367  43.532  0.00  0.00    -0.388 OA
ATOM     31  H20 MOL d           5.738  13.793  44.249  0.00  0.00     0.210 HD
ENDBRANCH  19  30
BRANCH  21  32
ATOM     32  OR4 MOL d           5.264  16.225  41.437  0.00  0.00    -0.348 OA
BRANCH  32  33
ATOM     33  CR4 MOL d           4.409  15.966  40.324  0.00  0.00     0.096 C 
ATOM     34  CR3 MOL d           5.272  15.903  39.038  0.00  0.00     0.092 C 
ATOM     35  CR2 MOL d           4.353  15.616  37.845  0.00  0.00     0.110 C 
ATOM     36  H3  MOL d           6.028  15.111  39.136  0.00  0.00     0.091 H 
ATOM     37  CR1 MOL d           3.625  14.260  38.058  0.00  0.00     0.156 C 
ATOM     38  H2  MOL d           3.611  16.422  37.759  0.00  0.00     0.094 H 
ATOM     39  OR5 MOL d           2.855  14.299  39.326  0.00  0.00    -0.349 OA
ATOM     40  H1  MOL d           2.923  14.112  37.224  0.00  0.00     0.133 H 
ATOM     41  CR5 MOL d           3.675  14.557  40.516  0.00  0.00     0.089 C 
ATOM     42  H5  MOL d           4.436  13.769  40.616  0.00  0.00     0.090 H 
ATOM     43  H4  MOL d           3.660  16.767  40.237  0.00  0.00     0.091 H 
BRANCH  34  44
ATOM     44  OR3 MOL d           5.902  17.145  38.815  0.00  0.00    -0.390 OA
ATOM     45  H10 MOL d           5.411  17.831  39.250  0.00  0.00     0.210 HD
ENDBRANCH  34  44
BRANCH  35  46
ATOM     46  OR2 MOL d           5.101  15.542  36.651  0.00  0.00    -0.388 OA
ATOM     47  H9  MOL d           4.535  15.731  35.912  0.00  0.00     0.210 HD
ENDBRANCH  35  46
BRANCH  37  48
ATOM     48  OR1 MOL d           4.527  13.167  38.077  0.00  0.00    -0.369 OA
ATOM     49  H8  MOL d           4.048  12.360  37.930  0.00  0.00     0.212 HD
ENDBRANCH  37  48
BRANCH  41  50
ATOM     50  CR6 MOL d           2.840  14.543  41.683  0.00  0.00     0.043 C 
ATOM     51  H6  MOL d           3.386  14.052  42.502  0.00  0.00     0.078 H 
ATOM     52  H7  MOL d           1.928  13.972  41.456  0.00  0.00     0.078 H 
BRANCH  50  53
ATOM     53  OR6 MOL d           2.466  15.850  42.103  0.00  0.00    -0.398 OA
ATOM     54  H11 MOL d           1.606  16.058  41.761  0.00  0.00     0.209 HD
ENDBRANCH  50  53
ENDBRANCH  41  50
ENDBRANCH  32  33
ENDBRANCH  21  32
BRANCH  25  55
ATOM     55  CV6 MOL d           9.276  17.716  40.997  0.00  0.00    -0.050 C 
ATOM     56  H17 MOL d           9.923  16.896  40.652  0.00  0.00     0.031 H 
ATOM     57  H18 MOL d           9.841  18.366  41.681  0.00  0.00     0.031 H 
ATOM     58  H19 MOL d           8.936  18.303  40.131  0.00  0.00     0.031 H 
ENDBRANCH  25  55
ENDBRANCH  14  17
ENDBRANCH   1  14
BRANCH   2  59
ATOM     59  OY2 MOL d          10.538  19.938  45.082  0.00  0.00    -0.391 OA
ATOM     60  H47 MOL d          11.154  20.559  45.453  0.00  0.00     0.210 HD
ENDBRANCH   2  59
BRANCH   3  61
ATOM     61  OY3 MOL d          12.668  19.936  43.179  0.00  0.00    -0.390 OA
ATOM     62  H49 MOL d          13.403  19.698  42.626  0.00  0.00     0.210 HD
ENDBRANCH   3  61
BRANCH   5  63
ATOM     63  CY7 MOL d          12.730  14.954  43.374  0.00  0.00     0.022 C 
ATOM     64  H54 MOL d          12.896  14.630  42.337  0.00  0.00     0.074 H 
ATOM     65  H55 MOL d          12.223  14.153  43.932  0.00  0.00     0.074 H 
BRANCH  63  66
ATOM     66  OY7 MOL d          14.006  15.236  43.996  0.00  0.00    -0.400 OA
ATOM     67  H56 MOL d          13.967  15.001  44.917  0.00  0.00     0.209 HD
ENDBRANCH  63  66
ENDBRANCH   5  63
BRANCH   4  68
ATOM     68  OY4 MOL d          12.637  17.362  41.494  0.00  0.00    -0.350 OA
BRANCH  68  69
ATOM     69  CQ1 MOL d          13.808  17.872  40.897  0.00  0.00     0.159 C 
ATOM     70  CQ2 MOL d          13.544  18.169  39.404  0.00  0.00     0.110 C 
ATOM     71  CQ3 MOL d          13.469  16.872  38.543  0.00  0.00     0.092 C 
ATOM     72  H25 MOL d          14.362  18.799  39.023  0.00  0.00     0.094 H 
ATOM     73  CQ4 MOL d          14.774  16.089  38.700  0.00  0.00     0.096 C 
ATOM     74  H26 MOL d          12.627  16.246  38.876  0.00  0.00     0.091 H 
ATOM     75  CQ5 MOL d          14.853  15.708  40.240  0.00  0.00     0.089 C 
ATOM     76  H27 MOL d          15.637  16.702  38.402  0.00  0.00     0.091 H 
ATOM     77  OQ5 MOL d          14.886  16.912  41.044  0.00  0.00    -0.348 OA
ATOM     78  H28 MOL d          13.961  15.117  40.495  0.00  0.00     0.090 H 
ATOM     79  H24 MOL d          14.091  18.807  41.402  0.00  0.00     0.133 H 
BRANCH  70  80
ATOM     80  OQ2 MOL d          12.318  18.865  39.277  0.00  0.00    -0.388 OA
ATOM     81  H31 MOL d          12.445  19.630  38.727  0.00  0.00     0.210 HD
ENDBRANCH  70  80
BRANCH  71  82
ATOM     82  OQ3 MOL d          13.261  17.274  37.187  0.00  0.00    -0.390 OA
ATOM     83  H32 MOL d          13.488  18.192  37.092  0.00  0.00     0.210 HD
ENDBRANCH  71  82
BRANCH  73  84
ATOM     84  OQ4 MOL d          14.728  14.923  37.927  0.00  0.00    -0.348 OA
BRANCH  84  85
ATOM     85  CW1 MOL d          15.289  15.149  36.624  0.00  0.00     0.159 C 
ATOM     86  CW2 MOL d          14.475  14.475  35.494  0.00  0.00     0.110 C 
ATOM     87  CW3 MOL d          14.525  12.936  35.686  0.00  0.00     0.092 C 
ATOM     88  H35 MOL d          14.907  14.733  34.516  0.00  0.00     0.094 H 
ATOM     89  CW4 MOL d          16.001  12.508  35.592  0.00  0.00     0.090 C 
ATOM     90  H36 MOL d          14.106  12.657  36.663  0.00  0.00     0.091 H 
ATOM     91  CW5 MOL d          16.806  13.218  36.749  0.00  0.00     0.089 C 
ATOM     92  H37 MOL d          16.413  12.800  34.615  0.00  0.00     0.091 H 
ATOM     93  OW5 MOL d          16.676  14.657  36.585  0.00  0.00    -0.348 OA
ATOM     94  H38 MOL d          16.393  12.915  37.722  0.00  0.00     0.090 H 
ATOM     95  H34 MOL d          15.294  16.234  36.441  0.00  0.00     0.133 H 
BRANCH  86  96
ATOM     96  OW2 MOL d          13.154  14.958  35.564  0.00  0.00    -0.388 OA
ATOM     97  H41 MOL d          12.819  15.090  34.685  0.00  0.00     0.210 HD
ENDBRANCH  86  96
BRANCH  87  98
ATOM     98  OW3 MOL d          13.794  12.321  34.651  0.00  0.00    -0.390 OA
ATOM     99  H42 MOL d          14.396  11.969  34.006  0.00  0.00     0.210 HD
ENDBRANCH  87  98
BRANCH  89 100
ATOM    100  OW4 MOL d          16.094  11.102  35.752  0.00  0.00    -0.390 OA
ATOM    101  H43 MOL d          16.268  10.900  36.664  0.00  0.00     0.210 HD
ENDBRANCH  89 100
BRANCH  91 102
ATOM    102  CW6 MOL d          18.300  12.840  36.688  0.00  0.00     0.043 C 
ATOM    103  H39 MOL d          18.902  13.732  36.915  0.00  0.00     0.078 H 
ATOM    104  H40 MOL d          18.536  12.486  35.674  0.00  0.00     0.078 H 
BRANCH 102 105
ATOM    105  OW6 MOL d          18.619  11.831  37.607  0.00  0.00    -0.398 OA
ATOM    106  H44 MOL d          19.097  11.140  37.163  0.00  0.00     0.209 HD
ENDBRANCH 102 105
ENDBRANCH  91 102
ENDBRANCH  84  85
ENDBRANCH  73  84
BRANCH  75 107
ATOM    107  CQ6 MOL d          16.096  14.903  40.605  0.00  0.00     0.043 C 
ATOM    108  H29 MOL d          16.979  15.376  40.150  0.00  0.00     0.078 H 
ATOM    109  H30 MOL d          15.989  13.879  40.219  0.00  0.00     0.078 H 
BRANCH 107 110
ATOM    110  OQ6 MOL d          16.268  14.855  42.003  0.00  0.00    -0.398 OA
ATOM    111  H33 MOL d          15.467  14.544  42.409  0.00  0.00     0.209 HD
ENDBRANCH 107 110
ENDBRANCH  75 107
ENDBRANCH  68  69
ENDBRANCH   4  68
TORSDOF 29
ENDMDL
MODEL 2
REMARK VINA RESULT:      -6.6      1.588      2.676
REMARK  29 active torsions:
REMARK  status: ('A' for Active; 'I' for Inactive)
REMARK    1  A    between atoms: CR1_1  and  OR1_7 
REMARK    2  A    between atoms: CR2_2  and  OR2_8 
REMARK    3  A    between atoms: CR3_3  and  OR3_9 
REMARK    4  A    between atoms: OR4_10  and  CR4_4 
REMARK    5  A    between atoms: CR5_5  and  CR6_6 
REMARK    6  A    between atoms: CR6_6  and  OR6_12 
REMARK    7  A    between atoms: CV1_13  and  OR4_10 
REMARK    8  A    between atoms: CV2_14  and  OV2_19 
REMARK    9  A    between atoms: CV3_15  and  OV3_20 
REMARK   10  A    between atoms: NV4_21  and  CV4_16 
REMARK   11  A    between atoms: CV5_17  and  CV6_18 
REMARK   12  A    between atoms: CY1_45  and  NV4_21 
REMARK   13  A    between atoms: OY4_51  and  CQ1_23 
REMARK   14  A    between atoms: CQ2_24  and  OQ2_29 
REMARK   15  A    between atoms: CQ3_25  and  OQ3_30 
REMARK   16  A    between atoms: CQ4_26  and  OQ4_31 
REMARK   17  A    between atoms: CQ5_27  and  CQ6_28 
REMARK   18  A    between atoms: CQ6_28  and  OQ6_33 
REMARK   19  A    between atoms: OQ4_31  and  CW1_34 
REMARK   20  A    between atoms: CW2_35  and  OW2_40 
REMARK   21  A    between atoms: CW3_36  and  OW3_41 
REMARK   22  A    between atoms: CW4_37  and  OW4_42 
REMARK   23  A    between atoms: CW5_38  and  CW6_39 
REMARK   24  A    between atoms: CW6_39  and  OW6_44 
REMARK   25  A    between atoms: CY2_46  and  OY2_47 
REMARK   26  A    between atoms: CY3_48  and  OY3_49 
REMARK   27  A    between atoms: CY4_50  and  OY4_51 
REMARK   28  A    between atoms: CY5_52  and  CY7_54 
REMARK   29  A    between atoms: CY7_54  and  OY7_55 
ROOT
ATOM      1  CY1 MOL d           8.452  16.351  43.614  0.00  0.00     0.130 C 
ATOM      2  CY2 MOL d           8.269  17.478  42.524  0.00  0.00     0.090 C 
ATOM      3  CY3 MOL d           9.488  17.440  41.499  0.00  0.00     0.087 C 
ATOM      4  CY4 MOL d          10.900  17.603  42.255  0.00  0.00     0.074 C 
ATOM      5  CY5 MOL d          10.961  16.814  43.563  0.00  0.00    -0.004 C 
ATOM      6  CY6 MOL d           9.822  16.733  44.284  0.00  0.00    -0.028 C 
ATOM      7  H45 MOL d           7.655  16.402  44.370  0.00  0.00     0.088 H 
ATOM      8  H46 MOL d           8.260  18.456  43.029  0.00  0.00     0.090 H 
ATOM      9  H48 MOL d           9.479  16.459  41.001  0.00  0.00     0.091 H 
ATOM     10  H50 MOL d          11.082  18.670  42.450  0.00  0.00     0.088 H 
ATOM     11  H51 MOL d          11.191  15.782  43.260  0.00  0.00     0.047 H 
ATOM     12  H52 MOL d          10.003  15.985  45.070  0.00  0.00     0.036 H 
ATOM     13  H53 MOL d           9.677  17.721  44.747  0.00  0.00     0.036 H 
ENDROOT
BRANCH   1  14
ATOM     14  NV4 MOL d           8.367  14.981  42.923  0.00  0.00    -0.059 N 
ATOM     15  H22 MOL d           8.936  15.041  42.092  0.00  0.00     0.278 HD
ATOM     16  H23 MOL d           8.771  14.312  43.559  0.00  0.00     0.278 HD
BRANCH  14  17
ATOM     17  CV4 MOL d           7.061  14.428  42.501  0.00  0.00     0.153 C 
ATOM     18  CV3 MOL d           5.931  15.050  43.350  0.00  0.00     0.094 C 
ATOM     19  CV2 MOL d           4.596  14.461  42.903  0.00  0.00     0.110 C 
ATOM     20  H14 MOL d           5.926  16.142  43.215  0.00  0.00     0.090 H 
ATOM     21  CV1 MOL d           4.328  14.706  41.422  0.00  0.00     0.159 C 
ATOM     22  H13 MOL d           4.639  13.374  43.071  0.00  0.00     0.094 H 
ATOM     23  OV5 MOL d           5.453  14.226  40.638  0.00  0.00    -0.351 OA
ATOM     24  H12 MOL d           3.437  14.123  41.147  0.00  0.00     0.133 H 
ATOM     25  CV5 MOL d           6.765  14.792  41.002  0.00  0.00     0.068 C 
ATOM     26  H16 MOL d           6.738  15.886  40.889  0.00  0.00     0.086 H 
ATOM     27  H15 MOL d           7.070  13.335  42.626  0.00  0.00     0.092 H 
BRANCH  18  28
ATOM     28  OV3 MOL d           6.111  14.742  44.713  0.00  0.00    -0.391 OA
ATOM     29  H21 MOL d           5.335  14.303  45.042  0.00  0.00     0.210 HD
ENDBRANCH  18  28
BRANCH  19  30
ATOM     30  OV2 MOL d           3.517  14.982  43.645  0.00  0.00    -0.388 OA
ATOM     31  H20 MOL d           2.901  14.285  43.839  0.00  0.00     0.210 HD
ENDBRANCH  19  30
BRANCH  21  32
ATOM     32  OR4 MOL d           4.074  16.034  41.100  0.00  0.00    -0.348 OA
BRANCH  32  33
ATOM     33  CR4 MOL d           3.360  16.225  39.879  0.00  0.00     0.096 C 
ATOM     34  CR3 MOL d           4.362  16.141  38.700  0.00  0.00     0.092 C 
ATOM     35  CR2 MOL d           3.593  16.337  37.388  0.00  0.00     0.110 C 
ATOM     36  H3  MOL d           4.862  15.161  38.705  0.00  0.00     0.091 H 
ATOM     37  CR1 MOL d           2.512  15.231  37.242  0.00  0.00     0.156 C 
ATOM     38  H2  MOL d           3.109  17.324  37.399  0.00  0.00     0.094 H 
ATOM     39  OR5 MOL d           1.596  15.269  38.409  0.00  0.00    -0.349 OA
ATOM     40  H1  MOL d           1.931  15.436  36.331  0.00  0.00     0.133 H 
ATOM     41  CR5 MOL d           2.264  15.074  39.702  0.00  0.00     0.089 C 
ATOM     42  H5  MOL d           2.768  14.096  39.710  0.00  0.00     0.090 H 
ATOM     43  H4  MOL d           2.868  17.209  39.887  0.00  0.00     0.091 H 
BRANCH  34  44
ATOM     44  OR3 MOL d           5.321  17.170  38.802  0.00  0.00    -0.390 OA
ATOM     45  H10 MOL d           5.968  17.067  38.114  0.00  0.00     0.210 HD
ENDBRANCH  34  44
BRANCH  35  46
ATOM     46  OR2 MOL d           4.468  16.260  36.284  0.00  0.00    -0.388 OA
ATOM     47  H9  MOL d           4.082  16.710  35.542  0.00  0.00     0.210 HD
ENDBRANCH  35  46
BRANCH  37  48
ATOM     48  OR1 MOL d           3.085  13.939  37.123  0.00  0.00    -0.369 OA
ATOM     49  H8  MOL d           2.766  13.526  36.329  0.00  0.00     0.212 HD
ENDBRANCH  37  48
BRANCH  41  50
ATOM     50  CR6 MOL d           1.286  15.098  40.752  0.00  0.00     0.043 C 
ATOM     51  H6  MOL d           1.385  14.178  41.347  0.00  0.00     0.078 H 
ATOM     52  H7  MOL d           0.285  15.137  40.299  0.00  0.00     0.078 H 
BRANCH  50  53
ATOM     53  OR6 MOL d           1.440  16.219  41.615  0.00  0.00    -0.398 OA
ATOM     54  H11 MOL d           2.040  16.840  41.221  0.00  0.00     0.209 HD
ENDBRANCH  50  53
ENDBRANCH  41  50
ENDBRANCH  32  33
ENDBRANCH  21  32
BRANCH  25  55
ATOM     55  CV6 MOL d           7.845  14.222  40.095  0.00  0.00    -0.050 C 
ATOM     56  H17 MOL d           7.879  13.128  40.208  0.00  0.00     0.031 H 
ATOM     57  H18 MOL d           8.820  14.650  40.372  0.00  0.00     0.031 H 
ATOM     58  H19 MOL d           7.617  14.476  39.050  0.00  0.00     0.031 H 
ENDBRANCH  25  55
ENDBRANCH  14  17
ENDBRANCH   1  14
BRANCH   2  59
ATOM     59  OY2 MOL d           7.070  17.325  41.837  0.00  0.00    -0.391 OA
ATOM     60  H47 MOL d           6.998  18.001  41.173  0.00  0.00     0.210 HD
ENDBRANCH   2  59
BRANCH   3  61
ATOM     61  OY3 MOL d           9.348  18.429  40.515  0.00  0.00    -0.390 OA
ATOM     62  H49 MOL d           8.460  18.765  40.529  0.00  0.00     0.210 HD
ENDBRANCH   3  61
BRANCH   5  63
ATOM     63  CY7 MOL d          12.120  17.266  44.493  0.00  0.00     0.022 C 
ATOM     64  H54 MOL d          11.705  17.819  45.347  0.00  0.00     0.074 H 
ATOM     65  H55 MOL d          12.803  17.919  43.929  0.00  0.00     0.074 H 
BRANCH  63  66
ATOM     66  OY7 MOL d          12.852  16.116  44.979  0.00  0.00    -0.400 OA
ATOM     67  H56 MOL d          12.600  15.347  44.481  0.00  0.00     0.209 HD
ENDBRANCH  63  66
ENDBRANCH   5  63
BRANCH   4  68
ATOM     68  OY4 MOL d          11.937  17.055  41.449  0.00  0.00    -0.350 OA
BRANCH  68  69
ATOM     69  CQ1 MOL d          13.094  17.852  41.335  0.00  0.00     0.159 C 
ATOM     70  CQ2 MOL d          13.214  18.393  39.893  0.00  0.00     0.110 C 
ATOM     71  CQ3 MOL d          13.665  17.296  38.880  0.00  0.00     0.092 C 
ATOM     72  H25 MOL d          13.954  19.207  39.884  0.00  0.00     0.094 H 
ATOM     73  CQ4 MOL d          15.005  16.714  39.335  0.00  0.00     0.096 C 
ATOM     74  H26 MOL d          12.915  16.492  38.836  0.00  0.00     0.091 H 
ATOM     75  CQ5 MOL d          14.718  16.054  40.751  0.00  0.00     0.089 C 
ATOM     76  H27 MOL d          15.767  17.503  39.418  0.00  0.00     0.091 H 
ATOM     77  OQ5 MOL d          14.262  17.065  41.683  0.00  0.00    -0.348 OA
ATOM     78  H28 MOL d          13.935  15.291  40.623  0.00  0.00     0.090 H 
ATOM     79  H24 MOL d          13.016  18.701  42.029  0.00  0.00     0.133 H 
BRANCH  70  80
ATOM     80  OQ2 MOL d          11.957  18.897  39.478  0.00  0.00    -0.388 OA
ATOM     81  H31 MOL d          11.347  18.859  40.205  0.00  0.00     0.210 HD
ENDBRANCH  70  80
BRANCH  71  82
ATOM     82  OQ3 MOL d          13.775  17.921  37.600  0.00  0.00    -0.390 OA
ATOM     83  H32 MOL d          13.070  17.618  37.039  0.00  0.00     0.210 HD
ENDBRANCH  71  82
BRANCH  73  84
ATOM     84  OQ4 MOL d          15.431  15.732  38.434  0.00  0.00    -0.348 OA
BRANCH  84  85
ATOM     85  CW1 MOL d          14.748  14.491  38.668  0.00  0.00     0.159 C 
ATOM     86  CW2 MOL d          15.623  13.254  38.355  0.00  0.00     0.110 C 
ATOM     87  CW3 MOL d          15.955  13.243  36.839  0.00  0.00     0.092 C 
ATOM     88  H35 MOL d          15.078  12.334  38.613  0.00  0.00     0.094 H 
ATOM     89  CW4 MOL d          14.623  13.146  36.076  0.00  0.00     0.090 C 
ATOM     90  H36 MOL d          16.493  14.160  36.557  0.00  0.00     0.091 H 
ATOM     91  CW5 MOL d          13.749  14.413  36.423  0.00  0.00     0.089 C 
ATOM     92  H37 MOL d          14.089  12.231  36.371  0.00  0.00     0.091 H 
ATOM     93  OW5 MOL d          13.519  14.435  37.858  0.00  0.00    -0.348 OA
ATOM     94  H38 MOL d          14.286  15.324  36.117  0.00  0.00     0.090 H 
ATOM     95  H34 MOL d          14.470  14.452  39.732  0.00  0.00     0.133 H 
BRANCH  86  96
ATOM     96  OW2 MOL d          16.792  13.341  39.136  0.00  0.00    -0.388 OA
ATOM     97  H41 MOL d          17.097  12.466  39.345  0.00  0.00     0.210 HD
ENDBRANCH  86  96
BRANCH  87  98
ATOM     98  OW3 MOL d          16.743  12.112  36.550  0.00  0.00    -0.390 OA
ATOM     99  H42 MOL d          16.190  11.426  36.194  0.00  0.00     0.210 HD
ENDBRANCH  87  98
BRANCH  89 100
ATOM    100  OW4 MOL d          14.880  13.123  34.681  0.00  0.00    -0.390 OA
ATOM    101  H43 MOL d          15.476  12.411  34.482  0.00  0.00     0.210 HD
ENDBRANCH  89 100
BRANCH  91 102
ATOM    102  CW6 MOL d          12.389  14.355  35.699  0.00  0.00     0.043 C 
ATOM    103  H39 MOL d          12.028  13.316  35.701  0.00  0.00     0.078 H 
ATOM    104  H40 MOL d          12.523  14.695  34.661  0.00  0.00     0.078 H 
BRANCH 102 105
ATOM    105  OW6 MOL d          11.432  15.169  36.323  0.00  0.00    -0.398 OA
ATOM    106  H44 MOL d          11.326  15.970  35.824  0.00  0.00     0.209 HD
ENDBRANCH 102 105
ENDBRANCH  91 102
ENDBRANCH  84  85
ENDBRANCH  73  84
BRANCH  75 107
ATOM    107  CQ6 MOL d          15.944  15.400  41.379  0.00  0.00     0.043 C 
ATOM    108  H29 MOL d          15.917  14.318  41.180  0.00  0.00     0.078 H 
ATOM    109  H30 MOL d          15.929  15.574  42.465  0.00  0.00     0.078 H 
BRANCH 107 110
ATOM    110  OQ6 MOL d          17.129  15.940  40.841  0.00  0.00    -0.398 OA
ATOM    111  H33 MOL d          17.871  15.653  41.361  0.00  0.00     0.209 HD
ENDBRANCH 107 110
ENDBRANCH  75 107
ENDBRANCH  68  69
ENDBRANCH   4  68
TORSDOF 29
ENDMDL
MODEL 3
REMARK VINA RESULT:      -6.0      2.437      8.892
REMARK  29 active torsions:
REMARK  status: ('A' for Active; 'I' for Inactive)
REMARK    1  A    between atoms: CR1_1  and  OR1_7 
REMARK    2  A    between atoms: CR2_2  and  OR2_8 
REMARK    3  A    between atoms: CR3_3  and  OR3_9 
REMARK    4  A    between atoms: OR4_10  and  CR4_4 
REMARK    5  A    between atoms: CR5_5  and  CR6_6 
REMARK    6  A    between atoms: CR6_6  and  OR6_12 
REMARK    7  A    between atoms: CV1_13  and  OR4_10 
REMARK    8  A    between atoms: CV2_14  and  OV2_19 
REMARK    9  A    between atoms: CV3_15  and  OV3_20 
REMARK   10  A    between atoms: NV4_21  and  CV4_16 
REMARK   11  A    between atoms: CV5_17  and  CV6_18 
REMARK   12  A    between atoms: CY1_45  and  NV4_21 
REMARK   13  A    between atoms: OY4_51  and  CQ1_23 
REMARK   14  A    between atoms: CQ2_24  and  OQ2_29 
REMARK   15  A    between atoms: CQ3_25  and  OQ3_30 
REMARK   16  A    between atoms: CQ4_26  and  OQ4_31 
REMARK   17  A    between atoms: CQ5_27  and  CQ6_28 
REMARK   18  A    between atoms: CQ6_28  and  OQ6_33 
REMARK   19  A    between atoms: OQ4_31  and  CW1_34 
REMARK   20  A    between atoms: CW2_35  and  OW2_40 
REMARK   21  A    between atoms: CW3_36  and  OW3_41 
REMARK   22  A    between atoms: CW4_37  and  OW4_42 
REMARK   23  A    between atoms: CW5_38  and  CW6_39 
REMARK   24  A    between atoms: CW6_39  and  OW6_44 
REMARK   25  A    between atoms: CY2_46  and  OY2_47 
REMARK   26  A    between atoms: CY3_48  and  OY3_49 
REMARK   27  A    between atoms: CY4_50  and  OY4_51 
REMARK   28  A    between atoms: CY5_52  and  CY7_54 
REMARK   29  A    between atoms: CY7_54  and  OY7_55 
ROOT
ATOM      1  CY1 MOL d          14.272  15.220  38.475  0.00  0.00     0.130 C 
ATOM      2  CY2 MOL d          13.896  14.896  36.977  0.00  0.00     0.090 C 
ATOM      3  CY3 MOL d          12.519  15.604  36.602  0.00  0.00     0.087 C 
ATOM      4  CY4 MOL d          11.335  15.154  37.597  0.00  0.00     0.074 C 
ATOM      5  CY5 MOL d          11.792  15.068  39.054  0.00  0.00    -0.004 C 
ATOM      6  CY6 MOL d          13.052  14.636  39.276  0.00  0.00    -0.028 C 
ATOM      7  H45 MOL d          15.187  14.689  38.775  0.00  0.00     0.088 H 
ATOM      8  H46 MOL d          13.776  13.807  36.874  0.00  0.00     0.090 H 
ATOM      9  H48 MOL d          12.658  16.690  36.707  0.00  0.00     0.091 H 
ATOM     10  H50 MOL d          10.939  14.183  37.268  0.00  0.00     0.088 H 
ATOM     11  H51 MOL d          11.767  16.105  39.419  0.00  0.00     0.047 H 
ATOM     12  H52 MOL d          13.261  14.822  40.340  0.00  0.00     0.036 H 
ATOM     13  H53 MOL d          13.047  13.552  39.088  0.00  0.00     0.036 H 
ENDROOT
BRANCH   1  14
ATOM     14  NV4 MOL d          14.536  16.730  38.600  0.00  0.00    -0.059 N 
ATOM     15  H22 MOL d          15.534  16.854  38.540  0.00  0.00     0.278 HD
ATOM     16  H23 MOL d          14.095  17.166  37.806  0.00  0.00     0.278 HD
BRANCH  14  17
ATOM     17  CV4 MOL d          14.089  17.478  39.796  0.00  0.00     0.153 C 
ATOM     18  CV3 MOL d          12.639  17.972  39.591  0.00  0.00     0.094 C 
ATOM     19  CV2 MOL d          12.201  18.745  40.832  0.00  0.00     0.110 C 
ATOM     20  H14 MOL d          11.974  17.110  39.431  0.00  0.00     0.090 H 
ATOM     21  CV1 MOL d          12.287  17.898  42.097  0.00  0.00     0.159 C 
ATOM     22  H13 MOL d          12.879  19.604  40.945  0.00  0.00     0.094 H 
ATOM     23  OV5 MOL d          13.623  17.338  42.217  0.00  0.00    -0.351 OA
ATOM     24  H12 MOL d          12.111  18.565  42.954  0.00  0.00     0.133 H 
ATOM     25  CV5 MOL d          14.083  16.547  41.060  0.00  0.00     0.068 C 
ATOM     26  H16 MOL d          13.396  15.705  40.893  0.00  0.00     0.086 H 
ATOM     27  H15 MOL d          14.759  18.334  39.963  0.00  0.00     0.092 H 
BRANCH  18  28
ATOM     28  OV3 MOL d          12.565  18.840  38.485  0.00  0.00    -0.391 OA
ATOM     29  H21 MOL d          13.431  18.947  38.110  0.00  0.00     0.210 HD
ENDBRANCH  18  28
BRANCH  19  30
ATOM     30  OV2 MOL d          10.884  19.233  40.710  0.00  0.00    -0.388 OA
ATOM     31  H20 MOL d          10.270  18.537  40.910  0.00  0.00     0.210 HD
ENDBRANCH  19  30
BRANCH  21  32
ATOM     32  OR4 MOL d          11.350  16.874  42.164  0.00  0.00    -0.348 OA
BRANCH  32  33
ATOM     33  CR4 MOL d          10.492  16.924  43.303  0.00  0.00     0.096 C 
ATOM     34  CR3 MOL d           9.022  16.982  42.815  0.00  0.00     0.092 C 
ATOM     35  CR2 MOL d           8.100  17.026  44.039  0.00  0.00     0.110 C 
ATOM     36  H3  MOL d           8.798  16.096  42.202  0.00  0.00     0.091 H 
ATOM     37  CR1 MOL d           8.319  15.756  44.907  0.00  0.00     0.156 C 
ATOM     38  H2  MOL d           8.334  17.921  44.634  0.00  0.00     0.094 H 
ATOM     39  OR5 MOL d           9.744  15.667  45.314  0.00  0.00    -0.349 OA
ATOM     40  H1  MOL d           7.699  15.846  45.811  0.00  0.00     0.133 H 
ATOM     41  CR5 MOL d          10.685  15.607  44.190  0.00  0.00     0.089 C 
ATOM     42  H5  MOL d          10.463  14.724  43.572  0.00  0.00     0.090 H 
ATOM     43  H4  MOL d          10.725  17.815  43.904  0.00  0.00     0.091 H 
BRANCH  34  44
ATOM     44  OR3 MOL d           8.805  18.154  42.062  0.00  0.00    -0.390 OA
ATOM     45  H10 MOL d           8.608  17.920  41.163  0.00  0.00     0.210 HD
ENDBRANCH  34  44
BRANCH  35  46
ATOM     46  OR2 MOL d           6.748  17.070  43.640  0.00  0.00    -0.388 OA
ATOM     47  H9  MOL d           6.190  17.013  44.407  0.00  0.00     0.210 HD
ENDBRANCH  35  46
BRANCH  37  48
ATOM     48  OR1 MOL d           7.940  14.572  44.225  0.00  0.00    -0.369 OA
ATOM     49  H8  MOL d           7.128  14.243  44.594  0.00  0.00     0.212 HD
ENDBRANCH  37  48
BRANCH  41  50
ATOM     50  CR6 MOL d          12.024  15.492  44.694  0.00  0.00     0.043 C 
ATOM     51  H6  MOL d          12.635  14.955  43.953  0.00  0.00     0.078 H 
ATOM     52  H7  MOL d          11.998  14.921  45.633  0.00  0.00     0.078 H 
BRANCH  50  53
ATOM     53  OR6 MOL d          12.622  16.758  44.947  0.00  0.00    -0.398 OA
ATOM     54  H11 MOL d          13.164  17.004  44.207  0.00  0.00     0.209 HD
ENDBRANCH  50  53
ENDBRANCH  41  50
ENDBRANCH  32  33
ENDBRANCH  21  32
BRANCH  25  55
ATOM     55  CV6 MOL d          15.480  16.007  41.326  0.00  0.00    -0.050 C 
ATOM     56  H17 MOL d          15.451  15.320  42.185  0.00  0.00     0.031 H 
ATOM     57  H18 MOL d          16.161  16.842  41.547  0.00  0.00     0.031 H 
ATOM     58  H19 MOL d          15.840  15.467  40.437  0.00  0.00     0.031 H 
ENDBRANCH  25  55
ENDBRANCH  14  17
ENDBRANCH   1  14
BRANCH   2  59
ATOM     59  OY2 MOL d          14.894  15.315  36.105  0.00  0.00    -0.391 OA
ATOM     60  H47 MOL d          14.651  16.151  35.725  0.00  0.00     0.210 HD
ENDBRANCH   2  59
BRANCH   3  61
ATOM     61  OY3 MOL d          12.162  15.336  35.273  0.00  0.00    -0.390 OA
ATOM     62  H49 MOL d          11.601  14.570  35.245  0.00  0.00     0.210 HD
ENDBRANCH   3  61
BRANCH   5  63
ATOM     63  CY7 MOL d          10.813  14.264  39.951  0.00  0.00     0.022 C 
ATOM     64  H54 MOL d          11.360  13.864  40.818  0.00  0.00     0.074 H 
ATOM     65  H55 MOL d          10.388  13.432  39.370  0.00  0.00     0.074 H 
BRANCH  63  66
ATOM     66  OY7 MOL d           9.741  15.117  40.417  0.00  0.00    -0.400 OA
ATOM     67  H56 MOL d           9.969  16.026  40.256  0.00  0.00     0.209 HD
ENDBRANCH  63  66
ENDBRANCH   5  63
BRANCH   4  68
ATOM     68  OY4 MOL d          10.310  16.142  37.594  0.00  0.00    -0.350 OA
BRANCH  68  69
ATOM     69  CQ1 MOL d           9.338  15.997  36.583  0.00  0.00     0.159 C 
ATOM     70  CQ2 MOL d           8.230  17.057  36.770  0.00  0.00     0.110 C 
ATOM     71  CQ3 MOL d           7.283  16.724  37.963  0.00  0.00     0.092 C 
ATOM     72  H25 MOL d           7.633  17.106  35.848  0.00  0.00     0.094 H 
ATOM     73  CQ4 MOL d           6.657  15.346  37.737  0.00  0.00     0.096 C 
ATOM     74  H26 MOL d           7.850  16.716  38.905  0.00  0.00     0.091 H 
ATOM     75  CQ5 MOL d           7.877  14.329  37.719  0.00  0.00     0.089 C 
ATOM     76  H27 MOL d           6.108  15.316  36.784  0.00  0.00     0.091 H 
ATOM     77  OQ5 MOL d           8.779  14.659  36.635  0.00  0.00    -0.348 OA
ATOM     78  H28 MOL d           8.408  14.412  38.679  0.00  0.00     0.090 H 
ATOM     79  H24 MOL d           9.814  16.148  35.603  0.00  0.00     0.133 H 
BRANCH  70  80
ATOM     80  OQ2 MOL d           8.827  18.319  37.010  0.00  0.00    -0.388 OA
ATOM     81  H31 MOL d           9.091  18.374  37.921  0.00  0.00     0.210 HD
ENDBRANCH  70  80
BRANCH  71  82
ATOM     82  OQ3 MOL d           6.286  17.748  38.011  0.00  0.00    -0.390 OA
ATOM     83  H32 MOL d           6.101  17.966  38.916  0.00  0.00     0.210 HD
ENDBRANCH  71  82
BRANCH  73  84
ATOM     84  OQ4 MOL d           5.796  15.032  38.794  0.00  0.00    -0.348 OA
BRANCH  84  85
ATOM     85  CW1 MOL d           5.969  15.950  39.886  0.00  0.00     0.159 C 
ATOM     86  CW2 MOL d           6.261  15.239  41.229  0.00  0.00     0.110 C 
ATOM     87  CW3 MOL d           5.028  14.383  41.623  0.00  0.00     0.092 C 
ATOM     88  H35 MOL d           6.450  15.985  42.014  0.00  0.00     0.094 H 
ATOM     89  CW4 MOL d           3.835  15.341  41.787  0.00  0.00     0.090 C 
ATOM     90  H36 MOL d           4.815  13.635  40.845  0.00  0.00     0.091 H 
ATOM     91  CW5 MOL d           3.569  16.057  40.407  0.00  0.00     0.089 C 
ATOM     92  H37 MOL d           4.061  16.089  42.561  0.00  0.00     0.091 H 
ATOM     93  OW5 MOL d           4.768  16.789  40.029  0.00  0.00    -0.348 OA
ATOM     94  H38 MOL d           3.336  15.303  39.641  0.00  0.00     0.090 H 
ATOM     95  H34 MOL d           6.826  16.599  39.650  0.00  0.00     0.133 H 
BRANCH  86  96
ATOM     96  OW2 MOL d           7.407  14.439  41.057  0.00  0.00    -0.388 OA
ATOM     97  H41 MOL d           7.592  14.349  40.129  0.00  0.00     0.210 HD
ENDBRANCH  86  96
BRANCH  87  98
ATOM     98  OW3 MOL d           5.287  13.744  42.851  0.00  0.00    -0.390 OA
ATOM     99  H42 MOL d           4.496  13.316  43.157  0.00  0.00     0.210 HD
ENDBRANCH  87  98
BRANCH  89 100
ATOM    100  OW4 MOL d           2.684  14.600  42.158  0.00  0.00    -0.390 OA
ATOM    101  H43 MOL d           2.583  14.626  43.103  0.00  0.00     0.210 HD
ENDBRANCH  89 100
BRANCH  91 102
ATOM    102  CW6 MOL d           2.394  17.049  40.522  0.00  0.00     0.043 C 
ATOM    103  H39 MOL d           2.773  18.007  40.904  0.00  0.00     0.078 H 
ATOM    104  H40 MOL d           1.651  16.641  41.224  0.00  0.00     0.078 H 
BRANCH 102 105
ATOM    105  OW6 MOL d           1.774  17.267  39.283  0.00  0.00    -0.398 OA
ATOM    106  H44 MOL d           1.671  18.201  39.143  0.00  0.00     0.209 HD
ENDBRANCH 102 105
ENDBRANCH  91 102
ENDBRANCH  84  85
ENDBRANCH  73  84
BRANCH  75 107
ATOM    107  CQ6 MOL d           7.458  12.877  37.513  0.00  0.00     0.043 C 
ATOM    108  H29 MOL d           8.318  12.303  37.138  0.00  0.00     0.078 H 
ATOM    109  H30 MOL d           6.642  12.839  36.775  0.00  0.00     0.078 H 
BRANCH 107 110
ATOM    110  OQ6 MOL d           7.013  12.308  38.723  0.00  0.00    -0.398 OA
ATOM    111  H33 MOL d           7.541  11.544  38.925  0.00  0.00     0.209 HD
ENDBRANCH 107 110
ENDBRANCH  75 107
ENDBRANCH  68  69
ENDBRANCH   4  68
TORSDOF 29
ENDMDL
