MODEL 1
REMARK VINA RESULT:      -9.0      0.000      0.000
REMARK  10 active torsions:
REMARK  status: ('A' for Active; 'I' for Inactive)
REMARK    1  A    between atoms: C2_2  and  C6_6 
REMARK    2  A    between atoms: C3_3  and  O20_16 
REMARK    3  A    between atoms: C5_5  and  C9_9 
REMARK    4  A    between atoms: C11_11  and  N29_21 
REMARK    5  A    between atoms: O20_16  and  C21_17 
REMARK    6  A    between atoms: C21_17  and  C22_18 
REMARK    7  A    between atoms: N29_21  and  C30_22 
REMARK    8  A    between atoms: N33_25  and  S46_28 
REMARK    9  A    between atoms: S46_28  and  C49_31 
REMARK   10  A    between atoms: C49_31  and  C50_32 
ROOT
ATOM      1  C30 MOL d          48.943   8.175   1.978  0.00  0.00     0.012 C 
ATOM      2  C31 MOL d          50.214   7.573   1.376  0.00  0.00    -0.031 C 
ATOM      3  C32 MOL d          50.691   6.335   2.101  0.00  0.00     0.007 C 
ATOM      4  N33 MOL d          50.728   6.655   3.529  0.00  0.00    -0.310 N 
ATOM      5  C34 MOL d          49.545   7.171   4.223  0.00  0.00     0.007 C 
ATOM      6  C35 MOL d          49.065   8.393   3.484  0.00  0.00    -0.031 C 
ATOM      7  H8  MOL d          48.103   7.490   1.792  0.00  0.00     0.072 H 
ATOM      8  H9  MOL d          51.011   8.330   1.415  0.00  0.00     0.038 H 
ATOM      9  H10 MOL d          50.012   7.308   0.328  0.00  0.00     0.038 H 
ATOM     10  H11 MOL d          51.696   6.059   1.751  0.00  0.00     0.065 H 
ATOM     11  H12 MOL d          49.997   5.502   1.919  0.00  0.00     0.065 H 
ATOM     12  H13 MOL d          49.808   7.439   5.257  0.00  0.00     0.065 H 
ATOM     13  H14 MOL d          48.755   6.406   4.232  0.00  0.00     0.065 H 
ATOM     14  H15 MOL d          48.077   8.673   3.878  0.00  0.00     0.038 H 
ATOM     15  H16 MOL d          49.777   9.211   3.663  0.00  0.00     0.038 H 
ENDROOT
BRANCH   1  16
ATOM     16  N29 MOL d          48.692   9.420   1.319  0.00  0.00    -0.385 N 
ATOM     17  H7  MOL d          49.494   9.987   1.010  0.00  0.00     0.160 HD
BRANCH  16  18
ATOM     18  C11 MOL d          47.436   9.886   1.084  0.00  0.00     0.029 A 
ATOM     19  C10 MOL d          47.264  11.271   1.402  0.00  0.00    -0.046 A 
ATOM     20  C9  MOL d          45.958  11.878   1.202  0.00  0.00    -0.015 A 
ATOM     21  H1  MOL d          48.092  11.856   1.785  0.00  0.00     0.088 H 
ATOM     22  C14 MOL d          44.859  11.099   0.643  0.00  0.00    -0.072 A 
ATOM     23  C13 MOL d          45.014   9.707   0.333  0.00  0.00    -0.080 A 
ATOM     24  H4  MOL d          43.907  11.582   0.458  0.00  0.00     0.084 H 
ATOM     25  C12 MOL d          46.319   9.108   0.551  0.00  0.00    -0.058 A 
ATOM     26  H3  MOL d          44.185   9.122  -0.050  0.00  0.00     0.083 H 
ATOM     27  H2  MOL d          46.468   8.061   0.312  0.00  0.00     0.086 H 
BRANCH  20  28
ATOM     28  C5  MOL d          45.681  13.280   1.575  0.00  0.00     0.036 A 
ATOM     29  S1  MOL d          44.531  14.261   0.589  0.00  0.00    -0.078 SA
ATOM     30  C2  MOL d          44.711  15.686   1.656  0.00  0.00     0.117 A 
ATOM     31  C3  MOL d          45.555  15.417   2.637  0.00  0.00     0.112 A 
ATOM     32  C4  MOL d          46.070  14.039   2.612  0.00  0.00     0.064 A 
ATOM     33 BR19 MOL d          47.077  13.468   4.070  0.00  0.00    -0.047 Br
BRANCH  30  34
ATOM     34  C6  MOL d          44.079  16.936   1.294  0.00  0.00     0.219 C 
ATOM     35  O7  MOL d          43.527  16.874   0.175  0.00  0.00    -0.643 OA
ATOM     36  O8  MOL d          44.090  17.962   2.010  0.00  0.00    -0.643 OA
ENDBRANCH  30  34
BRANCH  31  37
ATOM     37  O20 MOL d          45.812  16.313   3.579  0.00  0.00    -0.338 OA
BRANCH  37  38
ATOM     38  C21 MOL d          46.993  17.069   3.406  0.00  0.00     0.106 C 
ATOM     39  H5  MOL d          46.817  17.896   2.702  0.00  0.00     0.091 H 
ATOM     40  H6  MOL d          47.803  16.431   3.025  0.00  0.00     0.091 H 
BRANCH  38  41
ATOM     41  C22 MOL d          47.336  17.590   4.729  0.00  0.00     0.198 C 
ATOM     42  O25 MOL d          48.549  17.773   4.938  0.00  0.00    -0.646 OA
ATOM     43  O26 MOL d          46.432  17.824   5.563  0.00  0.00    -0.646 OA
ENDBRANCH  38  41
ENDBRANCH  37  38
ENDBRANCH  31  37
ENDBRANCH  20  28
ENDBRANCH  16  18
ENDBRANCH   1  16
BRANCH   4  44
ATOM     44  S46 MOL d          51.876   5.875   4.524  0.00  0.00     0.232 S 
ATOM     45  O47 MOL d          52.623   6.935   5.161  0.00  0.00    -0.205 OA
ATOM     46  O48 MOL d          52.562   4.920   3.673  0.00  0.00    -0.205 OA
BRANCH  44  47
ATOM     47  C49 MOL d          50.817   5.137   5.787  0.00  0.00     0.070 C 
ATOM     48  H17 MOL d          49.771   5.428   5.609  0.00  0.00     0.066 H 
ATOM     49  H18 MOL d          51.130   5.485   6.782  0.00  0.00     0.066 H 
BRANCH  47  50
ATOM     50  C50 MOL d          50.945   3.645   5.712  0.00  0.00    -0.043 A 
ATOM     51  C53 MOL d          50.090   2.972   4.754  0.00  0.00    -0.076 A 
ATOM     52  C54 MOL d          50.277   1.547   4.584  0.00  0.00    -0.082 A 
ATOM     53  H19 MOL d          49.342   3.514   4.187  0.00  0.00     0.084 H 
ATOM     54  C55 MOL d          51.267   0.843   5.396  0.00  0.00    -0.083 A 
ATOM     55  H20 MOL d          49.684   1.003   3.857  0.00  0.00     0.083 H 
ATOM     56  C56 MOL d          52.124   1.534   6.342  0.00  0.00    -0.082 A 
ATOM     57  H21 MOL d          51.365  -0.231   5.288  0.00  0.00     0.083 H 
ATOM     58  C57 MOL d          51.963   2.967   6.520  0.00  0.00    -0.076 A 
ATOM     59  H22 MOL d          52.872   0.990   6.907  0.00  0.00     0.083 H 
ATOM     60  H23 MOL d          52.575   3.516   7.226  0.00  0.00     0.084 H 
ENDBRANCH  47  50
ENDBRANCH  44  47
ENDBRANCH   4  44
TORSDOF 10
ENDMDL
MODEL 2
REMARK VINA RESULT:      -6.8      3.310     11.804
REMARK  10 active torsions:
REMARK  status: ('A' for Active; 'I' for Inactive)
REMARK    1  A    between atoms: C2_2  and  C6_6 
REMARK    2  A    between atoms: C3_3  and  O20_16 
REMARK    3  A    between atoms: C5_5  and  C9_9 
REMARK    4  A    between atoms: C11_11  and  N29_21 
REMARK    5  A    between atoms: O20_16  and  C21_17 
REMARK    6  A    between atoms: C21_17  and  C22_18 
REMARK    7  A    between atoms: N29_21  and  C30_22 
REMARK    8  A    between atoms: N33_25  and  S46_28 
REMARK    9  A    between atoms: S46_28  and  C49_31 
REMARK   10  A    between atoms: C49_31  and  C50_32 
ROOT
ATOM      1  C30 MOL d          48.760   9.335   0.568  0.00  0.00     0.012 C 
ATOM      2  C31 MOL d          48.285   9.715   1.971  0.00  0.00    -0.031 C 
ATOM      3  C32 MOL d          46.877  10.265   1.998  0.00  0.00     0.007 C 
ATOM      4  N33 MOL d          46.797  11.306   0.973  0.00  0.00    -0.310 N 
ATOM      5  C34 MOL d          47.161  11.031  -0.420  0.00  0.00     0.007 C 
ATOM      6  C35 MOL d          48.557  10.467  -0.437  0.00  0.00    -0.031 C 
ATOM      7  H8  MOL d          48.190   8.459   0.225  0.00  0.00     0.072 H 
ATOM      8  H9  MOL d          48.965  10.479   2.375  0.00  0.00     0.038 H 
ATOM      9  H10 MOL d          48.322   8.818   2.607  0.00  0.00     0.038 H 
ATOM     10  H11 MOL d          46.659  10.693   2.987  0.00  0.00     0.065 H 
ATOM     11  H12 MOL d          46.156   9.464   1.778  0.00  0.00     0.065 H 
ATOM     12  H13 MOL d          47.128  11.963  -1.004  0.00  0.00     0.065 H 
ATOM     13  H14 MOL d          46.459  10.303  -0.851  0.00  0.00     0.065 H 
ATOM     14  H15 MOL d          48.766  10.082  -1.445  0.00  0.00     0.038 H 
ATOM     15  H16 MOL d          49.264  11.275  -0.200  0.00  0.00     0.038 H 
ENDROOT
BRANCH   1  16
ATOM     16  N29 MOL d          50.147   8.993   0.651  0.00  0.00    -0.385 N 
ATOM     17  H7  MOL d          50.820   9.721   0.928  0.00  0.00     0.160 HD
BRANCH  16  18
ATOM     18  C11 MOL d          50.612   7.744   0.379  0.00  0.00     0.029 A 
ATOM     19  C10 MOL d          50.453   6.820   1.460  0.00  0.00    -0.046 A 
ATOM     20  C9  MOL d          50.923   5.455   1.289  0.00  0.00    -0.015 A 
ATOM     21  H1  MOL d          49.990   7.132   2.389  0.00  0.00     0.088 H 
ATOM     22  C14 MOL d          51.503   5.026   0.022  0.00  0.00    -0.072 A 
ATOM     23  C13 MOL d          51.682   5.946  -1.065  0.00  0.00    -0.080 A 
ATOM     24  H4  MOL d          51.805   3.993  -0.102  0.00  0.00     0.084 H 
ATOM     25  C12 MOL d          51.221   7.310  -0.877  0.00  0.00    -0.058 A 
ATOM     26  H3  MOL d          52.145   5.633  -1.994  0.00  0.00     0.083 H 
ATOM     27  H2  MOL d          51.331   8.023  -1.687  0.00  0.00     0.086 H 
BRANCH  20  28
ATOM     28  C5  MOL d          50.862   4.463   2.382  0.00  0.00     0.036 A 
ATOM     29  S1  MOL d          49.350   3.515   2.650  0.00  0.00    -0.078 SA
ATOM     30  C2  MOL d          50.075   2.594   4.002  0.00  0.00     0.117 A 
ATOM     31  C3  MOL d          51.322   2.986   4.203  0.00  0.00     0.112 A 
ATOM     32  C4  MOL d          51.777   4.015   3.256  0.00  0.00     0.064 A 
ATOM     33 BR19 MOL d          53.581   4.476   3.285  0.00  0.00    -0.047 Br
BRANCH  30  34
ATOM     34  C6  MOL d          49.254   1.686   4.772  0.00  0.00     0.219 C 
ATOM     35  O7  MOL d          49.018   2.126   5.918  0.00  0.00    -0.643 OA
ATOM     36  O8  MOL d          48.836   0.585   4.350  0.00  0.00    -0.643 OA
ENDBRANCH  30  34
BRANCH  31  37
ATOM     37  O20 MOL d          52.075   2.411   5.130  0.00  0.00    -0.338 OA
BRANCH  37  38
ATOM     38  C21 MOL d          51.816   2.800   6.464  0.00  0.00     0.106 C 
ATOM     39  H5  MOL d          52.362   2.150   7.163  0.00  0.00     0.091 H 
ATOM     40  H6  MOL d          50.739   2.743   6.676  0.00  0.00     0.091 H 
BRANCH  38  41
ATOM     41  C22 MOL d          52.285   4.181   6.580  0.00  0.00     0.198 C 
ATOM     42  O25 MOL d          53.519   4.336   6.539  0.00  0.00    -0.646 OA
ATOM     43  O26 MOL d          51.459   5.113   6.709  0.00  0.00    -0.646 OA
ENDBRANCH  38  41
ENDBRANCH  37  38
ENDBRANCH  31  37
ENDBRANCH  20  28
ENDBRANCH  16  18
ENDBRANCH   1  16
BRANCH   4  44
ATOM     44  S46 MOL d          45.726  12.616   1.203  0.00  0.00     0.232 S 
ATOM     45  O47 MOL d          44.447  12.023   1.519  0.00  0.00    -0.205 OA
ATOM     46  O48 MOL d          45.860  13.456   0.026  0.00  0.00    -0.205 OA
BRANCH  44  47
ATOM     47  C49 MOL d          46.368  13.344   2.727  0.00  0.00     0.070 C 
ATOM     48  H17 MOL d          47.461  13.226   2.761  0.00  0.00     0.066 H 
ATOM     49  H18 MOL d          45.917  12.841   3.595  0.00  0.00     0.066 H 
BRANCH  47  50
ATOM     50  C50 MOL d          46.016  14.801   2.750  0.00  0.00    -0.043 A 
ATOM     51  C53 MOL d          47.075  15.714   3.133  0.00  0.00    -0.076 A 
ATOM     52  C54 MOL d          46.792  17.131   3.054  0.00  0.00    -0.082 A 
ATOM     53  H19 MOL d          48.040  15.350   3.465  0.00  0.00     0.084 H 
ATOM     54  C55 MOL d          45.464  17.583   2.642  0.00  0.00    -0.083 A 
ATOM     55  H20 MOL d          47.560  17.855   3.300  0.00  0.00     0.083 H 
ATOM     56  C56 MOL d          44.419  16.656   2.249  0.00  0.00    -0.082 A 
ATOM     57  H21 MOL d          45.254  18.646   2.629  0.00  0.00     0.083 H 
ATOM     58  C57 MOL d          44.685  15.229   2.309  0.00  0.00    -0.076 A 
ATOM     59  H22 MOL d          43.455  17.023   1.917  0.00  0.00     0.083 H 
ATOM     60  H23 MOL d          43.926  14.505   2.036  0.00  0.00     0.084 H 
ENDBRANCH  47  50
ENDBRANCH  44  47
ENDBRANCH   4  44
TORSDOF 10
ENDMDL
MODEL 3
REMARK VINA RESULT:      -6.7      3.175     12.189
REMARK  10 active torsions:
REMARK  status: ('A' for Active; 'I' for Inactive)
REMARK    1  A    between atoms: C2_2  and  C6_6 
REMARK    2  A    between atoms: C3_3  and  O20_16 
REMARK    3  A    between atoms: C5_5  and  C9_9 
REMARK    4  A    between atoms: C11_11  and  N29_21 
REMARK    5  A    between atoms: O20_16  and  C21_17 
REMARK    6  A    between atoms: C21_17  and  C22_18 
REMARK    7  A    between atoms: N29_21  and  C30_22 
REMARK    8  A    between atoms: N33_25  and  S46_28 
REMARK    9  A    between atoms: S46_28  and  C49_31 
REMARK   10  A    between atoms: C49_31  and  C50_32 
ROOT
ATOM      1  C30 MOL d          48.667   9.552   0.273  0.00  0.00     0.012 C 
ATOM      2  C31 MOL d          48.195   9.842   1.698  0.00  0.00    -0.031 C 
ATOM      3  C32 MOL d          46.785  10.381   1.765  0.00  0.00     0.007 C 
ATOM      4  N33 MOL d          46.695  11.483   0.807  0.00  0.00    -0.310 N 
ATOM      5  C34 MOL d          47.053  11.296  -0.602  0.00  0.00     0.007 C 
ATOM      6  C35 MOL d          48.453  10.742  -0.659  0.00  0.00    -0.031 C 
ATOM      7  H8  MOL d          48.100   8.695  -0.121  0.00  0.00     0.072 H 
ATOM      8  H9  MOL d          48.874  10.583   2.146  0.00  0.00     0.038 H 
ATOM      9  H10 MOL d          48.241   8.908   2.278  0.00  0.00     0.038 H 
ATOM     10  H11 MOL d          46.570  10.746   2.780  0.00  0.00     0.065 H 
ATOM     11  H12 MOL d          46.068   9.591   1.500  0.00  0.00     0.065 H 
ATOM     12  H13 MOL d          47.013  12.262  -1.128  0.00  0.00     0.065 H 
ATOM     13  H14 MOL d          46.353  10.592  -1.074  0.00  0.00     0.065 H 
ATOM     14  H15 MOL d          48.659  10.421  -1.690  0.00  0.00     0.038 H 
ATOM     15  H16 MOL d          49.156  11.538  -0.376  0.00  0.00     0.038 H 
ENDROOT
BRANCH   1  16
ATOM     16  N29 MOL d          50.056   9.213   0.329  0.00  0.00    -0.385 N 
ATOM     17  H7  MOL d          50.744   9.967   0.463  0.00  0.00     0.160 HD
BRANCH  16  18
ATOM     18  C11 MOL d          50.505   7.934   0.212  0.00  0.00     0.029 A 
ATOM     19  C10 MOL d          50.478   7.199   1.440  0.00  0.00    -0.046 A 
ATOM     20  C9  MOL d          50.946   5.822   1.441  0.00  0.00    -0.015 A 
ATOM     21  H1  MOL d          50.118   7.660   2.352  0.00  0.00     0.088 H 
ATOM     22  C14 MOL d          51.387   5.191   0.202  0.00  0.00    -0.072 A 
ATOM     23  C13 MOL d          51.431   5.920  -1.032  0.00  0.00    -0.080 A 
ATOM     24  H4  MOL d          51.687   4.149   0.214  0.00  0.00     0.084 H 
ATOM     25  C12 MOL d          50.976   7.300  -1.017  0.00  0.00    -0.058 A 
ATOM     26  H3  MOL d          51.793   5.459  -1.944  0.00  0.00     0.083 H 
ATOM     27  H2  MOL d          50.986   7.871  -1.939  0.00  0.00     0.086 H 
BRANCH  20  28
ATOM     28  C5  MOL d          51.019   5.020   2.679  0.00  0.00     0.036 A 
ATOM     29  S1  MOL d          52.347   5.320   3.865  0.00  0.00    -0.078 SA
ATOM     30  C2  MOL d          51.724   4.079   4.992  0.00  0.00     0.117 A 
ATOM     31  C3  MOL d          50.635   3.518   4.496  0.00  0.00     0.112 A 
ATOM     32  C4  MOL d          50.215   4.084   3.205  0.00  0.00     0.064 A 
ATOM     33 BR19 MOL d          48.569   3.544   2.521  0.00  0.00    -0.047 Br
BRANCH  30  34
ATOM     34  C6  MOL d          52.487   3.737   6.174  0.00  0.00     0.219 C 
ATOM     35  O7  MOL d          52.205   4.475   7.142  0.00  0.00    -0.643 OA
ATOM     36  O8  MOL d          53.336   2.820   6.221  0.00  0.00    -0.643 OA
ENDBRANCH  30  34
BRANCH  31  37
ATOM     37  O20 MOL d          49.972   2.596   5.180  0.00  0.00    -0.338 OA
BRANCH  37  38
ATOM     38  C21 MOL d          50.638   1.362   5.358  0.00  0.00     0.106 C 
ATOM     39  H5  MOL d          50.312   0.884   6.294  0.00  0.00     0.091 H 
ATOM     40  H6  MOL d          51.727   1.516   5.386  0.00  0.00     0.091 H 
BRANCH  38  41
ATOM     41  C22 MOL d          50.270   0.536   4.209  0.00  0.00     0.198 C 
ATOM     42  O25 MOL d          49.070   0.215   4.137  0.00  0.00    -0.646 OA
ATOM     43  O26 MOL d          51.143   0.199   3.376  0.00  0.00    -0.646 OA
ENDBRANCH  38  41
ENDBRANCH  37  38
ENDBRANCH  31  37
ENDBRANCH  20  28
ENDBRANCH  16  18
ENDBRANCH   1  16
BRANCH   4  44
ATOM     44  S46 MOL d          45.617  12.770   1.121  0.00  0.00     0.232 S 
ATOM     45  O47 MOL d          44.437  12.160   1.689  0.00  0.00    -0.205 OA
ATOM     46  O48 MOL d          45.517  13.521  -0.116  0.00  0.00    -0.205 OA
BRANCH  44  47
ATOM     47  C49 MOL d          46.468  13.633   2.461  0.00  0.00     0.070 C 
ATOM     48  H17 MOL d          47.550  13.652   2.262  0.00  0.00     0.066 H 
ATOM     49  H18 MOL d          46.280  13.115   3.413  0.00  0.00     0.066 H 
BRANCH  47  50
ATOM     50  C50 MOL d          45.945  15.036   2.540  0.00  0.00    -0.043 A 
ATOM     51  C53 MOL d          46.858  16.037   3.056  0.00  0.00    -0.076 A 
ATOM     52  C54 MOL d          46.414  17.414   3.035  0.00  0.00    -0.082 A 
ATOM     53  H19 MOL d          47.833  15.765   3.441  0.00  0.00     0.084 H 
ATOM     54  C55 MOL d          45.075  17.738   2.546  0.00  0.00    -0.083 A 
ATOM     55  H20 MOL d          47.072  18.203   3.381  0.00  0.00     0.083 H 
ATOM     56  C56 MOL d          44.178  16.725   2.020  0.00  0.00    -0.082 A 
ATOM     57  H21 MOL d          44.742  18.768   2.577  0.00  0.00     0.083 H 
ATOM     58  C57 MOL d          44.608  15.337   2.020  0.00  0.00    -0.076 A 
ATOM     59  H22 MOL d          43.204  17.000   1.634  0.00  0.00     0.083 H 
ATOM     60  H23 MOL d          43.961  14.550   1.648  0.00  0.00     0.084 H 
ENDBRANCH  47  50
ENDBRANCH  44  47
ENDBRANCH   4  44
TORSDOF 10
ENDMDL
MODEL 4
REMARK VINA RESULT:      -6.0      1.939      2.884
REMARK  10 active torsions:
REMARK  status: ('A' for Active; 'I' for Inactive)
REMARK    1  A    between atoms: C2_2  and  C6_6 
REMARK    2  A    between atoms: C3_3  and  O20_16 
REMARK    3  A    between atoms: C5_5  and  C9_9 
REMARK    4  A    between atoms: C11_11  and  N29_21 
REMARK    5  A    between atoms: O20_16  and  C21_17 
REMARK    6  A    between atoms: C21_17  and  C22_18 
REMARK    7  A    between atoms: N29_21  and  C30_22 
REMARK    8  A    between atoms: N33_25  and  S46_28 
REMARK    9  A    between atoms: S46_28  and  C49_31 
REMARK   10  A    between atoms: C49_31  and  C50_32 
ROOT
ATOM      1  C30 MOL d          49.026   7.158   2.281  0.00  0.00     0.012 C 
ATOM      2  C31 MOL d          50.445   7.539   1.857  0.00  0.00    -0.031 C 
ATOM      3  C32 MOL d          51.325   6.344   1.572  0.00  0.00     0.007 C 
ATOM      4  N33 MOL d          51.203   5.433   2.711  0.00  0.00    -0.310 N 
ATOM      5  C34 MOL d          49.895   4.948   3.158  0.00  0.00     0.007 C 
ATOM      6  C35 MOL d          49.017   6.144   3.422  0.00  0.00    -0.031 C 
ATOM      7  H8  MOL d          48.504   6.717   1.419  0.00  0.00     0.072 H 
ATOM      8  H9  MOL d          50.904   8.127   2.664  0.00  0.00     0.038 H 
ATOM      9  H10 MOL d          50.384   8.153   0.946  0.00  0.00     0.038 H 
ATOM     10  H11 MOL d          52.371   6.666   1.459  0.00  0.00     0.065 H 
ATOM     11  H12 MOL d          50.994   5.843   0.651  0.00  0.00     0.065 H 
ATOM     12  H13 MOL d          50.010   4.360   4.081  0.00  0.00     0.065 H 
ATOM     13  H14 MOL d          49.443   4.319   2.377  0.00  0.00     0.065 H 
ATOM     14  H15 MOL d          47.985   5.793   3.571  0.00  0.00     0.038 H 
ATOM     15  H16 MOL d          49.371   6.642   4.336  0.00  0.00     0.038 H 
ENDROOT
BRANCH   1  16
ATOM     16  N29 MOL d          48.350   8.355   2.681  0.00  0.00    -0.385 N 
ATOM     17  H7  MOL d          47.959   8.407   3.632  0.00  0.00     0.160 HD
BRANCH  16  18
ATOM     18  C11 MOL d          48.203   9.425   1.855  0.00  0.00     0.029 A 
ATOM     19  C10 MOL d          47.502  10.522   2.451  0.00  0.00    -0.046 A 
ATOM     20  C9  MOL d          47.275  11.721   1.659  0.00  0.00    -0.015 A 
ATOM     21  H1  MOL d          47.147  10.461   3.473  0.00  0.00     0.088 H 
ATOM     22  C14 MOL d          47.795  11.817   0.300  0.00  0.00    -0.072 A 
ATOM     23  C13 MOL d          48.487  10.720  -0.314  0.00  0.00    -0.080 A 
ATOM     24  H4  MOL d          47.656  12.736  -0.258  0.00  0.00     0.084 H 
ATOM     25  C12 MOL d          48.695   9.523   0.482  0.00  0.00    -0.058 A 
ATOM     26  H3  MOL d          48.842  10.782  -1.337  0.00  0.00     0.083 H 
ATOM     27  H2  MOL d          49.227   8.684   0.048  0.00  0.00     0.086 H 
BRANCH  20  28
ATOM     28  C5  MOL d          46.497  12.865   2.175  0.00  0.00     0.036 A 
ATOM     29  S1  MOL d          47.047  13.727   3.662  0.00  0.00    -0.078 SA
ATOM     30  C2  MOL d          45.700  14.900   3.573  0.00  0.00     0.117 A 
ATOM     31  C3  MOL d          44.937  14.640   2.526  0.00  0.00     0.112 A 
ATOM     32  C4  MOL d          45.416  13.512   1.712  0.00  0.00     0.064 A 
ATOM     33 BR19 MOL d          44.565  13.199   0.086  0.00  0.00    -0.047 Br
BRANCH  30  34
ATOM     34  C6  MOL d          45.510  15.854   4.644  0.00  0.00     0.219 C 
ATOM     35  O7  MOL d          46.591  16.354   5.023  0.00  0.00    -0.643 OA
ATOM     36  O8  MOL d          44.398  16.140   5.142  0.00  0.00    -0.643 OA
ENDBRANCH  30  34
BRANCH  31  37
ATOM     37  O20 MOL d          43.898  15.409   2.233  0.00  0.00    -0.338 OA
BRANCH  37  38
ATOM     38  C21 MOL d          43.811  15.844   0.892  0.00  0.00     0.106 C 
ATOM     39  H5  MOL d          42.781  15.737   0.521  0.00  0.00     0.091 H 
ATOM     40  H6  MOL d          44.492  15.260   0.255  0.00  0.00     0.091 H 
BRANCH  38  41
ATOM     41  C22 MOL d          44.205  17.253   0.898  0.00  0.00     0.198 C 
ATOM     42  O25 MOL d          44.569  17.716  -0.199  0.00  0.00    -0.646 OA
ATOM     43  O26 MOL d          44.161  17.911   1.963  0.00  0.00    -0.646 OA
ENDBRANCH  38  41
ENDBRANCH  37  38
ENDBRANCH  31  37
ENDBRANCH  20  28
ENDBRANCH  16  18
ENDBRANCH   1  16
BRANCH   4  44
ATOM     44  S46 MOL d          52.530   4.442   3.128  0.00  0.00     0.232 S 
ATOM     45  O47 MOL d          53.686   5.068   2.528  0.00  0.00    -0.205 OA
ATOM     46  O48 MOL d          52.160   3.092   2.744  0.00  0.00    -0.205 OA
BRANCH  44  47
ATOM     47  C49 MOL d          52.640   4.717   4.910  0.00  0.00     0.070 C 
ATOM     48  H17 MOL d          51.994   5.561   5.195  0.00  0.00     0.066 H 
ATOM     49  H18 MOL d          53.680   4.942   5.186  0.00  0.00     0.066 H 
BRANCH  47  50
ATOM     50  C50 MOL d          52.187   3.475   5.618  0.00  0.00    -0.043 A 
ATOM     51  C53 MOL d          50.802   3.444   6.044  0.00  0.00    -0.076 A 
ATOM     52  C54 MOL d          50.314   2.213   6.628  0.00  0.00    -0.082 A 
ATOM     53  H19 MOL d          50.158   4.308   5.930  0.00  0.00     0.084 H 
ATOM     54  C55 MOL d          51.225   1.083   6.804  0.00  0.00    -0.083 A 
ATOM     55  H20 MOL d          49.278   2.129   6.934  0.00  0.00     0.083 H 
ATOM     56  C56 MOL d          52.606   1.126   6.360  0.00  0.00    -0.082 A 
ATOM     57  H21 MOL d          50.855   0.183   7.282  0.00  0.00     0.083 H 
ATOM     58  C57 MOL d          53.114   2.348   5.759  0.00  0.00    -0.076 A 
ATOM     59  H22 MOL d          53.248   0.261   6.475  0.00  0.00     0.083 H 
ATOM     60  H23 MOL d          54.143   2.424   5.427  0.00  0.00     0.084 H 
ENDBRANCH  47  50
ENDBRANCH  44  47
ENDBRANCH   4  44
TORSDOF 10
ENDMDL
