MODEL 1
REMARK VINA RESULT:      -7.2      0.000      0.000
REMARK  6 active torsions:
REMARK  status: ('A' for Active; 'I' for Inactive)
REMARK    1  A    between atoms: N1_2  and  C1_1 
REMARK    2  A    between atoms: C2_3  and  O2_5 
REMARK    3  A    between atoms: C9_17  and  N3_8 
REMARK    4  A    between atoms: C4_9  and  O4_10 
REMARK    5  A    between atoms: C5_11  and  C6_13 
REMARK    6  A    between atoms: C6_13  and  O6_14 
ROOT
ATOM      1  C1  DKZ d          33.315  23.026  28.054  0.00  0.00     0.141 C 
ATOM      2  C2  DKZ d          33.704  23.175  26.571  0.00  0.00     0.110 C 
ATOM      3  C3  DKZ d          32.716  22.373  25.693  0.00  0.00     0.134 C 
ATOM      4  F3  DKZ d          33.180  22.300  24.401  0.00  0.00    -0.244 F 
ATOM      5  C4  DKZ d          32.495  20.938  26.229  0.00  0.00     0.094 C 
ATOM      6  C5  DKZ d          32.310  20.865  27.763  0.00  0.00     0.088 C 
ATOM      7  O5  DKZ d          33.354  21.612  28.438  0.00  0.00    -0.353 OA
ATOM      8  H1  DKZ d          32.302  23.437  28.177  0.00  0.00     0.123 H 
ATOM      9  H2  DKZ d          34.709  22.750  26.432  0.00  0.00     0.094 H 
ATOM     10  H5  DKZ d          31.749  22.899  25.694  0.00  0.00     0.100 H 
ATOM     11  H7  DKZ d          33.372  20.331  25.961  0.00  0.00     0.091 H 
ATOM     12  H9  DKZ d          31.331  21.298  28.017  0.00  0.00     0.090 H 
ENDROOT
BRANCH   1  13
ATOM     13  N1  DKZ d          34.213  23.636  29.062  0.00  0.00    -0.280 N 
ATOM     14  C7  DKZ d          35.617  23.470  29.010  0.00  0.00    -0.009 A 
ATOM     15  C8  DKZ d          36.405  24.053  30.002  0.00  0.00    -0.024 A 
ATOM     16  H13 DKZ d          36.076  22.894  28.207  0.00  0.00     0.112 H 
ATOM     17  C9  DKZ d          35.759  24.766  31.023  0.00  0.00     0.125 A 
ATOM     18  H14 DKZ d          37.489  23.958  29.985  0.00  0.00     0.091 H 
ATOM     19  N2  DKZ d          34.413  24.900  31.056  0.00  0.00    -0.293 N 
ATOM     20  C10 DKZ d          33.626  24.345  30.112  0.00  0.00     0.330 A 
ATOM     21  H3  DKZ d          33.992  25.424  31.797  0.00  0.00     0.172 HD
ATOM     22  O10 DKZ d          32.394  24.471  30.149  0.00  0.00    -0.246 OA
BRANCH  17  23
ATOM     23  N3  DKZ d          36.474  25.323  31.997  0.00  0.00    -0.284 NA
ATOM     24  H6  DKZ d          36.032  25.950  32.651  0.00  0.00     0.188 HD
ENDBRANCH  17  23
ENDBRANCH   1  13
BRANCH   2  25
ATOM     25  O2  DKZ d          33.753  24.571  26.185  0.00  0.00    -0.388 OA
ATOM     26  H4  DKZ d          32.869  24.890  26.045  0.00  0.00     0.210 HD
ENDBRANCH   2  25
BRANCH   6  27
ATOM     27  C6  DKZ d          32.369  19.415  28.281  0.00  0.00     0.043 C 
ATOM     28  H10 DKZ d          32.502  19.419  29.373  0.00  0.00     0.078 H 
ATOM     29  H11 DKZ d          33.213  18.889  27.811  0.00  0.00     0.078 H 
BRANCH  27  30
ATOM     30  O6  DKZ d          31.142  18.748  27.948  0.00  0.00    -0.398 OA
ATOM     31  H12 DKZ d          30.723  19.200  27.225  0.00  0.00     0.209 HD
ENDBRANCH  27  30
ENDBRANCH   6  27
BRANCH   5  32
ATOM     32  O4  DKZ d          31.340  20.396  25.597  0.00  0.00    -0.390 OA
ATOM     33  H8  DKZ d          31.605  19.869  24.852  0.00  0.00     0.210 HD
ENDBRANCH   5  32
TORSDOF 6
ENDMDL
MODEL 2
REMARK VINA RESULT:      -6.1      3.174      5.947
REMARK  6 active torsions:
REMARK  status: ('A' for Active; 'I' for Inactive)
REMARK    1  A    between atoms: N1_2  and  C1_1 
REMARK    2  A    between atoms: C2_3  and  O2_5 
REMARK    3  A    between atoms: C9_17  and  N3_8 
REMARK    4  A    between atoms: C4_9  and  O4_10 
REMARK    5  A    between atoms: C5_11  and  C6_13 
REMARK    6  A    between atoms: C6_13  and  O6_14 
ROOT
ATOM      1  C1  DKZ d          33.761  23.694  28.766  0.00  0.00     0.141 C 
ATOM      2  C2  DKZ d          32.953  24.200  29.976  0.00  0.00     0.110 C 
ATOM      3  C3  DKZ d          33.812  25.190  30.796  0.00  0.00     0.134 C 
ATOM      4  F3  DKZ d          33.202  25.467  31.996  0.00  0.00    -0.244 F 
ATOM      5  C4  DKZ d          35.232  24.638  31.071  0.00  0.00     0.094 C 
ATOM      6  C5  DKZ d          35.890  23.967  29.842  0.00  0.00     0.088 C 
ATOM      7  O5  DKZ d          34.979  23.021  29.229  0.00  0.00    -0.353 OA
ATOM      8  H1  DKZ d          34.010  24.566  28.142  0.00  0.00     0.123 H 
ATOM      9  H2  DKZ d          32.714  23.340  30.617  0.00  0.00     0.094 H 
ATOM     10  H5  DKZ d          33.906  26.124  30.220  0.00  0.00     0.100 H 
ATOM     11  H7  DKZ d          35.160  23.888  31.873  0.00  0.00     0.091 H 
ATOM     12  H9  DKZ d          36.146  24.751  29.113  0.00  0.00     0.090 H 
ENDROOT
BRANCH   1  13
ATOM     13  N1  DKZ d          33.143  22.649  27.918  0.00  0.00    -0.280 N 
ATOM     14  C7  DKZ d          33.336  21.271  28.171  0.00  0.00    -0.009 A 
ATOM     15  C8  DKZ d          32.742  20.336  27.322  0.00  0.00    -0.024 A 
ATOM     16  H13 DKZ d          33.938  20.944  29.018  0.00  0.00     0.112 H 
ATOM     17  C9  DKZ d          31.993  20.815  26.237  0.00  0.00     0.125 A 
ATOM     18  H14 DKZ d          32.857  19.268  27.497  0.00  0.00     0.091 H 
ATOM     19  N2  DKZ d          31.834  22.139  26.010  0.00  0.00    -0.293 N 
ATOM     20  C10 DKZ d          32.399  23.064  26.813  0.00  0.00     0.330 A 
ATOM     21  H3  DKZ d          31.286  22.439  25.229  0.00  0.00     0.172 HD
ATOM     22  O10 DKZ d          32.250  24.276  26.598  0.00  0.00    -0.246 OA
BRANCH  17  23
ATOM     23  N3  DKZ d          31.426  19.956  25.395  0.00  0.00    -0.284 NA
ATOM     24  H6  DKZ d          31.624  18.971  25.470  0.00  0.00     0.188 HD
ENDBRANCH  17  23
ENDBRANCH   1  13
BRANCH   2  25
ATOM     25  O2  DKZ d          31.704  24.800  29.551  0.00  0.00    -0.388 OA
ATOM     26  H4  DKZ d          31.614  25.658  29.948  0.00  0.00     0.210 HD
ENDBRANCH   2  25
BRANCH   6  27
ATOM     27  C6  DKZ d          37.169  23.197  30.224  0.00  0.00     0.043 C 
ATOM     28  H10 DKZ d          38.049  23.724  29.826  0.00  0.00     0.078 H 
ATOM     29  H11 DKZ d          37.128  22.182  29.804  0.00  0.00     0.078 H 
BRANCH  27  30
ATOM     30  O6  DKZ d          37.261  23.122  31.654  0.00  0.00    -0.398 OA
ATOM     31  H12 DKZ d          37.000  22.255  31.942  0.00  0.00     0.209 HD
ENDBRANCH  27  30
ENDBRANCH   6  27
BRANCH   5  32
ATOM     32  O4  DKZ d          36.055  25.714  31.508  0.00  0.00    -0.390 OA
ATOM     33  H8  DKZ d          36.248  25.609  32.432  0.00  0.00     0.210 HD
ENDBRANCH   5  32
TORSDOF 6
ENDMDL
MODEL 3
REMARK VINA RESULT:      -5.8      1.647      2.863
REMARK  6 active torsions:
REMARK  status: ('A' for Active; 'I' for Inactive)
REMARK    1  A    between atoms: N1_2  and  C1_1 
REMARK    2  A    between atoms: C2_3  and  O2_5 
REMARK    3  A    between atoms: C9_17  and  N3_8 
REMARK    4  A    between atoms: C4_9  and  O4_10 
REMARK    5  A    between atoms: C5_11  and  C6_13 
REMARK    6  A    between atoms: C6_13  and  O6_14 
ROOT
ATOM      1  C1  DKZ d          33.525  22.487  28.036  0.00  0.00     0.141 C 
ATOM      2  C2  DKZ d          32.838  21.197  28.523  0.00  0.00     0.110 C 
ATOM      3  C3  DKZ d          32.048  20.559  27.358  0.00  0.00     0.134 C 
ATOM      4  F3  DKZ d          31.243  19.548  27.827  0.00  0.00    -0.244 F 
ATOM      5  C4  DKZ d          31.168  21.595  26.615  0.00  0.00     0.094 C 
ATOM      6  C5  DKZ d          31.884  22.940  26.343  0.00  0.00     0.088 C 
ATOM      7  O5  DKZ d          32.516  23.434  27.550  0.00  0.00    -0.353 OA
ATOM      8  H1  DKZ d          34.222  22.211  27.230  0.00  0.00     0.123 H 
ATOM      9  H2  DKZ d          32.125  21.463  29.316  0.00  0.00     0.094 H 
ATOM     10  H5  DKZ d          32.769  20.136  26.642  0.00  0.00     0.100 H 
ATOM     11  H7  DKZ d          30.281  21.798  27.232  0.00  0.00     0.091 H 
ATOM     12  H9  DKZ d          32.650  22.777  25.571  0.00  0.00     0.090 H 
ENDROOT
BRANCH   1  13
ATOM     13  N1  DKZ d          34.243  23.302  29.042  0.00  0.00    -0.280 N 
ATOM     14  C7  DKZ d          35.646  23.223  29.205  0.00  0.00    -0.009 A 
ATOM     15  C8  DKZ d          36.260  24.002  30.186  0.00  0.00    -0.024 A 
ATOM     16  H13 DKZ d          36.239  22.562  28.574  0.00  0.00     0.112 H 
ATOM     17  C9  DKZ d          35.445  24.820  30.982  0.00  0.00     0.125 A 
ATOM     18  H14 DKZ d          37.339  23.977  30.328  0.00  0.00     0.091 H 
ATOM     19  N2  DKZ d          34.103  24.869  30.814  0.00  0.00    -0.293 N 
ATOM     20  C10 DKZ d          33.483  24.124  29.876  0.00  0.00     0.330 A 
ATOM     21  H3  DKZ d          33.559  25.472  31.398  0.00  0.00     0.172 HD
ATOM     22  O10 DKZ d          32.254  24.174  29.728  0.00  0.00    -0.246 OA
BRANCH  17  23
ATOM     23  N3  DKZ d          35.989  25.566  31.939  0.00  0.00    -0.284 NA
ATOM     24  H6  DKZ d          35.480  25.745  32.791  0.00  0.00     0.188 HD
ENDBRANCH  17  23
ENDBRANCH   1  13
BRANCH   2  25
ATOM     25  O2  DKZ d          33.805  20.275  29.083  0.00  0.00    -0.388 OA
ATOM     26  H4  DKZ d          33.513  19.383  28.934  0.00  0.00     0.210 HD
ENDBRANCH   2  25
BRANCH   6  27
ATOM     27  C6  DKZ d          30.902  24.024  25.857  0.00  0.00     0.043 C 
ATOM     28  H10 DKZ d          29.895  23.810  26.246  0.00  0.00     0.078 H 
ATOM     29  H11 DKZ d          30.875  24.032  24.758  0.00  0.00     0.078 H 
BRANCH  27  30
ATOM     30  O6  DKZ d          31.342  25.303  26.336  0.00  0.00    -0.398 OA
ATOM     31  H12 DKZ d          32.289  25.309  26.398  0.00  0.00     0.209 HD
ENDBRANCH  27  30
ENDBRANCH   6  27
BRANCH   5  32
ATOM     32  O4  DKZ d          30.759  21.029  25.375  0.00  0.00    -0.390 OA
ATOM     33  H8  DKZ d          29.809  21.003  25.338  0.00  0.00     0.210 HD
ENDBRANCH   5  32
TORSDOF 6
ENDMDL
