MODEL 1
REMARK VINA RESULT:      -9.1      0.000      0.000
REMARK  8 active torsions:
REMARK  status: ('A' for Active; 'I' for Inactive)
REMARK    1  A    between atoms: CA_4  and  C_1 
REMARK    2  A    between atoms: N_2  and  CA_4 
REMARK    3  A    between atoms: OAR_19  and  CAA_5 
REMARK    4  A    between atoms: NAQ_18  and  CAO_17 
REMARK    5  A    between atoms: CAO_17  and  CAV_22 
REMARK    6  A    between atoms: SBC_28  and  NAQ_18 
REMARK    7  A    between atoms: CAU_21  and  OAR_19 
REMARK    8  A    between atoms: CAW_23  and  SBC_28 
ROOT
ATOM      1  N   FG5 d           0.965  -9.505  33.644  0.00  0.00    -0.338 N 
ATOM      2  CAH FG5 d           1.745  -8.686  30.175  0.00  0.00    -0.049 A 
ATOM      3  CAK FG5 d           1.369  -8.500  31.492  0.00  0.00    -0.054 A 
ATOM      4  CAL FG5 d           1.961 -11.034  30.749  0.00  0.00    -0.039 A 
ATOM      5  CAM FG5 d           1.428 -11.588  33.089  0.00  0.00    -0.047 A 
ATOM      6  CAU FG5 d           2.048  -9.989  29.808  0.00  0.00     0.069 A 
ATOM      7  CAV FG5 d           1.057 -10.765  34.080  0.00  0.00     0.032 A 
ATOM      8  CAY FG5 d           1.585 -10.797  32.020  0.00  0.00    -0.005 A 
ATOM      9  CBA FG5 d           1.302  -9.521  32.368  0.00  0.00     0.045 A 
ATOM     10  H8  FG5 d           1.800  -7.863  29.472  0.00  0.00     0.087 H 
ATOM     11  H11 FG5 d           1.120  -7.501  31.831  0.00  0.00     0.087 H 
ATOM     12  H12 FG5 d           2.201 -12.046  30.445  0.00  0.00     0.089 H 
ATOM     13  H13 FG5 d           1.570 -12.667  33.143  0.00  0.00     0.088 H 
ENDROOT
BRANCH   7  14
ATOM     14  CAO FG5 d           0.736 -11.116  35.554  0.00  0.00     0.041 C 
ATOM     15  H15 FG5 d          -0.033 -10.416  35.912  0.00  0.00     0.074 H 
ATOM     16  H16 FG5 d           0.338 -12.142  35.582  0.00  0.00     0.074 H 
BRANCH  14  17
ATOM     17  NAQ FG5 d           1.883 -11.045  36.471  0.00  0.00    -0.308 N 
ATOM     18  H17 FG5 d           2.761 -10.618  36.252  0.00  0.00     0.172 HD
BRANCH  17  19
ATOM     19  SBC FG5 d           1.490 -11.834  38.047  0.00  0.00     0.281 S 
ATOM     20  OAC FG5 d           2.818 -12.093  38.776  0.00  0.00    -0.199 OA
ATOM     21  OAD FG5 d           0.654 -13.123  37.939  0.00  0.00    -0.199 OA
BRANCH  19  22
ATOM     22  CAW FG5 d           0.550 -10.684  38.997  0.00  0.00     0.191 A 
ATOM     23  CAN FG5 d          -0.190  -9.740  38.442  0.00  0.00    -0.025 A 
ATOM     24  CAX FG5 d          -0.782  -9.026  39.390  0.00  0.00     0.001 A 
ATOM     25  H14 FG5 d          -0.298  -9.575  37.371  0.00  0.00     0.090 H 
ATOM     26  CAI FG5 d          -1.608  -7.982  39.280  0.00  0.00    -0.070 A 
ATOM     27  CAZ FG5 d          -0.399  -9.528  40.571  0.00  0.00     0.087 A 
ATOM     28  CAF FG5 d          -2.105  -7.376  40.420  0.00  0.00    -0.082 A 
ATOM     29  H9  FG5 d          -1.889  -7.611  38.301  0.00  0.00     0.084 H 
ATOM     30  CAG FG5 d          -1.707  -7.904  41.646  0.00  0.00    -0.080 A 
ATOM     31  H6  FG5 d          -2.775  -6.527  40.362  0.00  0.00     0.083 H 
ATOM     32  CAJ FG5 d          -0.847  -8.997  41.705  0.00  0.00    -0.049 A 
ATOM     33  H7  FG5 d          -2.070  -7.458  42.565  0.00  0.00     0.083 H 
ATOM     34  H10 FG5 d          -0.548  -9.411  42.661  0.00  0.00     0.087 H 
ATOM     35  OAS FG5 d           0.471 -10.609  40.319  0.00  0.00    -0.296 OA
ENDBRANCH  19  22
ENDBRANCH  17  19
ENDBRANCH  14  17
ENDBRANCH   7  14
BRANCH   1  36
ATOM     36  CA  FG5 d           0.646  -8.160  34.258  0.00  0.00     0.080 C 
ATOM     37  H1  FG5 d           0.577  -7.438  33.431  0.00  0.00     0.081 H 
ATOM     38  H2  FG5 d          -0.337  -8.255  34.744  0.00  0.00     0.081 H 
BRANCH  36  39
ATOM     39  C   FG5 d           1.588  -7.563  35.285  0.00  0.00     0.191 C 
ATOM     40  O   FG5 d           2.279  -6.583  34.879  0.00  0.00    -0.647 OA
ATOM     41  OXT FG5 d           1.577  -8.044  36.438  0.00  0.00    -0.647 OA
ENDBRANCH  36  39
ENDBRANCH   1  36
BRANCH   6  42
ATOM     42  OAR FG5 d           2.410 -10.186  28.525  0.00  0.00    -0.356 OA
BRANCH  42  43
ATOM     43  CAA FG5 d           1.771 -11.287  27.879  0.00  0.00     0.010 C 
ATOM     44  H3  FG5 d           1.609 -11.046  26.818  0.00  0.00     0.066 H 
ATOM     45  H4  FG5 d           0.803 -11.485  28.362  0.00  0.00     0.066 H 
ATOM     46  H5  FG5 d           2.409 -12.180  27.958  0.00  0.00     0.066 H 
ENDBRANCH  42  43
ENDBRANCH   6  42
TORSDOF 8
ENDMDL
MODEL 2
REMARK VINA RESULT:      -8.9      2.097      8.401
REMARK  8 active torsions:
REMARK  status: ('A' for Active; 'I' for Inactive)
REMARK    1  A    between atoms: CA_4  and  C_1 
REMARK    2  A    between atoms: N_2  and  CA_4 
REMARK    3  A    between atoms: OAR_19  and  CAA_5 
REMARK    4  A    between atoms: NAQ_18  and  CAO_17 
REMARK    5  A    between atoms: CAO_17  and  CAV_22 
REMARK    6  A    between atoms: SBC_28  and  NAQ_18 
REMARK    7  A    between atoms: CAU_21  and  OAR_19 
REMARK    8  A    between atoms: CAW_23  and  SBC_28 
ROOT
ATOM      1  N   FG5 d           0.160  -9.732  36.343  0.00  0.00    -0.338 N 
ATOM      2  CAH FG5 d          -0.434  -8.820  39.826  0.00  0.00    -0.049 A 
ATOM      3  CAK FG5 d          -0.409  -8.707  38.448  0.00  0.00    -0.054 A 
ATOM      4  CAL FG5 d           0.566 -11.006  39.494  0.00  0.00    -0.039 A 
ATOM      5  CAM FG5 d           0.974 -11.619  37.144  0.00  0.00    -0.047 A 
ATOM      6  CAU FG5 d           0.066 -10.003  40.349  0.00  0.00     0.069 A 
ATOM      7  CAV FG5 d           0.699 -10.915  36.036  0.00  0.00     0.032 A 
ATOM      8  CAY FG5 d           0.571 -10.843  38.158  0.00  0.00    -0.005 A 
ATOM      9  CBA FG5 d           0.071  -9.688  37.660  0.00  0.00     0.045 A 
ATOM     10  H8  FG5 d          -0.821  -8.030  40.459  0.00  0.00     0.087 H 
ATOM     11  H11 FG5 d          -0.787  -7.802  37.988  0.00  0.00     0.087 H 
ATOM     12  H12 FG5 d           0.954 -11.924  39.920  0.00  0.00     0.089 H 
ATOM     13  H13 FG5 d           1.427 -12.608  37.205  0.00  0.00     0.088 H 
ENDROOT
BRANCH   7  14
ATOM     14  CAO FG5 d           0.945 -11.311  34.559  0.00  0.00     0.041 C 
ATOM     15  H15 FG5 d           0.179 -12.046  34.270  0.00  0.00     0.074 H 
ATOM     16  H16 FG5 d           0.837 -10.408  33.940  0.00  0.00     0.074 H 
BRANCH  14  17
ATOM     17  NAQ FG5 d           2.266 -11.897  34.287  0.00  0.00    -0.308 N 
ATOM     18  H17 FG5 d           2.498 -12.862  34.415  0.00  0.00     0.172 HD
BRANCH  17  19
ATOM     19  SBC FG5 d           3.413 -10.635  33.691  0.00  0.00     0.281 S 
ATOM     20  OAC FG5 d           4.817 -11.261  33.673  0.00  0.00    -0.199 OA
ATOM     21  OAD FG5 d           3.402  -9.317  34.488  0.00  0.00    -0.199 OA
BRANCH  19  22
ATOM     22  CAW FG5 d           2.956 -10.244  32.034  0.00  0.00     0.191 A 
ATOM     23  CAN FG5 d           2.172 -11.021  31.309  0.00  0.00    -0.025 A 
ATOM     24  CAX FG5 d           1.999 -10.484  30.110  0.00  0.00     0.001 A 
ATOM     25  H14 FG5 d           1.734 -11.960  31.646  0.00  0.00     0.090 H 
ATOM     26  CAI FG5 d           1.289 -10.929  29.069  0.00  0.00    -0.070 A 
ATOM     27  CAZ FG5 d           2.698  -9.342  30.076  0.00  0.00     0.087 A 
ATOM     28  CAF FG5 d           1.258 -10.199  27.895  0.00  0.00    -0.082 A 
ATOM     29  H9  FG5 d           0.739 -11.861  29.145  0.00  0.00     0.084 H 
ATOM     30  CAG FG5 d           1.984  -9.011  27.866  0.00  0.00    -0.080 A 
ATOM     31  H6  FG5 d           0.693 -10.537  27.034  0.00  0.00     0.083 H 
ATOM     32  CAJ FG5 d           2.703  -8.588  28.980  0.00  0.00    -0.049 A 
ATOM     33  H7  FG5 d           1.990  -8.409  26.964  0.00  0.00     0.083 H 
ATOM     34  H10 FG5 d           3.258  -7.658  28.956  0.00  0.00     0.087 H 
ATOM     35  OAS FG5 d           3.325  -9.183  31.329  0.00  0.00    -0.296 OA
ENDBRANCH  19  22
ENDBRANCH  17  19
ENDBRANCH  14  17
ENDBRANCH   7  14
BRANCH   1  36
ATOM     36  CA  FG5 d          -0.384  -8.549  35.574  0.00  0.00     0.080 C 
ATOM     37  H1  FG5 d          -1.223  -8.921  34.966  0.00  0.00     0.081 H 
ATOM     38  H2  FG5 d          -0.761  -7.830  36.317  0.00  0.00     0.081 H 
BRANCH  36  39
ATOM     39  C   FG5 d           0.529  -7.780  34.639  0.00  0.00     0.191 C 
ATOM     40  O   FG5 d           1.318  -6.967  35.203  0.00  0.00    -0.647 OA
ATOM     41  OXT FG5 d           0.464  -8.035  33.418  0.00  0.00    -0.647 OA
ENDBRANCH  36  39
ENDBRANCH   1  36
BRANCH   6  42
ATOM     42  OAR FG5 d           0.054 -10.124  41.691  0.00  0.00    -0.356 OA
BRANCH  42  43
ATOM     43  CAA FG5 d          -1.112  -9.609  42.334  0.00  0.00     0.010 C 
ATOM     44  H3  FG5 d          -1.541  -8.801  41.723  0.00  0.00     0.066 H 
ATOM     45  H4  FG5 d          -0.841  -9.216  43.324  0.00  0.00     0.066 H 
ATOM     46  H5  FG5 d          -1.853 -10.414  42.450  0.00  0.00     0.066 H 
ENDBRANCH  42  43
ENDBRANCH   6  42
TORSDOF 8
ENDMDL
MODEL 3
REMARK VINA RESULT:      -8.5      2.114      8.565
REMARK  8 active torsions:
REMARK  status: ('A' for Active; 'I' for Inactive)
REMARK    1  A    between atoms: CA_4  and  C_1 
REMARK    2  A    between atoms: N_2  and  CA_4 
REMARK    3  A    between atoms: OAR_19  and  CAA_5 
REMARK    4  A    between atoms: NAQ_18  and  CAO_17 
REMARK    5  A    between atoms: CAO_17  and  CAV_22 
REMARK    6  A    between atoms: SBC_28  and  NAQ_18 
REMARK    7  A    between atoms: CAU_21  and  OAR_19 
REMARK    8  A    between atoms: CAW_23  and  SBC_28 
ROOT
ATOM      1  N   FG5 d           0.600  -9.732  36.979  0.00  0.00    -0.338 N 
ATOM      2  CAH FG5 d          -0.985  -8.065  39.810  0.00  0.00    -0.049 A 
ATOM      3  CAK FG5 d          -0.532  -8.267  38.520  0.00  0.00    -0.054 A 
ATOM      4  CAL FG5 d          -0.050 -10.250  40.299  0.00  0.00    -0.039 A 
ATOM      5  CAM FG5 d           1.026 -11.373  38.389  0.00  0.00    -0.047 A 
ATOM      6  CAU FG5 d          -0.734  -9.089  40.711  0.00  0.00     0.069 A 
ATOM      7  CAV FG5 d           1.143 -10.944  37.124  0.00  0.00     0.032 A 
ATOM      8  CAY FG5 d           0.373 -10.394  39.029  0.00  0.00    -0.005 A 
ATOM      9  CBA FG5 d           0.113  -9.392  38.158  0.00  0.00     0.045 A 
ATOM     10  H8  FG5 d          -1.505  -7.159  40.101  0.00  0.00     0.087 H 
ATOM     11  H11 FG5 d          -0.702  -7.497  37.777  0.00  0.00     0.087 H 
ATOM     12  H12 FG5 d           0.138 -11.040  41.016  0.00  0.00     0.089 H 
ATOM     13  H13 FG5 d           1.385 -12.313  38.805  0.00  0.00     0.088 H 
ENDROOT
BRANCH   7  14
ATOM     14  CAO FG5 d           1.809 -11.660  35.923  0.00  0.00     0.041 C 
ATOM     15  H15 FG5 d           2.820 -11.968  36.226  0.00  0.00     0.074 H 
ATOM     16  H16 FG5 d           1.212 -12.552  35.682  0.00  0.00     0.074 H 
BRANCH  14  17
ATOM     17  NAQ FG5 d           1.926 -10.845  34.704  0.00  0.00    -0.308 N 
ATOM     18  H17 FG5 d           2.571 -10.090  34.584  0.00  0.00     0.172 HD
BRANCH  17  19
ATOM     19  SBC FG5 d           0.745 -11.395  33.453  0.00  0.00     0.281 S 
ATOM     20  OAC FG5 d          -0.599 -10.714  33.756  0.00  0.00    -0.199 OA
ATOM     21  OAD FG5 d           0.581 -12.923  33.340  0.00  0.00    -0.199 OA
BRANCH  19  22
ATOM     22  CAW FG5 d           1.321 -10.818  31.889  0.00  0.00     0.191 A 
ATOM     23  CAN FG5 d           2.407 -10.078  31.761  0.00  0.00    -0.025 A 
ATOM     24  CAX FG5 d           2.600  -9.791  30.481  0.00  0.00     0.001 A 
ATOM     25  H14 FG5 d           3.047  -9.753  32.580  0.00  0.00     0.090 H 
ATOM     26  CAI FG5 d           3.567  -9.071  29.903  0.00  0.00    -0.070 A 
ATOM     27  CAZ FG5 d           1.605 -10.359  29.786  0.00  0.00     0.087 A 
ATOM     28  CAF FG5 d           3.564  -8.891  28.532  0.00  0.00    -0.082 A 
ATOM     29  H9  FG5 d           4.351  -8.630  30.508  0.00  0.00     0.084 H 
ATOM     30  CAG FG5 d           2.529  -9.486  27.815  0.00  0.00    -0.080 A 
ATOM     31  H6  FG5 d           4.334  -8.311  28.037  0.00  0.00     0.083 H 
ATOM     32  CAJ FG5 d           1.549 -10.231  28.464  0.00  0.00    -0.049 A 
ATOM     33  H7  FG5 d           2.487  -9.368  26.738  0.00  0.00     0.083 H 
ATOM     34  H10 FG5 d           0.751 -10.701  27.901  0.00  0.00     0.087 H 
ATOM     35  OAS FG5 d           0.768 -11.029  30.702  0.00  0.00    -0.296 OA
ENDBRANCH  19  22
ENDBRANCH  17  19
ENDBRANCH  14  17
ENDBRANCH   7  14
BRANCH   1  36
ATOM     36  CA  FG5 d           0.382  -8.765  35.836  0.00  0.00     0.080 C 
ATOM     37  H1  FG5 d           0.084  -9.363  34.962  0.00  0.00     0.081 H 
ATOM     38  H2  FG5 d          -0.448  -8.105  36.129  0.00  0.00     0.081 H 
BRANCH  36  39
ATOM     39  C   FG5 d           1.520  -7.869  35.387  0.00  0.00     0.191 C 
ATOM     40  O   FG5 d           1.620  -7.708  34.136  0.00  0.00    -0.647 OA
ATOM     41  OXT FG5 d           2.225  -7.333  36.269  0.00  0.00    -0.647 OA
ENDBRANCH  36  39
ENDBRANCH   1  36
BRANCH   6  42
ATOM     42  OAR FG5 d          -1.164  -8.902  41.974  0.00  0.00    -0.356 OA
BRANCH  42  43
ATOM     43  CAA FG5 d          -0.782  -9.920  42.900  0.00  0.00     0.010 C 
ATOM     44  H3  FG5 d          -1.355 -10.836  42.694  0.00  0.00     0.066 H 
ATOM     45  H4  FG5 d          -0.990  -9.580  43.925  0.00  0.00     0.066 H 
ATOM     46  H5  FG5 d           0.292 -10.128  42.794  0.00  0.00     0.066 H 
ENDBRANCH  42  43
ENDBRANCH   6  42
TORSDOF 8
ENDMDL
MODEL 4
REMARK VINA RESULT:      -6.5      2.478      4.107
REMARK  8 active torsions:
REMARK  status: ('A' for Active; 'I' for Inactive)
REMARK    1  A    between atoms: CA_4  and  C_1 
REMARK    2  A    between atoms: N_2  and  CA_4 
REMARK    3  A    between atoms: OAR_19  and  CAA_5 
REMARK    4  A    between atoms: NAQ_18  and  CAO_17 
REMARK    5  A    between atoms: CAO_17  and  CAV_22 
REMARK    6  A    between atoms: SBC_28  and  NAQ_18 
REMARK    7  A    between atoms: CAU_21  and  OAR_19 
REMARK    8  A    between atoms: CAW_23  and  SBC_28 
ROOT
ATOM      1  N   FG5 d           1.453  -9.334  34.541  0.00  0.00    -0.338 N 
ATOM      2  CAH FG5 d           3.338 -10.335  31.581  0.00  0.00    -0.049 A 
ATOM      3  CAK FG5 d           3.090  -9.829  32.844  0.00  0.00    -0.054 A 
ATOM      4  CAL FG5 d           0.945 -10.716  31.451  0.00  0.00    -0.039 A 
ATOM      5  CAM FG5 d          -0.329 -10.035  33.446  0.00  0.00    -0.047 A 
ATOM      6  CAU FG5 d           2.231 -10.788  30.879  0.00  0.00     0.069 A 
ATOM      7  CAV FG5 d           0.129  -9.504  34.589  0.00  0.00     0.032 A 
ATOM      8  CAY FG5 d           0.759 -10.210  32.685  0.00  0.00    -0.005 A 
ATOM      9  CBA FG5 d           1.848  -9.781  33.363  0.00  0.00     0.045 A 
ATOM     10  H8  FG5 d           4.338 -10.374  31.165  0.00  0.00     0.087 H 
ATOM     11  H11 FG5 d           3.920  -9.460  33.434  0.00  0.00     0.087 H 
ATOM     12  H12 FG5 d           0.091 -11.075  30.888  0.00  0.00     0.089 H 
ATOM     13  H13 FG5 d          -1.361 -10.271  33.192  0.00  0.00     0.088 H 
ENDROOT
BRANCH   7  14
ATOM     14  CAO FG5 d          -0.676  -9.089  35.846  0.00  0.00     0.041 C 
ATOM     15  H15 FG5 d          -0.061  -8.386  36.428  0.00  0.00     0.074 H 
ATOM     16  H16 FG5 d          -1.594  -8.584  35.513  0.00  0.00     0.074 H 
BRANCH  14  17
ATOM     17  NAQ FG5 d          -1.059 -10.200  36.730  0.00  0.00    -0.308 N 
ATOM     18  H17 FG5 d          -1.746 -10.893  36.508  0.00  0.00     0.172 HD
BRANCH  17  19
ATOM     19  SBC FG5 d          -0.119 -10.144  38.272  0.00  0.00     0.281 S 
ATOM     20  OAC FG5 d          -1.037 -10.665  39.389  0.00  0.00    -0.199 OA
ATOM     21  OAD FG5 d           0.464  -8.764  38.628  0.00  0.00    -0.199 OA
BRANCH  19  22
ATOM     22  CAW FG5 d           1.240 -11.255  38.104  0.00  0.00     0.191 A 
ATOM     23  CAN FG5 d           2.014 -11.591  39.121  0.00  0.00    -0.025 A 
ATOM     24  CAX FG5 d           2.950 -12.434  38.707  0.00  0.00     0.001 A 
ATOM     25  H14 FG5 d           1.900 -11.231  40.142  0.00  0.00     0.090 H 
ATOM     26  CAI FG5 d           3.935 -13.020  39.393  0.00  0.00    -0.070 A 
ATOM     27  CAZ FG5 d           2.765 -12.628  37.394  0.00  0.00     0.087 A 
ATOM     28  CAF FG5 d           4.815 -13.868  38.745  0.00  0.00    -0.082 A 
ATOM     29  H9  FG5 d           4.044 -12.831  40.455  0.00  0.00     0.084 H 
ATOM     30  CAG FG5 d           4.616 -14.068  37.382  0.00  0.00    -0.080 A 
ATOM     31  H6  FG5 d           5.624 -14.355  39.276  0.00  0.00     0.083 H 
ATOM     32  CAJ FG5 d           3.570 -13.438  36.714  0.00  0.00    -0.049 A 
ATOM     33  H7  FG5 d           5.285 -14.723  36.834  0.00  0.00     0.083 H 
ATOM     34  H10 FG5 d           3.414 -13.605  35.655  0.00  0.00     0.087 H 
ATOM     35  OAS FG5 d           1.651 -11.859  36.997  0.00  0.00    -0.296 OA
ENDBRANCH  19  22
ENDBRANCH  17  19
ENDBRANCH  14  17
ENDBRANCH   7  14
BRANCH   1  36
ATOM     36  CA  FG5 d           2.524  -8.839  35.487  0.00  0.00     0.080 C 
ATOM     37  H1  FG5 d           2.517  -9.511  36.358  0.00  0.00     0.081 H 
ATOM     38  H2  FG5 d           3.485  -8.933  34.960  0.00  0.00     0.081 H 
BRANCH  36  39
ATOM     39  C   FG5 d           2.452  -7.423  36.024  0.00  0.00     0.191 C 
ATOM     40  O   FG5 d           2.228  -6.528  35.158  0.00  0.00    -0.647 OA
ATOM     41  OXT FG5 d           2.571  -7.258  37.256  0.00  0.00    -0.647 OA
ENDBRANCH  36  39
ENDBRANCH   1  36
BRANCH   6  42
ATOM     42  OAR FG5 d           2.457 -11.278  29.645  0.00  0.00    -0.356 OA
BRANCH  42  43
ATOM     43  CAA FG5 d           1.406 -11.057  28.704  0.00  0.00     0.010 C 
ATOM     44  H3  FG5 d           1.607 -10.134  28.140  0.00  0.00     0.066 H 
ATOM     45  H4  FG5 d           0.450 -10.959  29.239  0.00  0.00     0.066 H 
ATOM     46  H5  FG5 d           1.351 -11.907  28.009  0.00  0.00     0.066 H 
ENDBRANCH  42  43
ENDBRANCH   6  42
TORSDOF 8
ENDMDL
MODEL 5
REMARK VINA RESULT:      -6.3      3.027      7.015
REMARK  8 active torsions:
REMARK  status: ('A' for Active; 'I' for Inactive)
REMARK    1  A    between atoms: CA_4  and  C_1 
REMARK    2  A    between atoms: N_2  and  CA_4 
REMARK    3  A    between atoms: OAR_19  and  CAA_5 
REMARK    4  A    between atoms: NAQ_18  and  CAO_17 
REMARK    5  A    between atoms: CAO_17  and  CAV_22 
REMARK    6  A    between atoms: SBC_28  and  NAQ_18 
REMARK    7  A    between atoms: CAU_21  and  OAR_19 
REMARK    8  A    between atoms: CAW_23  and  SBC_28 
ROOT
ATOM      1  N   FG5 d           0.523  -8.821  36.508  0.00  0.00    -0.338 N 
ATOM      2  CAH FG5 d           0.476  -8.565  40.147  0.00  0.00    -0.049 A 
ATOM      3  CAK FG5 d           0.972  -8.533  38.858  0.00  0.00    -0.054 A 
ATOM      4  CAL FG5 d          -1.639  -9.191  39.136  0.00  0.00    -0.039 A 
ATOM      5  CAM FG5 d          -1.606  -9.370  36.679  0.00  0.00    -0.047 A 
ATOM      6  CAU FG5 d          -0.863  -8.901  40.276  0.00  0.00     0.069 A 
ATOM      7  CAV FG5 d          -0.585  -9.150  35.839  0.00  0.00     0.032 A 
ATOM      8  CAY FG5 d          -1.104  -9.149  37.901  0.00  0.00    -0.005 A 
ATOM      9  CBA FG5 d           0.201  -8.810  37.789  0.00  0.00     0.045 A 
ATOM     10  H8  FG5 d           1.097  -8.341  41.007  0.00  0.00     0.087 H 
ATOM     11  H11 FG5 d           2.013  -8.278  38.702  0.00  0.00     0.087 H 
ATOM     12  H12 FG5 d          -2.684  -9.452  39.254  0.00  0.00     0.089 H 
ATOM     13  H13 FG5 d          -2.623  -9.666  36.424  0.00  0.00     0.088 H 
ENDROOT
BRANCH   7  14
ATOM     14  CAO FG5 d          -0.573  -9.251  34.293  0.00  0.00     0.041 C 
ATOM     15  H15 FG5 d          -1.489  -8.776  33.912  0.00  0.00     0.074 H 
ATOM     16  H16 FG5 d           0.305  -8.702  33.921  0.00  0.00     0.074 H 
BRANCH  14  17
ATOM     17  NAQ FG5 d          -0.514 -10.621  33.763  0.00  0.00    -0.308 N 
ATOM     18  H17 FG5 d          -1.302 -11.230  33.669  0.00  0.00     0.172 HD
BRANCH  17  19
ATOM     19  SBC FG5 d           1.179 -11.057  33.306  0.00  0.00     0.281 S 
ATOM     20  OAC FG5 d           1.932  -9.746  33.029  0.00  0.00    -0.199 OA
ATOM     21  OAD FG5 d           1.302 -12.032  32.120  0.00  0.00    -0.199 OA
BRANCH  19  22
ATOM     22  CAW FG5 d           1.920 -11.840  34.701  0.00  0.00     0.191 A 
ATOM     23  CAN FG5 d           1.213 -12.309  35.713  0.00  0.00    -0.025 A 
ATOM     24  CAX FG5 d           2.026 -12.842  36.614  0.00  0.00     0.001 A 
ATOM     25  H14 FG5 d           0.127 -12.266  35.794  0.00  0.00     0.090 H 
ATOM     26  CAI FG5 d           1.741 -13.423  37.783  0.00  0.00    -0.070 A 
ATOM     27  CAZ FG5 d           3.278 -12.698  36.162  0.00  0.00     0.087 A 
ATOM     28  CAF FG5 d           2.765 -13.905  38.578  0.00  0.00    -0.082 A 
ATOM     29  H9  FG5 d           0.711 -13.516  38.108  0.00  0.00     0.084 H 
ATOM     30  CAG FG5 d           4.065 -13.756  38.102  0.00  0.00    -0.080 A 
ATOM     31  H6  FG5 d           2.564 -14.379  39.532  0.00  0.00     0.083 H 
ATOM     32  CAJ FG5 d           4.307 -13.148  36.873  0.00  0.00    -0.049 A 
ATOM     33  H7  FG5 d           4.898 -14.117  38.695  0.00  0.00     0.083 H 
ATOM     34  H10 FG5 d           5.320 -13.043  36.502  0.00  0.00     0.087 H 
ATOM     35  OAS FG5 d           3.213 -12.044  34.914  0.00  0.00    -0.296 OA
ENDBRANCH  19  22
ENDBRANCH  17  19
ENDBRANCH  14  17
ENDBRANCH   7  14
BRANCH   1  36
ATOM     36  CA  FG5 d           1.938  -8.428  36.148  0.00  0.00     0.080 C 
ATOM     37  H1  FG5 d           2.516  -8.417  37.084  0.00  0.00     0.081 H 
ATOM     38  H2  FG5 d           2.329  -9.214  35.485  0.00  0.00     0.081 H 
BRANCH  36  39
ATOM     39  C   FG5 d           2.195  -7.102  35.458  0.00  0.00     0.191 C 
ATOM     40  O   FG5 d           1.435  -6.847  34.479  0.00  0.00    -0.647 OA
ATOM     41  OXT FG5 d           3.085  -6.362  35.927  0.00  0.00    -0.647 OA
ENDBRANCH  36  39
ENDBRANCH   1  36
BRANCH   6  42
ATOM     42  OAR FG5 d          -1.359  -8.942  41.528  0.00  0.00    -0.356 OA
BRANCH  42  43
ATOM     43  CAA FG5 d          -0.559  -9.654  42.473  0.00  0.00     0.010 C 
ATOM     44  H3  FG5 d          -1.162  -9.887  43.362  0.00  0.00     0.066 H 
ATOM     45  H4  FG5 d           0.301  -9.034  42.766  0.00  0.00     0.066 H 
ATOM     46  H5  FG5 d          -0.199 -10.588  42.018  0.00  0.00     0.066 H 
ENDBRANCH  42  43
ENDBRANCH   6  42
TORSDOF 8
ENDMDL
