MODEL 1
REMARK VINA RESULT:      -8.9      0.000      0.000
REMARK  8 active torsions:
REMARK  status: ('A' for Active; 'I' for Inactive)
REMARK    1  A    between atoms: N1_1  and  C2_2 
REMARK    2  A    between atoms: C2_2  and  C3_3 
REMARK    3  A    between atoms: C6_6  and  N7_7 
REMARK       I    between atoms: N7_7  and  C8_8 
REMARK    4  A    between atoms: C8_8  and  C10_10 
REMARK    5  A    between atoms: C12_12  and  N13_13 
REMARK    6  A    between atoms: N13_13  and  C14_14 
REMARK    7  A    between atoms: C22_22  and  C27_27 
REMARK    8  A    between atoms: C27_27  and  N28_28 
ROOT
ATOM      1  C10 UI1 d          23.214  15.672  33.430  0.00  0.00     0.035 A 
ATOM      2  C11 UI1 d          23.661  16.884  34.005  0.00  0.00    -0.041 A 
ATOM      3  C12 UI1 d          22.777  17.915  34.228  0.00  0.00     0.061 A 
ATOM      4  C20 UI1 d          21.393  17.755  33.881  0.00  0.00     0.002 A 
ATOM      5  C21 UI1 d          20.498  18.831  34.095  0.00  0.00    -0.057 A 
ATOM      6  C22 UI1 d          19.132  18.696  33.765  0.00  0.00     0.008 A 
ATOM      7  C23 UI1 d          18.647  17.488  33.227  0.00  0.00    -0.069 A 
ATOM      8  C24 UI1 d          19.539  16.409  33.005  0.00  0.00    -0.071 A 
ATOM      9  C25 UI1 d          20.921  16.547  33.328  0.00  0.00    -0.023 A 
ATOM     10  C26 UI1 d          21.834  15.493  33.093  0.00  0.00    -0.057 A 
ATOM     11  H9  UI1 d          24.705  17.001  34.271  0.00  0.00     0.088 H 
ATOM     12  H14 UI1 d          20.862  19.762  34.514  0.00  0.00     0.086 H 
ATOM     13  H15 UI1 d          17.597  17.383  32.983  0.00  0.00     0.085 H 
ATOM     14  H16 UI1 d          19.170  15.479  32.589  0.00  0.00     0.084 H 
ATOM     15  H17 UI1 d          21.492  14.560  32.662  0.00  0.00     0.086 H 
ENDROOT
BRANCH   1  16
ATOM     16  C8  UI1 d          24.246  14.630  33.137  0.00  0.00     0.256 C 
ATOM     17  N7  UI1 d          24.016  13.778  32.155  0.00  0.00    -0.323 N 
ATOM     18  H8  UI1 d          23.122  13.776  31.706  0.00  0.00     0.169 HD
ATOM     19  O9  UI1 d          25.305  14.624  33.752  0.00  0.00    -0.267 OA
BRANCH  17  20
ATOM     20  C6  UI1 d          25.028  12.849  31.719  0.00  0.00     0.035 A 
ATOM     21  C5  UI1 d          25.839  13.347  30.652  0.00  0.00    -0.057 A 
ATOM     22  C4  UI1 d          26.862  12.570  30.089  0.00  0.00    -0.073 A 
ATOM     23  H7  UI1 d          25.659  14.346  30.269  0.00  0.00     0.086 H 
ATOM     24  C3  UI1 d          27.099  11.278  30.584  0.00  0.00    -0.033 A 
ATOM     25  H6  UI1 d          27.465  12.965  29.279  0.00  0.00     0.084 H 
ATOM     26  C31 UI1 d          26.303  10.770  31.643  0.00  0.00    -0.073 A 
ATOM     27  C30 UI1 d          25.254  11.560  32.215  0.00  0.00    -0.057 A 
ATOM     28  H23 UI1 d          26.491   9.773  32.025  0.00  0.00     0.084 H 
ATOM     29  H22 UI1 d          24.645  11.165  33.019  0.00  0.00     0.086 H 
BRANCH  24  30
ATOM     30  C2  UI1 d          28.217  10.424  29.966  0.00  0.00     0.103 C 
ATOM     31  H4  UI1 d          29.187  10.898  30.174  0.00  0.00     0.082 H 
ATOM     32  H5  UI1 d          28.193   9.422  30.419  0.00  0.00     0.082 H 
BRANCH  30  33
ATOM     33  N1  UI1 d          28.051  10.297  28.524  0.00  0.00    -0.075 N 
ATOM     34  H1  UI1 d          28.810  10.767  28.056  0.00  0.00     0.274 HD
ATOM     35  H2  UI1 d          27.176  10.714  28.248  0.00  0.00     0.274 HD
ATOM     36  H3  UI1 d          28.053   9.321  28.270  0.00  0.00     0.274 HD
ENDBRANCH  30  33
ENDBRANCH  24  30
ENDBRANCH  17  20
ENDBRANCH   1  16
BRANCH   3  37
ATOM     37  N13 UI1 d          23.277  19.158  34.755  0.00  0.00    -0.187 N 
ATOM     38  H10 UI1 d          23.034  20.029  34.262  0.00  0.00     0.184 HD
BRANCH  37  39
ATOM     39  C14 UI1 d          24.087  19.249  35.916  0.00  0.00     0.726 A 
ATOM     40  N15 UI1 d          24.922  20.309  36.033  0.00  0.00    -0.075 NA
ATOM     41  C16 UI1 d          25.703  20.458  37.126  0.00  0.00     0.022 A 
ATOM     42  C17 UI1 d          25.644  19.502  38.163  0.00  0.00    -0.048 A 
ATOM     43  H11 UI1 d          26.373  21.307  37.206  0.00  0.00     0.115 H 
ATOM     44  C18 UI1 d          24.773  18.414  38.007  0.00  0.00     0.022 A 
ATOM     45  H12 UI1 d          26.254  19.607  39.053  0.00  0.00     0.087 H 
ATOM     46  N19 UI1 d          24.015  18.314  36.889  0.00  0.00    -0.075 NA
ATOM     47  H13 UI1 d          24.707  17.656  38.779  0.00  0.00     0.115 H 
ENDBRANCH  37  39
ENDBRANCH   3  37
BRANCH   6  48
ATOM     48  C27 UI1 d          18.253  19.862  34.015  0.00  0.00     0.102 C 
ATOM     49  N29 UI1 d          18.767  21.047  34.317  0.00  0.00    -0.385 N 
ATOM     50  H20 UI1 d          19.788  21.165  34.379  0.00  0.00     0.157 HD
ATOM     51  H21 UI1 d          18.144  21.850  34.488  0.00  0.00     0.157 HD
BRANCH  48  52
ATOM     52  N28 UI1 d          16.959  19.727  33.939  0.00  0.00    -0.385 N 
ATOM     53  H18 UI1 d          16.554  18.880  33.516  0.00  0.00     0.157 HD
ATOM     54  H19 UI1 d          16.342  20.468  34.302  0.00  0.00     0.157 HD
ENDBRANCH  48  52
ENDBRANCH   6  48
TORSDOF 8
ENDMDL
MODEL 2
REMARK VINA RESULT:      -7.4      2.925      9.738
REMARK  8 active torsions:
REMARK  status: ('A' for Active; 'I' for Inactive)
REMARK    1  A    between atoms: N1_1  and  C2_2 
REMARK    2  A    between atoms: C2_2  and  C3_3 
REMARK    3  A    between atoms: C6_6  and  N7_7 
REMARK       I    between atoms: N7_7  and  C8_8 
REMARK    4  A    between atoms: C8_8  and  C10_10 
REMARK    5  A    between atoms: C12_12  and  N13_13 
REMARK    6  A    between atoms: N13_13  and  C14_14 
REMARK    7  A    between atoms: C22_22  and  C27_27 
REMARK    8  A    between atoms: C27_27  and  N28_28 
ROOT
ATOM      1  C10 UI1 d          24.874  15.240  30.887  0.00  0.00     0.035 A 
ATOM      2  C11 UI1 d          24.734  13.878  31.240  0.00  0.00    -0.041 A 
ATOM      3  C12 UI1 d          25.697  12.964  30.877  0.00  0.00     0.061 A 
ATOM      4  C20 UI1 d          26.852  13.398  30.142  0.00  0.00     0.002 A 
ATOM      5  C21 UI1 d          27.825  12.445  29.756  0.00  0.00    -0.057 A 
ATOM      6  C22 UI1 d          28.971  12.849  29.038  0.00  0.00     0.008 A 
ATOM      7  C23 UI1 d          29.159  14.205  28.705  0.00  0.00    -0.069 A 
ATOM      8  C24 UI1 d          28.187  15.163  29.084  0.00  0.00    -0.071 A 
ATOM      9  C25 UI1 d          27.024  14.756  29.801  0.00  0.00    -0.023 A 
ATOM     10  C26 UI1 d          26.029  15.690  30.169  0.00  0.00    -0.057 A 
ATOM     11  H9  UI1 d          23.865  13.553  31.798  0.00  0.00     0.088 H 
ATOM     12  H14 UI1 d          27.690  11.400  30.013  0.00  0.00     0.086 H 
ATOM     13  H15 UI1 d          30.044  14.514  28.161  0.00  0.00     0.085 H 
ATOM     14  H16 UI1 d          28.328  16.207  28.828  0.00  0.00     0.084 H 
ATOM     15  H17 UI1 d          26.139  16.737  29.909  0.00  0.00     0.086 H 
ENDROOT
BRANCH   1  16
ATOM     16  C8  UI1 d          23.749  16.160  31.239  0.00  0.00     0.256 C 
ATOM     17  N7  UI1 d          22.900  15.784  32.177  0.00  0.00    -0.323 N 
ATOM     18  H8  UI1 d          22.961  14.858  32.550  0.00  0.00     0.169 HD
ATOM     19  O9  UI1 d          23.671  17.264  30.714  0.00  0.00    -0.267 OA
BRANCH  17  20
ATOM     20  C6  UI1 d          21.887  16.681  32.672  0.00  0.00     0.035 A 
ATOM     21  C5  UI1 d          20.572  16.373  32.205  0.00  0.00    -0.057 A 
ATOM     22  C4  UI1 d          19.466  17.153  32.572  0.00  0.00    -0.073 A 
ATOM     23  H7  UI1 d          20.426  15.519  31.553  0.00  0.00     0.086 H 
ATOM     24  C3  UI1 d          19.650  18.258  33.418  0.00  0.00    -0.033 A 
ATOM     25  H6  UI1 d          18.476  16.904  32.205  0.00  0.00     0.084 H 
ATOM     26  C31 UI1 d          20.950  18.576  33.890  0.00  0.00    -0.073 A 
ATOM     27  C30 UI1 d          22.081  17.784  33.512  0.00  0.00    -0.057 A 
ATOM     28  H23 UI1 d          21.089  19.429  34.545  0.00  0.00     0.084 H 
ATOM     29  H22 UI1 d          23.073  18.035  33.870  0.00  0.00     0.086 H 
BRANCH  24  30
ATOM     30  C2  UI1 d          18.440  19.117  33.817  0.00  0.00     0.103 C 
ATOM     31  H4  UI1 d          18.059  19.635  32.925  0.00  0.00     0.082 H 
ATOM     32  H5  UI1 d          17.656  18.462  34.224  0.00  0.00     0.082 H 
BRANCH  30  33
ATOM     33  N1  UI1 d          18.801  20.107  34.822  0.00  0.00    -0.075 N 
ATOM     34  H1  UI1 d          18.921  21.006  34.381  0.00  0.00     0.274 HD
ATOM     35  H2  UI1 d          19.663  19.834  35.269  0.00  0.00     0.274 HD
ATOM     36  H3  UI1 d          18.069  20.167  35.513  0.00  0.00     0.274 HD
ENDBRANCH  30  33
ENDBRANCH  24  30
ENDBRANCH  17  20
ENDBRANCH   1  16
BRANCH   3  37
ATOM     37  N13 UI1 d          25.492  11.575  31.195  0.00  0.00    -0.187 N 
ATOM     38  H10 UI1 d          25.731  10.872  30.481  0.00  0.00     0.184 HD
BRANCH  37  39
ATOM     39  C14 UI1 d          24.979  11.122  32.438  0.00  0.00     0.726 A 
ATOM     40  N15 UI1 d          25.832  11.033  33.487  0.00  0.00    -0.075 NA
ATOM     41  C16 UI1 d          25.396  10.625  34.700  0.00  0.00     0.022 A 
ATOM     42  C17 UI1 d          24.035  10.297  34.880  0.00  0.00    -0.048 A 
ATOM     43  H11 UI1 d          26.088  10.551  35.531  0.00  0.00     0.115 H 
ATOM     44  C18 UI1 d          23.181  10.395  33.771  0.00  0.00     0.022 A 
ATOM     45  H12 UI1 d          23.661   9.977  35.846  0.00  0.00     0.087 H 
ATOM     46  N19 UI1 d          23.673  10.806  32.578  0.00  0.00    -0.075 NA
ATOM     47  H13 UI1 d          22.132  10.143  33.869  0.00  0.00     0.115 H 
ENDBRANCH  37  39
ENDBRANCH   3  37
BRANCH   6  48
ATOM     48  C27 UI1 d          29.946  11.798  28.665  0.00  0.00     0.102 C 
ATOM     49  N29 UI1 d          30.391  10.933  29.567  0.00  0.00    -0.385 N 
ATOM     50  H20 UI1 d          30.059  10.987  30.541  0.00  0.00     0.157 HD
ATOM     51  H21 UI1 d          31.069  10.208  29.294  0.00  0.00     0.157 HD
BRANCH  48  52
ATOM     52  N28 UI1 d          30.374  11.718  27.437  0.00  0.00    -0.385 N 
ATOM     53  H18 UI1 d          30.318  10.823  26.929  0.00  0.00     0.157 HD
ATOM     54  H19 UI1 d          30.770  12.549  26.975  0.00  0.00     0.157 HD
ENDBRANCH  48  52
ENDBRANCH   6  48
TORSDOF 8
ENDMDL
MODEL 3
REMARK VINA RESULT:      -7.2      2.946      9.175
REMARK  8 active torsions:
REMARK  status: ('A' for Active; 'I' for Inactive)
REMARK    1  A    between atoms: N1_1  and  C2_2 
REMARK    2  A    between atoms: C2_2  and  C3_3 
REMARK    3  A    between atoms: C6_6  and  N7_7 
REMARK       I    between atoms: N7_7  and  C8_8 
REMARK    4  A    between atoms: C8_8  and  C10_10 
REMARK    5  A    between atoms: C12_12  and  N13_13 
REMARK    6  A    between atoms: N13_13  and  C14_14 
REMARK    7  A    between atoms: C22_22  and  C27_27 
REMARK    8  A    between atoms: C27_27  and  N28_28 
ROOT
ATOM      1  C10 UI1 d          23.543  14.395  32.247  0.00  0.00     0.035 A 
ATOM      2  C11 UI1 d          24.343  15.021  31.263  0.00  0.00    -0.041 A 
ATOM      3  C12 UI1 d          25.487  14.408  30.806  0.00  0.00     0.061 A 
ATOM      4  C20 UI1 d          25.865  13.123  31.326  0.00  0.00     0.002 A 
ATOM      5  C21 UI1 d          27.056  12.513  30.863  0.00  0.00    -0.057 A 
ATOM      6  C22 UI1 d          27.445  11.249  31.356  0.00  0.00     0.008 A 
ATOM      7  C23 UI1 d          26.649  10.582  32.308  0.00  0.00    -0.069 A 
ATOM      8  C24 UI1 d          25.459  11.190  32.780  0.00  0.00    -0.071 A 
ATOM      9  C25 UI1 d          25.069  12.471  32.290  0.00  0.00    -0.023 A 
ATOM     10  C26 UI1 d          23.899  13.108  32.763  0.00  0.00    -0.057 A 
ATOM     11  H9  UI1 d          24.054  15.987  30.868  0.00  0.00     0.088 H 
ATOM     12  H14 UI1 d          27.671  13.018  30.126  0.00  0.00     0.086 H 
ATOM     13  H15 UI1 d          26.945   9.608  32.679  0.00  0.00     0.085 H 
ATOM     14  H16 UI1 d          24.845  10.680  33.513  0.00  0.00     0.084 H 
ATOM     15  H17 UI1 d          23.278  12.626  33.509  0.00  0.00     0.086 H 
ENDROOT
BRANCH   1  16
ATOM     16  C8  UI1 d          22.363  15.159  32.759  0.00  0.00     0.256 C 
ATOM     17  N7  UI1 d          22.095  16.334  32.223  0.00  0.00    -0.323 N 
ATOM     18  H8  UI1 d          22.741  16.735  31.572  0.00  0.00     0.169 HD
ATOM     19  O9  UI1 d          21.629  14.660  33.604  0.00  0.00    -0.267 OA
BRANCH  17  20
ATOM     20  C6  UI1 d          20.891  17.052  32.558  0.00  0.00     0.035 A 
ATOM     21  C5  UI1 d          21.115  18.177  33.411  0.00  0.00    -0.057 A 
ATOM     22  C4  UI1 d          20.053  18.980  33.854  0.00  0.00    -0.073 A 
ATOM     23  H7  UI1 d          22.126  18.415  33.723  0.00  0.00     0.086 H 
ATOM     24  C3  UI1 d          18.743  18.676  33.450  0.00  0.00    -0.033 A 
ATOM     25  H6  UI1 d          20.243  19.828  34.502  0.00  0.00     0.084 H 
ATOM     26  C31 UI1 d          18.506  17.562  32.603  0.00  0.00    -0.073 A 
ATOM     27  C30 UI1 d          19.588  16.739  32.156  0.00  0.00    -0.057 A 
ATOM     28  H23 UI1 d          17.493  17.332  32.291  0.00  0.00     0.084 H 
ATOM     29  H22 UI1 d          19.400  15.885  31.514  0.00  0.00     0.086 H 
BRANCH  24  30
ATOM     30  C2  UI1 d          17.578  19.551  33.938  0.00  0.00     0.103 C 
ATOM     31  H4  UI1 d          16.700  19.364  33.303  0.00  0.00     0.082 H 
ATOM     32  H5  UI1 d          17.343  19.285  34.979  0.00  0.00     0.082 H 
BRANCH  30  33
ATOM     33  N1  UI1 d          17.916  20.967  33.874  0.00  0.00    -0.075 N 
ATOM     34  H1  UI1 d          18.187  21.206  32.933  0.00  0.00     0.274 HD
ATOM     35  H2  UI1 d          18.680  21.159  34.504  0.00  0.00     0.274 HD
ATOM     36  H3  UI1 d          17.113  21.516  34.142  0.00  0.00     0.274 HD
ENDBRANCH  30  33
ENDBRANCH  24  30
ENDBRANCH  17  20
ENDBRANCH   1  16
BRANCH   3  37
ATOM     37  N13 UI1 d          26.314  15.100  29.852  0.00  0.00    -0.187 N 
ATOM     38  H10 UI1 d          26.583  14.605  28.991  0.00  0.00     0.184 HD
BRANCH  37  39
ATOM     39  C14 UI1 d          26.777  16.429  30.034  0.00  0.00     0.726 A 
ATOM     40  N15 UI1 d          27.819  16.634  30.875  0.00  0.00    -0.075 NA
ATOM     41  C16 UI1 d          28.316  17.876  31.073  0.00  0.00     0.022 A 
ATOM     42  C17 UI1 d          27.748  18.973  30.389  0.00  0.00    -0.048 A 
ATOM     43  H11 UI1 d          29.145  18.029  31.753  0.00  0.00     0.115 H 
ATOM     44  C18 UI1 d          26.667  18.726  29.530  0.00  0.00     0.022 A 
ATOM     45  H12 UI1 d          28.136  19.976  30.525  0.00  0.00     0.087 H 
ATOM     46  N19 UI1 d          26.208  17.461  29.372  0.00  0.00    -0.075 NA
ATOM     47  H13 UI1 d          26.200  19.544  28.995  0.00  0.00     0.115 H 
ENDBRANCH  37  39
ENDBRANCH   3  37
BRANCH   6  48
ATOM     48  C27 UI1 d          28.703  10.671  30.829  0.00  0.00     0.102 C 
ATOM     49  N29 UI1 d          28.800  10.298  29.560  0.00  0.00    -0.385 N 
ATOM     50  H20 UI1 d          27.995  10.409  28.927  0.00  0.00     0.157 HD
ATOM     51  H21 UI1 d          29.681   9.897  29.207  0.00  0.00     0.157 HD
BRANCH  48  52
ATOM     52  N28 UI1 d          29.730  10.525  31.619  0.00  0.00    -0.385 N 
ATOM     53  H18 UI1 d          30.623  10.174  31.244  0.00  0.00     0.157 HD
ATOM     54  H19 UI1 d          29.648  10.760  32.618  0.00  0.00     0.157 HD
ENDBRANCH  48  52
ENDBRANCH   6  48
TORSDOF 8
ENDMDL
MODEL 4
REMARK VINA RESULT:      -7.0      3.109      9.296
REMARK  8 active torsions:
REMARK  status: ('A' for Active; 'I' for Inactive)
REMARK    1  A    between atoms: N1_1  and  C2_2 
REMARK    2  A    between atoms: C2_2  and  C3_3 
REMARK    3  A    between atoms: C6_6  and  N7_7 
REMARK       I    between atoms: N7_7  and  C8_8 
REMARK    4  A    between atoms: C8_8  and  C10_10 
REMARK    5  A    between atoms: C12_12  and  N13_13 
REMARK    6  A    between atoms: N13_13  and  C14_14 
REMARK    7  A    between atoms: C22_22  and  C27_27 
REMARK    8  A    between atoms: C27_27  and  N28_28 
ROOT
ATOM      1  C10 UI1 d          23.941  15.161  31.200  0.00  0.00     0.035 A 
ATOM      2  C11 UI1 d          24.975  15.544  30.315  0.00  0.00    -0.041 A 
ATOM      3  C12 UI1 d          26.076  14.736  30.142  0.00  0.00     0.061 A 
ATOM      4  C20 UI1 d          26.170  13.495  30.859  0.00  0.00     0.002 A 
ATOM      5  C21 UI1 d          27.317  12.683  30.688  0.00  0.00    -0.057 A 
ATOM      6  C22 UI1 d          27.429  11.457  31.379  0.00  0.00     0.008 A 
ATOM      7  C23 UI1 d          26.398  11.029  32.238  0.00  0.00    -0.069 A 
ATOM      8  C24 UI1 d          25.250  11.839  32.417  0.00  0.00    -0.071 A 
ATOM      9  C25 UI1 d          25.138  13.083  31.728  0.00  0.00    -0.023 A 
ATOM     10  C26 UI1 d          24.014  13.919  31.910  0.00  0.00    -0.057 A 
ATOM     11  H9  UI1 d          24.900  16.478  29.771  0.00  0.00     0.088 H 
ATOM     12  H14 UI1 d          28.112  13.003  30.024  0.00  0.00     0.086 H 
ATOM     13  H15 UI1 d          26.483  10.083  32.761  0.00  0.00     0.085 H 
ATOM     14  H16 UI1 d          24.456  11.514  33.079  0.00  0.00     0.084 H 
ATOM     15  H17 UI1 d          23.215  13.624  32.579  0.00  0.00     0.086 H 
ENDROOT
BRANCH   1  16
ATOM     16  C8  UI1 d          22.819  16.129  31.404  0.00  0.00     0.256 C 
ATOM     17  N7  UI1 d          21.794  15.754  32.146  0.00  0.00    -0.323 N 
ATOM     18  H8  UI1 d          21.737  14.807  32.462  0.00  0.00     0.169 HD
ATOM     19  O9  UI1 d          22.896  17.264  30.948  0.00  0.00    -0.267 OA
BRANCH  17  20
ATOM     20  C6  UI1 d          20.755  16.684  32.510  0.00  0.00     0.035 A 
ATOM     21  C5  UI1 d          21.210  17.753  33.343  0.00  0.00    -0.057 A 
ATOM     22  C4  UI1 d          20.330  18.741  33.809  0.00  0.00    -0.073 A 
ATOM     23  H7  UI1 d          22.257  17.801  33.621  0.00  0.00     0.086 H 
ATOM     24  C3  UI1 d          18.974  18.683  33.449  0.00  0.00    -0.033 A 
ATOM     25  H6  UI1 d          20.694  19.542  34.442  0.00  0.00     0.084 H 
ATOM     26  C31 UI1 d          18.508  17.628  32.623  0.00  0.00    -0.073 A 
ATOM     27  C30 UI1 d          19.404  16.616  32.151  0.00  0.00    -0.057 A 
ATOM     28  H23 UI1 d          17.460  17.588  32.345  0.00  0.00     0.084 H 
ATOM     29  H22 UI1 d          19.041  15.808  31.525  0.00  0.00     0.086 H 
BRANCH  24  30
ATOM     30  C2  UI1 d          18.008  19.761  33.963  0.00  0.00     0.103 C 
ATOM     31  H4  UI1 d          17.279  19.994  33.173  0.00  0.00     0.082 H 
ATOM     32  H5  UI1 d          17.480  19.376  34.848  0.00  0.00     0.082 H 
BRANCH  30  33
ATOM     33  N1  UI1 d          18.718  20.980  34.327  0.00  0.00    -0.075 N 
ATOM     34  H1  UI1 d          19.711  20.809  34.306  0.00  0.00     0.274 HD
ATOM     35  H2  UI1 d          18.445  21.263  35.255  0.00  0.00     0.274 HD
ATOM     36  H3  UI1 d          18.489  21.711  33.671  0.00  0.00     0.274 HD
ENDBRANCH  30  33
ENDBRANCH  24  30
ENDBRANCH  17  20
ENDBRANCH   1  16
BRANCH   3  37
ATOM     37  N13 UI1 d          27.140  15.186  29.283  0.00  0.00    -0.187 N 
ATOM     38  H10 UI1 d          27.258  14.723  28.371  0.00  0.00     0.184 HD
BRANCH  37  39
ATOM     39  C14 UI1 d          28.036  16.232  29.625  0.00  0.00     0.726 A 
ATOM     40  N15 UI1 d          28.449  16.326  30.912  0.00  0.00    -0.075 NA
ATOM     41  C16 UI1 d          29.316  17.290  31.292  0.00  0.00     0.022 A 
ATOM     42  C17 UI1 d          29.805  18.207  30.337  0.00  0.00    -0.048 A 
ATOM     43  H11 UI1 d          29.635  17.360  32.326  0.00  0.00     0.115 H 
ATOM     44  C18 UI1 d          29.352  18.085  29.015  0.00  0.00     0.022 A 
ATOM     45  H12 UI1 d          30.509  18.983  30.617  0.00  0.00     0.087 H 
ATOM     46  N19 UI1 d          28.480  17.101  28.690  0.00  0.00    -0.075 NA
ATOM     47  H13 UI1 d          29.699  18.776  28.255  0.00  0.00     0.115 H 
ENDBRANCH  37  39
ENDBRANCH   3  37
BRANCH   6  48
ATOM     48  C27 UI1 d          28.657  10.660  31.154  0.00  0.00     0.102 C 
ATOM     49  N29 UI1 d          29.017  10.297  29.930  0.00  0.00    -0.385 N 
ATOM     50  H20 UI1 d          28.440  10.570  29.121  0.00  0.00     0.157 HD
ATOM     51  H21 UI1 d          29.873   9.742  29.788  0.00  0.00     0.157 HD
BRANCH  48  52
ATOM     52  N28 UI1 d          29.396  10.308  32.168  0.00  0.00    -0.385 N 
ATOM     53  H18 UI1 d          30.339   9.925  32.011  0.00  0.00     0.157 HD
ATOM     54  H19 UI1 d          29.036  10.413  33.128  0.00  0.00     0.157 HD
ENDBRANCH  48  52
ENDBRANCH   6  48
TORSDOF 8
ENDMDL
MODEL 5
REMARK VINA RESULT:      -6.6      2.834      9.305
REMARK  8 active torsions:
REMARK  status: ('A' for Active; 'I' for Inactive)
REMARK    1  A    between atoms: N1_1  and  C2_2 
REMARK    2  A    between atoms: C2_2  and  C3_3 
REMARK    3  A    between atoms: C6_6  and  N7_7 
REMARK       I    between atoms: N7_7  and  C8_8 
REMARK    4  A    between atoms: C8_8  and  C10_10 
REMARK    5  A    between atoms: C12_12  and  N13_13 
REMARK    6  A    between atoms: N13_13  and  C14_14 
REMARK    7  A    between atoms: C22_22  and  C27_27 
REMARK    8  A    between atoms: C27_27  and  N28_28 
ROOT
ATOM      1  C10 UI1 d          24.390  14.158  32.255  0.00  0.00     0.035 A 
ATOM      2  C11 UI1 d          24.999  13.256  33.157  0.00  0.00    -0.041 A 
ATOM      3  C12 UI1 d          26.103  12.529  32.774  0.00  0.00     0.061 A 
ATOM      4  C20 UI1 d          26.644  12.695  31.454  0.00  0.00     0.002 A 
ATOM      5  C21 UI1 d          27.767  11.927  31.064  0.00  0.00    -0.057 A 
ATOM      6  C22 UI1 d          28.318  12.076  29.773  0.00  0.00     0.008 A 
ATOM      7  C23 UI1 d          27.759  12.996  28.865  0.00  0.00    -0.069 A 
ATOM      8  C24 UI1 d          26.631  13.764  29.246  0.00  0.00    -0.071 A 
ATOM      9  C25 UI1 d          26.067  13.608  30.546  0.00  0.00    -0.023 A 
ATOM     10  C26 UI1 d          24.928  14.346  30.941  0.00  0.00    -0.057 A 
ATOM     11  H9  UI1 d          24.593  13.135  34.155  0.00  0.00     0.088 H 
ATOM     12  H14 UI1 d          28.207  11.221  31.761  0.00  0.00     0.086 H 
ATOM     13  H15 UI1 d          28.189  13.115  27.877  0.00  0.00     0.085 H 
ATOM     14  H16 UI1 d          26.197  14.471  28.548  0.00  0.00     0.084 H 
ATOM     15  H17 UI1 d          24.465  15.046  30.255  0.00  0.00     0.086 H 
ENDROOT
BRANCH   1  16
ATOM     16  C8  UI1 d          23.144  14.848  32.710  0.00  0.00     0.256 C 
ATOM     17  N7  UI1 d          22.946  16.098  32.338  0.00  0.00    -0.323 N 
ATOM     18  H8  UI1 d          23.675  16.588  31.859  0.00  0.00     0.169 HD
ATOM     19  O9  UI1 d          22.300  14.231  33.350  0.00  0.00    -0.267 OA
BRANCH  17  20
ATOM     20  C6  UI1 d          21.701  16.771  32.610  0.00  0.00     0.035 A 
ATOM     21  C5  UI1 d          21.846  17.934  33.429  0.00  0.00    -0.057 A 
ATOM     22  C4  UI1 d          20.736  18.702  33.809  0.00  0.00    -0.073 A 
ATOM     23  H7  UI1 d          22.835  18.228  33.763  0.00  0.00     0.086 H 
ATOM     24  C3  UI1 d          19.455  18.325  33.375  0.00  0.00    -0.033 A 
ATOM     25  H6  UI1 d          20.867  19.580  34.432  0.00  0.00     0.084 H 
ATOM     26  C31 UI1 d          19.295  17.174  32.561  0.00  0.00    -0.073 A 
ATOM     27  C30 UI1 d          20.427  16.385  32.178  0.00  0.00    -0.057 A 
ATOM     28  H23 UI1 d          18.304  16.887  32.226  0.00  0.00     0.084 H 
ATOM     29  H22 UI1 d          20.299  15.503  31.561  0.00  0.00     0.086 H 
BRANCH  24  30
ATOM     30  C2  UI1 d          18.237  19.163  33.794  0.00  0.00     0.103 C 
ATOM     31  H4  UI1 d          17.830  19.671  32.908  0.00  0.00     0.082 H 
ATOM     32  H5  UI1 d          17.473  18.495  34.218  0.00  0.00     0.082 H 
BRANCH  30  33
ATOM     33  N1  UI1 d          18.598  20.163  34.790  0.00  0.00    -0.075 N 
ATOM     34  H1  UI1 d          18.437  21.085  34.415  0.00  0.00     0.274 HD
ATOM     35  H2  UI1 d          19.573  20.063  35.029  0.00  0.00     0.274 HD
ATOM     36  H3  UI1 d          18.035  20.033  35.617  0.00  0.00     0.274 HD
ENDBRANCH  30  33
ENDBRANCH  24  30
ENDBRANCH  17  20
ENDBRANCH   1  16
BRANCH   3  37
ATOM     37  N13 UI1 d          26.659  11.572  33.694  0.00  0.00    -0.187 N 
ATOM     38  H10 UI1 d          26.403  10.581  33.580  0.00  0.00     0.184 HD
BRANCH  37  39
ATOM     39  C14 UI1 d          27.542  11.918  34.750  0.00  0.00     0.726 A 
ATOM     40  N15 UI1 d          27.940  13.209  34.853  0.00  0.00    -0.075 NA
ATOM     41  C16 UI1 d          28.765  13.601  35.849  0.00  0.00     0.022 A 
ATOM     42  C17 UI1 d          29.212  12.658  36.799  0.00  0.00    -0.048 A 
ATOM     43  H11 UI1 d          29.082  14.635  35.919  0.00  0.00     0.115 H 
ATOM     44  C18 UI1 d          28.786  11.329  36.659  0.00  0.00     0.022 A 
ATOM     45  H12 UI1 d          29.866  12.951  37.612  0.00  0.00     0.087 H 
ATOM     46  N19 UI1 d          27.961  10.991  35.639  0.00  0.00    -0.075 NA
ATOM     47  H13 UI1 d          29.115  10.575  37.364  0.00  0.00     0.115 H 
ENDBRANCH  37  39
ENDBRANCH   3  37
BRANCH   6  48
ATOM     48  C27 UI1 d          29.492  11.238  29.434  0.00  0.00     0.102 C 
ATOM     49  N29 UI1 d          29.927  10.307  30.272  0.00  0.00    -0.385 N 
ATOM     50  H20 UI1 d          29.447  10.159  31.171  0.00  0.00     0.157 HD
ATOM     51  H21 UI1 d          30.745   9.732  30.023  0.00  0.00     0.157 HD
BRANCH  48  52
ATOM     52  N28 UI1 d          30.108  11.416  28.299  0.00  0.00    -0.385 N 
ATOM     53  H18 UI1 d          31.088  11.117  28.192  0.00  0.00     0.157 HD
ATOM     54  H19 UI1 d          29.614  11.855  27.509  0.00  0.00     0.157 HD
ENDBRANCH  48  52
ENDBRANCH   6  48
TORSDOF 8
ENDMDL
MODEL 6
REMARK VINA RESULT:      -6.4      2.776      8.412
REMARK  8 active torsions:
REMARK  status: ('A' for Active; 'I' for Inactive)
REMARK    1  A    between atoms: N1_1  and  C2_2 
REMARK    2  A    between atoms: C2_2  and  C3_3 
REMARK    3  A    between atoms: C6_6  and  N7_7 
REMARK       I    between atoms: N7_7  and  C8_8 
REMARK    4  A    between atoms: C8_8  and  C10_10 
REMARK    5  A    between atoms: C12_12  and  N13_13 
REMARK    6  A    between atoms: N13_13  and  C14_14 
REMARK    7  A    between atoms: C22_22  and  C27_27 
REMARK    8  A    between atoms: C27_27  and  N28_28 
ROOT
ATOM      1  C10 UI1 d          24.158  15.210  33.269  0.00  0.00     0.035 A 
ATOM      2  C11 UI1 d          25.221  15.838  33.958  0.00  0.00    -0.041 A 
ATOM      3  C12 UI1 d          26.307  15.105  34.378  0.00  0.00     0.061 A 
ATOM      4  C20 UI1 d          26.363  13.695  34.109  0.00  0.00     0.002 A 
ATOM      5  C21 UI1 d          27.476  12.948  34.565  0.00  0.00    -0.057 A 
ATOM      6  C22 UI1 d          27.555  11.562  34.308  0.00  0.00     0.008 A 
ATOM      7  C23 UI1 d          26.531  10.913  33.590  0.00  0.00    -0.069 A 
ATOM      8  C24 UI1 d          25.412  11.654  33.136  0.00  0.00    -0.071 A 
ATOM      9  C25 UI1 d          25.325  13.052  33.402  0.00  0.00    -0.023 A 
ATOM     10  C26 UI1 d          24.208  13.808  32.980  0.00  0.00    -0.057 A 
ATOM     11  H9  UI1 d          25.179  16.903  34.156  0.00  0.00     0.088 H 
ATOM     12  H14 UI1 d          28.271  13.442  35.113  0.00  0.00     0.086 H 
ATOM     13  H15 UI1 d          26.598   9.851  33.387  0.00  0.00     0.085 H 
ATOM     14  H16 UI1 d          24.622  11.158  32.585  0.00  0.00     0.084 H 
ATOM     15  H17 UI1 d          23.397  13.331  32.443  0.00  0.00     0.086 H 
ENDROOT
BRANCH   1  16
ATOM     16  C8  UI1 d          22.972  16.052  32.921  0.00  0.00     0.256 C 
ATOM     17  N7  UI1 d          21.858  15.882  33.607  0.00  0.00    -0.323 N 
ATOM     18  H8  UI1 d          21.796  15.129  34.262  0.00  0.00     0.169 HD
ATOM     19  O9  UI1 d          23.069  16.925  32.066  0.00  0.00    -0.267 OA
BRANCH  17  20
ATOM     20  C6  UI1 d          20.730  16.761  33.429  0.00  0.00     0.035 A 
ATOM     21  C5  UI1 d          20.787  17.936  34.241  0.00  0.00    -0.057 A 
ATOM     22  C4  UI1 d          19.763  18.894  34.212  0.00  0.00    -0.073 A 
ATOM     23  H7  UI1 d          21.639  18.090  34.893  0.00  0.00     0.086 H 
ATOM     24  C3  UI1 d          18.659  18.698  33.366  0.00  0.00    -0.033 A 
ATOM     25  H6  UI1 d          19.823  19.778  34.837  0.00  0.00     0.084 H 
ATOM     26  C31 UI1 d          18.588  17.536  32.554  0.00  0.00    -0.073 A 
ATOM     27  C30 UI1 d          19.630  16.555  32.588  0.00  0.00    -0.057 A 
ATOM     28  H23 UI1 d          17.735  17.390  31.901  0.00  0.00     0.084 H 
ATOM     29  H22 UI1 d          19.568  15.666  31.971  0.00  0.00     0.086 H 
BRANCH  24  30
ATOM     30  C2  UI1 d          17.534  19.744  33.336  0.00  0.00     0.103 C 
ATOM     31  H4  UI1 d          17.296  19.984  32.290  0.00  0.00     0.082 H 
ATOM     32  H5  UI1 d          16.643  19.325  33.828  0.00  0.00     0.082 H 
BRANCH  30  33
ATOM     33  N1  UI1 d          17.926  20.965  34.026  0.00  0.00    -0.075 N 
ATOM     34  H1  UI1 d          17.102  21.469  34.313  0.00  0.00     0.274 HD
ATOM     35  H2  UI1 d          18.472  21.542  33.404  0.00  0.00     0.274 HD
ATOM     36  H3  UI1 d          18.477  20.731  34.838  0.00  0.00     0.274 HD
ENDBRANCH  30  33
ENDBRANCH  24  30
ENDBRANCH  17  20
ENDBRANCH   1  16
BRANCH   3  37
ATOM     37  N13 UI1 d          27.341  15.763  35.133  0.00  0.00    -0.187 N 
ATOM     38  H10 UI1 d          28.238  15.274  35.260  0.00  0.00     0.184 HD
BRANCH  37  39
ATOM     39  C14 UI1 d          27.192  17.051  35.711  0.00  0.00     0.726 A 
ATOM     40  N15 UI1 d          27.674  18.118  35.030  0.00  0.00    -0.075 NA
ATOM     41  C16 UI1 d          27.544  19.370  35.523  0.00  0.00     0.022 A 
ATOM     42  C17 UI1 d          26.890  19.571  36.758  0.00  0.00    -0.048 A 
ATOM     43  H11 UI1 d          27.939  20.216  34.973  0.00  0.00     0.115 H 
ATOM     44  C18 UI1 d          26.408  18.443  37.439  0.00  0.00     0.022 A 
ATOM     45  H12 UI1 d          26.765  20.566  37.168  0.00  0.00     0.087 H 
ATOM     46  N19 UI1 d          26.569  17.211  36.900  0.00  0.00    -0.075 NA
ATOM     47  H13 UI1 d          25.908  18.558  38.394  0.00  0.00     0.115 H 
ENDBRANCH  37  39
ENDBRANCH   3  37
BRANCH   6  48
ATOM     48  C27 UI1 d          28.747  10.843  34.816  0.00  0.00     0.102 C 
ATOM     49  N29 UI1 d          29.700  10.438  33.988  0.00  0.00    -0.385 N 
ATOM     50  H20 UI1 d          29.619  10.623  32.978  0.00  0.00     0.157 HD
ATOM     51  H21 UI1 d          30.523   9.939  34.355  0.00  0.00     0.157 HD
BRANCH  48  52
ATOM     52  N28 UI1 d          28.863  10.603  36.092  0.00  0.00    -0.385 N 
ATOM     53  H18 UI1 d          28.048  10.710  36.713  0.00  0.00     0.157 HD
ATOM     54  H19 UI1 d          29.770  10.305  36.479  0.00  0.00     0.157 HD
ENDBRANCH  48  52
ENDBRANCH   6  48
TORSDOF 8
ENDMDL
MODEL 7
REMARK VINA RESULT:      -6.0      3.291      8.975
REMARK  8 active torsions:
REMARK  status: ('A' for Active; 'I' for Inactive)
REMARK    1  A    between atoms: N1_1  and  C2_2 
REMARK    2  A    between atoms: C2_2  and  C3_3 
REMARK    3  A    between atoms: C6_6  and  N7_7 
REMARK       I    between atoms: N7_7  and  C8_8 
REMARK    4  A    between atoms: C8_8  and  C10_10 
REMARK    5  A    between atoms: C12_12  and  N13_13 
REMARK    6  A    between atoms: N13_13  and  C14_14 
REMARK    7  A    between atoms: C22_22  and  C27_27 
REMARK    8  A    between atoms: C27_27  and  N28_28 
ROOT
ATOM      1  C10 UI1 d          24.615  15.661  31.261  0.00  0.00     0.035 A 
ATOM      2  C11 UI1 d          25.795  16.405  31.029  0.00  0.00    -0.041 A 
ATOM      3  C12 UI1 d          27.012  15.769  30.946  0.00  0.00     0.061 A 
ATOM      4  C20 UI1 d          27.083  14.341  31.088  0.00  0.00     0.002 A 
ATOM      5  C21 UI1 d          28.344  13.701  31.021  0.00  0.00    -0.057 A 
ATOM      6  C22 UI1 d          28.436  12.298  31.155  0.00  0.00     0.008 A 
ATOM      7  C23 UI1 d          27.275  11.525  31.348  0.00  0.00    -0.069 A 
ATOM      8  C24 UI1 d          26.011  12.160  31.421  0.00  0.00    -0.071 A 
ATOM      9  C25 UI1 d          25.915  13.577  31.297  0.00  0.00    -0.023 A 
ATOM     10  C26 UI1 d          24.668  14.236  31.390  0.00  0.00    -0.057 A 
ATOM     11  H9  UI1 d          25.740  17.482  30.917  0.00  0.00     0.088 H 
ATOM     12  H14 UI1 d          29.241  14.289  30.867  0.00  0.00     0.086 H 
ATOM     13  H15 UI1 d          27.348  10.448  31.441  0.00  0.00     0.085 H 
ATOM     14  H16 UI1 d          25.116  11.568  31.571  0.00  0.00     0.084 H 
ATOM     15  H17 UI1 d          23.761  13.667  31.557  0.00  0.00     0.086 H 
ENDROOT
BRANCH   1  16
ATOM     16  C8  UI1 d          23.342  16.428  31.427  0.00  0.00     0.256 C 
ATOM     17  N7  UI1 d          22.454  15.990  32.299  0.00  0.00    -0.323 N 
ATOM     18  H8  UI1 d          22.600  15.106  32.746  0.00  0.00     0.169 HD
ATOM     19  O9  UI1 d          23.172  17.476  30.815  0.00  0.00    -0.267 OA
BRANCH  17  20
ATOM     20  C6  UI1 d          21.279  16.759  32.621  0.00  0.00     0.035 A 
ATOM     21  C5  UI1 d          21.525  17.818  33.549  0.00  0.00    -0.057 A 
ATOM     22  C4  UI1 d          20.491  18.658  33.989  0.00  0.00    -0.073 A 
ATOM     23  H7  UI1 d          22.531  17.976  33.921  0.00  0.00     0.086 H 
ATOM     24  C3  UI1 d          19.187  18.458  33.508  0.00  0.00    -0.033 A 
ATOM     25  H6  UI1 d          20.697  19.454  34.695  0.00  0.00     0.084 H 
ATOM     26  C31 UI1 d          18.928  17.410  32.586  0.00  0.00    -0.073 A 
ATOM     27  C30 UI1 d          19.981  16.549  32.140  0.00  0.00    -0.057 A 
ATOM     28  H23 UI1 d          17.920  17.261  32.215  0.00  0.00     0.084 H 
ATOM     29  H22 UI1 d          19.776  15.747  31.441  0.00  0.00     0.086 H 
BRANCH  24  30
ATOM     30  C2  UI1 d          18.053  19.373  33.993  0.00  0.00     0.103 C 
ATOM     31  H4  UI1 d          17.508  19.762  33.120  0.00  0.00     0.082 H 
ATOM     32  H5  UI1 d          17.366  18.789  34.623  0.00  0.00     0.082 H 
BRANCH  30  33
ATOM     33  N1  UI1 d          18.569  20.494  34.767  0.00  0.00    -0.075 N 
ATOM     34  H1  UI1 d          18.118  20.516  35.668  0.00  0.00     0.274 HD
ATOM     35  H2  UI1 d          18.384  21.355  34.277  0.00  0.00     0.274 HD
ATOM     36  H3  UI1 d          19.564  20.385  34.893  0.00  0.00     0.274 HD
ENDBRANCH  30  33
ENDBRANCH  24  30
ENDBRANCH  17  20
ENDBRANCH   1  16
BRANCH   3  37
ATOM     37  N13 UI1 d          28.201  16.562  30.773  0.00  0.00    -0.187 N 
ATOM     38  H10 UI1 d          28.981  16.159  30.235  0.00  0.00     0.184 HD
BRANCH  37  39
ATOM     39  C14 UI1 d          28.357  17.869  31.304  0.00  0.00     0.726 A 
ATOM     40  N15 UI1 d          28.787  17.994  32.582  0.00  0.00    -0.075 NA
ATOM     41  C16 UI1 d          28.972  19.214  33.134  0.00  0.00     0.022 A 
ATOM     42  C17 UI1 d          28.721  20.373  32.369  0.00  0.00    -0.048 A 
ATOM     43  H11 UI1 d          29.310  19.302  34.160  0.00  0.00     0.115 H 
ATOM     44  C18 UI1 d          28.271  20.208  31.051  0.00  0.00     0.022 A 
ATOM     45  H12 UI1 d          28.871  21.362  32.788  0.00  0.00     0.087 H 
ATOM     46  N19 UI1 d          28.101  18.961  30.549  0.00  0.00    -0.075 NA
ATOM     47  H13 UI1 d          28.060  21.075  30.435  0.00  0.00     0.115 H 
ENDBRANCH  37  39
ENDBRANCH   3  37
BRANCH   6  48
ATOM     48  C27 UI1 d          29.788  11.696  31.077  0.00  0.00     0.102 C 
ATOM     49  N29 UI1 d          30.351  11.151  32.146  0.00  0.00    -0.385 N 
ATOM     50  H20 UI1 d          29.848  11.141  33.045  0.00  0.00     0.157 HD
ATOM     51  H21 UI1 d          31.292  10.736  32.078  0.00  0.00     0.157 HD
BRANCH  48  52
ATOM     52  N28 UI1 d          30.435  11.701  29.946  0.00  0.00    -0.385 N 
ATOM     53  H18 UI1 d          31.089  12.467  29.729  0.00  0.00     0.157 HD
ATOM     54  H19 UI1 d          30.292  10.939  29.268  0.00  0.00     0.157 HD
ENDBRANCH  48  52
ENDBRANCH   6  48
TORSDOF 8
ENDMDL
