MODEL 1
REMARK VINA RESULT:      -6.0      0.000      0.000
REMARK  9 active torsions:
REMARK  status: ('A' for Active; 'I' for Inactive)
REMARK    1  A    between atoms: C1_1  and  S1_12 
REMARK    2  A    between atoms: C2_2  and  O2_3 
REMARK    3  A    between atoms: C3_4  and  O3_5 
REMARK    4  A    between atoms: C4_6  and  O4_7 
REMARK    5  A    between atoms: C5_8  and  C6_10 
REMARK    6  A    between atoms: C6_10  and  O6_11 
REMARK    7  A    between atoms: S1_12  and  C1'_13 
REMARK    8  A    between atoms: C1'_13  and  C2'_14 
REMARK    9  A    between atoms: C1'_13  and  C3'_15 
ROOT
ATOM      1  C1  IPT d          15.088  27.619  75.509  0.00  0.00     0.110 C 
ATOM      2  C2  IPT d          13.746  27.384  76.239  0.00  0.00     0.096 C 
ATOM      3  C3  IPT d          12.682  26.983  75.214  0.00  0.00     0.090 C 
ATOM      4  C4  IPT d          12.538  28.103  74.179  0.00  0.00     0.089 C 
ATOM      5  C5  IPT d          13.926  28.322  73.513  0.00  0.00     0.087 C 
ATOM      6  O5  IPT d          14.934  28.659  74.505  0.00  0.00    -0.363 OA
ATOM      7  H1  IPT d          15.393  26.684  75.015  0.00  0.00     0.104 H 
ATOM      8  H2  IPT d          13.435  28.311  76.744  0.00  0.00     0.092 H 
ATOM      9  H4  IPT d          12.996  26.057  74.709  0.00  0.00     0.091 H 
ATOM     10  H6  IPT d          11.815  27.797  73.410  0.00  0.00     0.091 H 
ATOM     11  H8  IPT d          14.224  27.392  73.008  0.00  0.00     0.090 H 
ENDROOT
BRANCH   1  12
ATOM     12  S1  IPT d          16.374  28.110  76.695  0.00  0.00    -0.131 SA
BRANCH  12  13
ATOM     13  C1' IPT d          17.878  27.524  75.843  0.00  0.00    -0.014 C 
ATOM     14  H12 IPT d          17.629  26.642  75.235  0.00  0.00     0.055 H 
BRANCH  13  15
ATOM     15  C2' IPT d          18.455  28.611  74.936  0.00  0.00    -0.065 C 
ATOM     16  H13 IPT d          19.359  28.231  74.437  0.00  0.00     0.028 H 
ATOM     17  H14 IPT d          18.714  29.494  75.539  0.00  0.00     0.028 H 
ATOM     18  H15 IPT d          17.709  28.892  74.178  0.00  0.00     0.028 H 
ENDBRANCH  13  15
BRANCH  13  19
ATOM     19  C3' IPT d          18.927  27.142  76.901  0.00  0.00    -0.065 C 
ATOM     20  H16 IPT d          19.840  26.787  76.400  0.00  0.00     0.028 H 
ATOM     21  H17 IPT d          18.526  26.343  77.542  0.00  0.00     0.028 H 
ATOM     22  H18 IPT d          19.165  28.022  77.516  0.00  0.00     0.028 H 
ENDBRANCH  13  19
ENDBRANCH  12  13
ENDBRANCH   1  12
BRANCH   2  23
ATOM     23  O2  IPT d          13.910  26.352  77.207  0.00  0.00    -0.389 OA
ATOM     24  H3  IPT d          13.085  26.208  77.656  0.00  0.00     0.210 HD
ENDBRANCH   2  23
BRANCH   3  25
ATOM     25  O3  IPT d          11.436  26.761  75.855  0.00  0.00    -0.390 OA
ATOM     26  H5  IPT d          11.160  27.557  76.293  0.00  0.00     0.210 HD
ENDBRANCH   3  25
BRANCH   5  27
ATOM     27  C6  IPT d          13.841  29.453  72.472  0.00  0.00     0.043 C 
ATOM     28  H9  IPT d          14.543  29.246  71.650  0.00  0.00     0.078 H 
ATOM     29  H10 IPT d          14.105  30.408  72.948  0.00  0.00     0.078 H 
BRANCH  27  30
ATOM     30  O6  IPT d          12.515  29.535  71.951  0.00  0.00    -0.398 OA
ATOM     31  H11 IPT d          12.471  30.235  71.309  0.00  0.00     0.209 HD
ENDBRANCH  27  30
ENDBRANCH   5  27
BRANCH   4  32
ATOM     32  O4  IPT d          12.056  29.308  74.808  0.00  0.00    -0.390 OA
ATOM     33  H7  IPT d          11.209  29.141  75.204  0.00  0.00     0.210 HD
ENDBRANCH   4  32
TORSDOF 9
ENDMDL
