REMARK  9 active torsions:
REMARK  status: ('A' for Active; 'I' for Inactive)
REMARK    1  A    between atoms: C1_1  and  S1_12 
REMARK    2  A    between atoms: C2_2  and  O2_3 
REMARK    3  A    between atoms: C3_4  and  O3_5 
REMARK    4  A    between atoms: C4_6  and  O4_7 
REMARK    5  A    between atoms: C5_8  and  C6_10 
REMARK    6  A    between atoms: C6_10  and  O6_11 
REMARK    7  A    between atoms: S1_12  and  C1'_13 
REMARK    8  A    between atoms: C1'_13  and  C2'_14 
REMARK    9  A    between atoms: C1'_13  and  C3'_15 
ROOT
ATOM      1  C1  IPT d          14.735  27.549  75.792  0.00  0.00     0.110 C 
ATOM      2  C2  IPT d          13.407  27.473  76.579  0.00  0.00     0.096 C 
ATOM      3  C3  IPT d          12.268  27.146  75.609  0.00  0.00     0.090 C 
ATOM      4  C4  IPT d          12.194  28.241  74.540  0.00  0.00     0.089 C 
ATOM      5  C5  IPT d          13.569  28.299  73.816  0.00  0.00     0.087 C 
ATOM      6  O5  IPT d          14.644  28.566  74.757  0.00  0.00    -0.363 OA
ATOM      7  H1  IPT d          14.927  26.573  75.322  0.00  0.00     0.104 H 
ATOM      8  H2  IPT d          13.209  28.442  77.061  0.00  0.00     0.092 H 
ATOM      9  H4  IPT d          12.470  26.178  75.127  0.00  0.00     0.091 H 
ATOM     10  H6  IPT d          11.414  27.983  73.809  0.00  0.00     0.091 H 
ATOM     11  H8  IPT d          13.753  27.328  73.334  0.00  0.00     0.090 H 
ENDROOT
BRANCH   1  12
ATOM     12  S1  IPT d          16.109  27.948  76.912  0.00  0.00    -0.131 SA
BRANCH  12  13
ATOM     13  C1' IPT d          17.526  27.886  75.763  0.00  0.00    -0.014 C 
ATOM     14  H12 IPT d          17.386  27.051  75.061  0.00  0.00     0.055 H 
BRANCH  13  15
ATOM     15  C2' IPT d          17.651  29.189  74.972  0.00  0.00    -0.065 C 
ATOM     16  H13 IPT d          18.511  29.123  74.290  0.00  0.00     0.028 H 
ATOM     17  H14 IPT d          17.799  30.028  75.668  0.00  0.00     0.028 H 
ATOM     18  H15 IPT d          16.733  29.354  74.389  0.00  0.00     0.028 H 
ENDBRANCH  13  15
BRANCH  13  19
ATOM     19  C3' IPT d          18.812  27.666  76.577  0.00  0.00    -0.065 C 
ATOM     20  H16 IPT d          19.675  27.627  75.896  0.00  0.00     0.028 H 
ATOM     21  H17 IPT d          18.738  26.718  77.130  0.00  0.00     0.028 H 
ATOM     22  H18 IPT d          18.943  28.496  77.287  0.00  0.00     0.028 H 
ENDBRANCH  13  19
ENDBRANCH  12  13
ENDBRANCH   1  12
BRANCH   2  23
ATOM     23  O2  IPT d          13.507  26.462  77.577  0.00  0.00    -0.389 OA
ATOM     24  H3  IPT d          12.691  26.415  78.061  0.00  0.00     0.210 HD
ENDBRANCH   2  23
BRANCH   3  25
ATOM     25  O3  IPT d          11.033  27.070  76.303  0.00  0.00    -0.390 OA
ATOM     26  H5  IPT d          10.854  27.904  76.721  0.00  0.00     0.210 HD
ENDBRANCH   3  25
BRANCH   5  27
ATOM     27  C6  IPT d          13.553  29.398  72.738  0.00  0.00     0.043 C 
ATOM     28  H9  IPT d          14.481  29.346  72.150  0.00  0.00     0.078 H 
ATOM     29  H10 IPT d          13.481  30.383  73.222  0.00  0.00     0.078 H 
BRANCH  27  30
ATOM     30  O6  IPT d          12.434  29.214  71.872  0.00  0.00    -0.398 OA
ATOM     31  H11 IPT d          12.432  29.896  71.210  0.00  0.00     0.209 HD
ENDBRANCH  27  30
ENDBRANCH   5  27
BRANCH   4  32
ATOM     32  O4  IPT d          11.858  29.508  75.142  0.00  0.00    -0.390 OA
ATOM     33  H7  IPT d          11.015  29.438  75.574  0.00  0.00     0.210 HD
ENDBRANCH   4  32
TORSDOF 9
