MODEL 1
REMARK VINA RESULT:      -7.5      0.000      0.000
REMARK WARNING: 32 MAX_TORS EXCEEDED!!!
REMARK  33 active torsions:
REMARK  status: ('A' for Active; 'I' for Inactive)
REMARK    1  A    between atoms: CA_2  and  C_3 
REMARK       I    between atoms: C_3  and  N_8 
REMARK    2  A    between atoms: N_8  and  CA_9 
REMARK    3  A    between atoms: CA_9  and  C_10 
REMARK    4  A    between atoms: CA_9  and  CB_12 
REMARK       I    between atoms: C_10  and  N_18 
REMARK    5  A    between atoms: CB_12  and  CG_13 
REMARK    6  A    between atoms: N_18  and  CA_19 
REMARK    7  A    between atoms: CA_19  and  C_20 
REMARK    8  A    between atoms: CA_19  and  CB_22 
REMARK       I    between atoms: C_20  and  N_26 
REMARK    9  A    between atoms: CB_22  and  CG_23 
REMARK   10  A    between atoms: CG_23  and  CD1_24 
REMARK   11  A    between atoms: CG_23  and  CD2_25 
REMARK   12  A    between atoms: N_26  and  CA_27 
REMARK   13  A    between atoms: CA_27  and  C_28 
REMARK   14  A    between atoms: CA_27  and  CB_30 
REMARK       I    between atoms: C_28  and  N_32 
REMARK   15  A    between atoms: CB_30  and  OG_31 
REMARK   16  A    between atoms: N_32  and  C1_33 
REMARK   17  A    between atoms: C1_33  and  C2_34 
REMARK   18  A    between atoms: C1_33  and  C9_41 
REMARK   19  A    between atoms: C2_34  and  C3_35 
REMARK   20  A    between atoms: C9_41  and  N2_42 
REMARK   21  A    between atoms: N2_42  and  C10_43 
REMARK   22  A    between atoms: C10_43  and  C11_44 
REMARK   23  A    between atoms: C10_43  and  C_48 
REMARK   24  A    between atoms: C11_44  and  C12_45 
REMARK   25  A    between atoms: C12_45  and  SD_46 
REMARK   26  A    between atoms: SD_46  and  C13_47 
REMARK       I    between atoms: C_48  and  N_50 
REMARK   27  A    between atoms: N_50  and  CA_51 
REMARK   28  A    between atoms: CA_51  and  C_52 
REMARK   29  A    between atoms: CA_51  and  CB_54 
REMARK       I    between atoms: C_52  and  N_55 
REMARK   30  A    between atoms: N_55  and  CA_56 
REMARK   31  A    between atoms: CA_56  and  C_57 
REMARK   32  A    between atoms: CA_56  and  CB_59 
REMARK   33  A    between atoms: CB_59  and  CG_60 
ROOT
ATOM      1  C   PRO d           3.252  31.918  15.903  0.00  0.00     0.242 C 
ATOM      2  O   PRO d           2.644  32.987  16.123  0.00  0.00    -0.271 OA
ATOM      3  N   PRO d           4.373  31.898  15.176  0.00  0.00    -0.353 N 
ATOM      4  H33 PRO d           4.783  31.016  14.943  0.00  0.00     0.163 HD
ENDROOT
BRANCH   3   5
ATOM      5  C1  PRO d           5.016  33.119  14.710  0.00  0.00     0.039 C 
ATOM      6  H34 PRO d           4.590  33.963  15.272  0.00  0.00     0.075 H 
BRANCH   5   7
ATOM      7  C2  PRO d           6.503  33.052  14.971  0.00  0.00    -0.021 C 
ATOM      8  H35 PRO d           6.949  33.969  14.558  0.00  0.00     0.043 H 
ATOM      9  H36 PRO d           6.891  32.178  14.427  0.00  0.00     0.043 H 
BRANCH   7  10
ATOM     10  C3  PRO d           6.975  32.931  16.418  0.00  0.00    -0.056 A 
ATOM     11  C4  PRO d           8.188  32.274  16.656  0.00  0.00    -0.077 A 
ATOM     12  C6  PRO d           8.671  32.157  17.958  0.00  0.00    -0.082 A 
ATOM     13  H37 PRO d           8.751  31.856  15.829  0.00  0.00     0.084 H 
ATOM     14  C8  PRO d           7.951  32.685  19.028  0.00  0.00    -0.083 A 
ATOM     15  H39 PRO d           9.613  31.652  18.140  0.00  0.00     0.083 H 
ATOM     16  C7  PRO d           6.741  33.329  18.792  0.00  0.00    -0.082 A 
ATOM     17  H41 PRO d           8.331  32.594  20.038  0.00  0.00     0.083 H 
ATOM     18  C5  PRO d           6.252  33.460  17.496  0.00  0.00    -0.077 A 
ATOM     19  H40 PRO d           6.175  33.733  19.624  0.00  0.00     0.083 H 
ATOM     20  H38 PRO d           5.312  33.970  17.320  0.00  0.00     0.084 H 
ENDBRANCH   7  10
ENDBRANCH   5   7
BRANCH   5  21
ATOM     21  C9  PRO d           4.817  33.384  13.218  0.00  0.00     0.101 C 
ATOM     22  H42 PRO d           4.991  32.447  12.668  0.00  0.00     0.079 H 
ATOM     23  H43 PRO d           5.549  34.139  12.894  0.00  0.00     0.079 H 
BRANCH  21  24
ATOM     24  N2  PRO d           3.493  33.862  12.911  0.00  0.00    -0.060 N 
ATOM     25  H44 PRO d           3.055  34.138  13.775  0.00  0.00     0.278 HD
ATOM     26  H45 PRO d           2.976  33.100  12.500  0.00  0.00     0.278 HD
BRANCH  24  27
ATOM     27  C10 PRO d           3.428  35.001  11.987  0.00  0.00     0.178 C 
ATOM     28  H46 PRO d           4.332  34.986  11.361  0.00  0.00     0.099 H 
BRANCH  27  29
ATOM     29  C11 PRO d           2.191  34.831  11.075  0.00  0.00    -0.022 C 
ATOM     30  H47 PRO d           2.483  34.156  10.256  0.00  0.00     0.037 H 
ATOM     31  H48 PRO d           1.953  35.824  10.665  0.00  0.00     0.037 H 
BRANCH  29  32
ATOM     32  C12 PRO d           0.894  34.271  11.680  0.00  0.00    -0.021 C 
ATOM     33  H49 PRO d           1.115  33.935  12.704  0.00  0.00     0.049 H 
ATOM     34  H50 PRO d           0.580  33.410  11.072  0.00  0.00     0.049 H 
BRANCH  32  35
ATOM     35  SD  PRO d          -0.489  35.432  11.759  0.00  0.00    -0.173 SA
BRANCH  35  36
ATOM     36  C13 PRO d          -1.494  34.580  12.932  0.00  0.00    -0.035 C 
ATOM     37  H51 PRO d          -2.413  35.156  13.114  0.00  0.00     0.041 H 
ATOM     38  H52 PRO d          -0.940  34.467  13.876  0.00  0.00     0.041 H 
ATOM     39  H53 PRO d          -1.755  33.587  12.539  0.00  0.00     0.041 H 
ENDBRANCH  35  36
ENDBRANCH  32  35
ENDBRANCH  29  32
ENDBRANCH  27  29
BRANCH  27  40
ATOM     40  C   PRO d           3.374  36.376  12.713  0.00  0.00     0.249 C 
ATOM     41  O   PRO d           2.785  36.471  13.802  0.00  0.00    -0.271 OA
ATOM     42  N   PRO d           4.040  37.419  12.218  0.00  0.00    -0.346 N 
ATOM     43  H54 PRO d           4.656  37.296  11.440  0.00  0.00     0.163 HD
BRANCH  42  44
ATOM     44  CA  PRO d           3.870  38.737  12.812  0.00  0.00     0.086 C 
ATOM     45  H55 PRO d           3.605  38.707  13.880  0.00  0.00     0.086 H 
BRANCH  44  46
ATOM     46  C   PRO d           2.721  39.184  11.911  0.00  0.00     0.240 C 
ATOM     47  O   PRO d           2.841  39.201  10.677  0.00  0.00    -0.271 OA
ATOM     48  N   PRO d           1.575  39.346  12.567  0.00  0.00    -0.344 N 
ATOM     49  H59 PRO d           1.569  39.223  13.559  0.00  0.00     0.163 HD
BRANCH  48  50
ATOM     50  CA  PRO d           0.329  39.694  11.898  0.00  0.00     0.101 C 
ATOM     51  H60 PRO d           0.284  39.183  10.925  0.00  0.00     0.090 H 
BRANCH  50  52
ATOM     52  C   PRO d           0.258  41.198  11.660  0.00  0.00     0.197 C 
ATOM     53  O   PRO d          -0.094  41.574  10.534  0.00  0.00    -0.646 OA
ATOM     54  OXT PRO d           0.461  41.936  12.630  0.00  0.00    -0.646 OA
ENDBRANCH  50  52
BRANCH  50  55
ATOM     55  CB  PRO d          -0.842  39.194  12.788  0.00  0.00     0.003 C 
ATOM     56  H61 PRO d          -0.923  39.887  13.639  0.00  0.00     0.046 H 
ATOM     57  H62 PRO d          -0.568  38.194  13.155  0.00  0.00     0.046 H 
BRANCH  55  58
ATOM     58  CG  PRO d          -2.240  39.079  12.165  0.00  0.00     0.030 A 
ATOM     59  ND1 PRO d          -2.832  39.881  11.280  0.00  0.00    -0.353 N 
ATOM     60  CE1 PRO d          -4.053  39.440  11.076  0.00  0.00     0.063 A 
ATOM     61  H63 PRO d          -2.405  40.705  10.832  0.00  0.00     0.166 HD
ATOM     62  NE2 PRO d          -4.253  38.358  11.821  0.00  0.00    -0.254 NA
ATOM     63  H65 PRO d          -4.784  39.889  10.405  0.00  0.00     0.143 H 
ATOM     64  CD2 PRO d          -3.166  38.099  12.501  0.00  0.00     0.025 A 
ATOM     65  H64 PRO d          -3.017  37.274  13.196  0.00  0.00     0.117 H 
ENDBRANCH  55  58
ENDBRANCH  50  55
ENDBRANCH  48  50
ENDBRANCH  44  46
BRANCH  44  66
ATOM     66  CB  PRO d           5.101  39.597  12.592  0.00  0.00    -0.049 C 
ATOM     67  H56 PRO d           4.945  40.586  13.050  0.00  0.00     0.030 H 
ATOM     68  H57 PRO d           5.276  39.718  11.513  0.00  0.00     0.030 H 
ATOM     69  H58 PRO d           5.974  39.113  13.054  0.00  0.00     0.030 H 
ENDBRANCH  44  66
ENDBRANCH  42  44
ENDBRANCH  27  40
ENDBRANCH  24  27
ENDBRANCH  21  24
ENDBRANCH   5  21
ENDBRANCH   3   5
BRANCH   1  70
ATOM     70  CA  PRO d           2.762  30.552  16.417  0.00  0.00     0.109 C 
ATOM     71  H29 PRO d           2.775  29.831  15.586  0.00  0.00     0.090 H 
BRANCH  70  72
ATOM     72  N   PRO d           3.648  30.054  17.481  0.00  0.00    -0.344 N 
ATOM     73  C   PRO d           4.140  28.812  17.546  0.00  0.00     0.241 C 
ATOM     74  O   PRO d           3.771  27.951  16.730  0.00  0.00    -0.271 OA
ATOM     75  H28 PRO d           3.902  30.692  18.209  0.00  0.00     0.163 HD
BRANCH  73  76
ATOM     76  CA  PRO d           5.029  28.456  18.740  0.00  0.00     0.089 C 
ATOM     77  H18 PRO d           4.827  29.205  19.518  0.00  0.00     0.087 H 
BRANCH  76  78
ATOM     78  N   PRO d           4.734  27.133  19.269  0.00  0.00    -0.346 N 
ATOM     79  C   PRO d           4.093  27.016  20.429  0.00  0.00     0.241 C 
ATOM     80  O   PRO d           3.673  28.016  21.019  0.00  0.00    -0.271 OA
ATOM     81  H17 PRO d           5.012  26.316  18.764  0.00  0.00     0.163 HD
BRANCH  79  82
ATOM     82  CA  PRO d           3.857  25.683  21.116  0.00  0.00     0.094 C 
ATOM     83  H11 PRO d           4.145  24.840  20.470  0.00  0.00     0.088 H 
BRANCH  82  84
ATOM     84  N   PRO d           4.677  25.693  22.337  0.00  0.00    -0.346 N 
ATOM     85  C   PRO d           4.703  24.731  23.289  0.00  0.00     0.249 C 
ATOM     86  O   PRO d           4.077  23.660  23.194  0.00  0.00    -0.271 OA
ATOM     87  H10 PRO d           5.272  26.484  22.477  0.00  0.00     0.163 HD
BRANCH  85  88
ATOM     88  CA  PRO d           5.548  24.933  24.556  0.00  0.00     0.178 C 
ATOM     89  N   PRO d           5.250  23.801  25.427  0.00  0.00    -0.062 N 
ATOM     90  CD  PRO d           6.494  23.400  26.083  0.00  0.00     0.083 C 
ATOM     91  H1  PRO d           4.888  23.035  24.880  0.00  0.00     0.278 HD
ATOM     92  H2  PRO d           4.570  24.072  26.119  0.00  0.00     0.278 HD
ATOM     93  CG  PRO d           7.545  24.446  25.698  0.00  0.00    -0.040 C 
ATOM     94  H8  PRO d           6.804  22.404  25.734  0.00  0.00     0.075 H 
ATOM     95  H9  PRO d           6.359  23.381  27.174  0.00  0.00     0.075 H 
ATOM     96  CB  PRO d           7.053  24.881  24.320  0.00  0.00    -0.028 C 
ATOM     97  H6  PRO d           7.552  25.288  26.406  0.00  0.00     0.035 H 
ATOM     98  H7  PRO d           8.551  24.004  25.643  0.00  0.00     0.035 H 
ATOM     99  H4  PRO d           7.453  25.867  24.041  0.00  0.00     0.036 H 
ATOM    100  H5  PRO d           7.317  24.146  23.545  0.00  0.00     0.036 H 
ATOM    101  H3  PRO d           5.279  25.887  25.032  0.00  0.00     0.099 H 
ENDBRANCH  85  88
ENDBRANCH  82  84
BRANCH  82 102
ATOM    102  CB  PRO d           2.370  25.625  21.427  0.00  0.00     0.002 C 
ATOM    103  H12 PRO d           1.931  26.615  21.235  0.00  0.00     0.046 H 
ATOM    104  H13 PRO d           2.241  25.366  22.488  0.00  0.00     0.046 H 
BRANCH 102 105
ATOM    105  CG  PRO d           1.649  24.607  20.591  0.00  0.00     0.030 A 
ATOM    106  ND1 PRO d           0.336  24.449  20.543  0.00  0.00    -0.353 N 
ATOM    107  CE1 PRO d           0.133  23.432  19.757  0.00  0.00     0.063 A 
ATOM    108  H14 PRO d          -0.378  25.013  21.028  0.00  0.00     0.166 HD
ATOM    109  NE2 PRO d           1.279  22.964  19.307  0.00  0.00    -0.254 NA
ATOM    110  H16 PRO d          -0.845  23.026  19.505  0.00  0.00     0.143 H 
ATOM    111  CD2 PRO d           2.259  23.663  19.795  0.00  0.00     0.025 A 
ATOM    112  H15 PRO d           3.326  23.532  19.616  0.00  0.00     0.117 H 
ENDBRANCH 102 105
ENDBRANCH  82 102
ENDBRANCH  79  82
ENDBRANCH  76  78
BRANCH  76 113
ATOM    113  CB  PRO d           6.567  28.437  18.471  0.00  0.00    -0.035 C 
ATOM    114  H19 PRO d           6.805  29.315  17.852  0.00  0.00     0.037 H 
ATOM    115  H20 PRO d           6.793  27.519  17.909  0.00  0.00     0.037 H 
BRANCH 113 116
ATOM    116  CG  PRO d           7.525  28.470  19.736  0.00  0.00    -0.059 C 
ATOM    117  H21 PRO d           7.048  29.057  20.534  0.00  0.00     0.038 H 
BRANCH 116 118
ATOM    118  CD1 PRO d           7.883  27.070  20.226  0.00  0.00    -0.073 C 
ATOM    119  H22 PRO d           8.547  27.146  21.100  0.00  0.00     0.028 H 
ATOM    120  H23 PRO d           8.397  26.521  19.423  0.00  0.00     0.028 H 
ATOM    121  H24 PRO d           6.965  26.534  20.507  0.00  0.00     0.028 H 
ENDBRANCH 116 118
BRANCH 116 122
ATOM    122  CD2 PRO d           8.892  29.034  19.381  0.00  0.00    -0.073 C 
ATOM    123  H25 PRO d           8.778  30.062  19.006  0.00  0.00     0.028 H 
ATOM    124  H26 PRO d           9.355  28.409  18.604  0.00  0.00     0.028 H 
ATOM    125  H27 PRO d           9.530  29.039  20.277  0.00  0.00     0.028 H 
ENDBRANCH 116 122
ENDBRANCH 113 116
ENDBRANCH  76 113
ENDBRANCH  73  76
ENDBRANCH  70  72
BRANCH  70 126
ATOM    126  CB  PRO d           1.294  30.706  16.928  0.00  0.00     0.044 C 
ATOM    127  H30 PRO d           0.709  31.187  16.130  0.00  0.00     0.077 H 
ATOM    128  H31 PRO d           1.314  31.360  17.812  0.00  0.00     0.077 H 
BRANCH 126 129
ATOM    129  OG  PRO d           0.617  29.498  17.296  0.00  0.00    -0.398 OA
ATOM    130  H32 PRO d          -0.262  29.706  17.590  0.00  0.00     0.209 HD
ENDBRANCH 126 129
ENDBRANCH  70 126
ENDBRANCH   1  70
TORSDOF 33
ENDMDL
