MODEL 1
REMARK VINA RESULT:      -7.1      0.000      0.000
REMARK WARNING: 32 MAX_TORS EXCEEDED!!!
REMARK  33 active torsions:
REMARK  status: ('A' for Active; 'I' for Inactive)
REMARK    1  A    between atoms: CA_2  and  C_3 
REMARK       I    between atoms: C_3  and  N_8 
REMARK    2  A    between atoms: N_8  and  CA_9 
REMARK    3  A    between atoms: CA_9  and  C_10 
REMARK    4  A    between atoms: CA_9  and  CB_12 
REMARK       I    between atoms: C_10  and  N_18 
REMARK    5  A    between atoms: CB_12  and  CG_13 
REMARK    6  A    between atoms: N_18  and  CA_19 
REMARK    7  A    between atoms: CA_19  and  C_20 
REMARK    8  A    between atoms: CA_19  and  CB_22 
REMARK       I    between atoms: C_20  and  N_26 
REMARK    9  A    between atoms: CB_22  and  CG_23 
REMARK   10  A    between atoms: CG_23  and  CD1_24 
REMARK   11  A    between atoms: CG_23  and  CD2_25 
REMARK   12  A    between atoms: N_26  and  CA_27 
REMARK   13  A    between atoms: CA_27  and  C_28 
REMARK   14  A    between atoms: CA_27  and  CB_30 
REMARK       I    between atoms: C_28  and  N_32 
REMARK   15  A    between atoms: CB_30  and  OG_31 
REMARK   16  A    between atoms: N_32  and  C1_33 
REMARK   17  A    between atoms: C1_33  and  C2_34 
REMARK   18  A    between atoms: C1_33  and  C9_41 
REMARK   19  A    between atoms: C2_34  and  C3_35 
REMARK   20  A    between atoms: C9_41  and  N2_42 
REMARK   21  A    between atoms: N2_42  and  C10_43 
REMARK   22  A    between atoms: C10_43  and  C11_44 
REMARK   23  A    between atoms: C10_43  and  C_48 
REMARK   24  A    between atoms: C11_44  and  C12_45 
REMARK   25  A    between atoms: C12_45  and  SD_46 
REMARK   26  A    between atoms: SD_46  and  C13_47 
REMARK       I    between atoms: C_48  and  N_50 
REMARK   27  A    between atoms: N_50  and  CA_51 
REMARK   28  A    between atoms: CA_51  and  C_52 
REMARK   29  A    between atoms: CA_51  and  CB_54 
REMARK       I    between atoms: C_52  and  N_55 
REMARK   30  A    between atoms: N_55  and  CA_56 
REMARK   31  A    between atoms: CA_56  and  C_57 
REMARK   32  A    between atoms: CA_56  and  CB_59 
REMARK   33  A    between atoms: CB_59  and  CG_60 
ROOT
ATOM      1  C   PRO d          -0.037  28.502  18.078  0.00  0.00     0.242 C 
ATOM      2  O   PRO d          -0.661  29.424  18.646  0.00  0.00    -0.271 OA
ATOM      3  N   PRO d           0.588  27.555  18.784  0.00  0.00    -0.353 N 
ATOM      4  H33 PRO d           1.154  26.886  18.302  0.00  0.00     0.163 HD
ENDROOT
BRANCH   3   5
ATOM      5  C1  PRO d           0.473  27.465  20.234  0.00  0.00     0.039 C 
ATOM      6  H34 PRO d          -0.537  27.099  20.472  0.00  0.00     0.075 H 
BRANCH   5   7
ATOM      7  C2  PRO d           1.493  26.490  20.774  0.00  0.00    -0.021 C 
ATOM      8  H35 PRO d           1.561  26.658  21.860  0.00  0.00     0.043 H 
ATOM      9  H36 PRO d           2.457  26.733  20.305  0.00  0.00     0.043 H 
BRANCH   7  10
ATOM     10  C3  PRO d           1.248  24.999  20.560  0.00  0.00    -0.056 A 
ATOM     11  C4  PRO d           1.918  24.372  19.503  0.00  0.00    -0.077 A 
ATOM     12  C6  PRO d           1.743  23.008  19.280  0.00  0.00    -0.082 A 
ATOM     13  H37 PRO d           2.573  24.948  18.858  0.00  0.00     0.084 H 
ATOM     14  C8  PRO d           0.898  22.263  20.100  0.00  0.00    -0.083 A 
ATOM     15  H39 PRO d           2.266  22.524  18.465  0.00  0.00     0.083 H 
ATOM     16  C7  PRO d           0.224  22.887  21.144  0.00  0.00    -0.082 A 
ATOM     17  H41 PRO d           0.767  21.201  19.925  0.00  0.00     0.083 H 
ATOM     18  C5  PRO d           0.397  24.247  21.382  0.00  0.00    -0.077 A 
ATOM     19  H40 PRO d          -0.440  22.310  21.778  0.00  0.00     0.083 H 
ATOM     20  H38 PRO d          -0.126  24.724  22.203  0.00  0.00     0.084 H 
ENDBRANCH   7  10
ENDBRANCH   5   7
BRANCH   5  21
ATOM     21  C9  PRO d           0.682  28.801  20.947  0.00  0.00     0.101 C 
ATOM     22  H42 PRO d           0.931  29.565  20.196  0.00  0.00     0.079 H 
ATOM     23  H43 PRO d           1.519  28.695  21.653  0.00  0.00     0.079 H 
BRANCH  21  24
ATOM     24  N2  PRO d          -0.486  29.231  21.674  0.00  0.00    -0.060 N 
ATOM     25  H44 PRO d          -1.282  28.737  21.303  0.00  0.00     0.278 HD
ATOM     26  H45 PRO d          -0.600  30.220  21.519  0.00  0.00     0.278 HD
BRANCH  24  27
ATOM     27  C10 PRO d          -0.449  29.003  23.124  0.00  0.00     0.178 C 
ATOM     28  H46 PRO d          -1.234  29.621  23.587  0.00  0.00     0.099 H 
BRANCH  27  29
ATOM     29  C11 PRO d          -0.762  27.515  23.402  0.00  0.00    -0.022 C 
ATOM     30  H47 PRO d          -0.071  27.182  24.191  0.00  0.00     0.037 H 
ATOM     31  H48 PRO d          -0.553  26.962  22.474  0.00  0.00     0.037 H 
BRANCH  29  32
ATOM     32  C12 PRO d          -2.180  27.125  23.849  0.00  0.00    -0.021 C 
ATOM     33  H49 PRO d          -2.892  27.783  23.329  0.00  0.00     0.049 H 
ATOM     34  H50 PRO d          -2.251  27.291  24.933  0.00  0.00     0.049 H 
BRANCH  32  35
ATOM     35  SD  PRO d          -2.654  25.413  23.514  0.00  0.00    -0.173 SA
BRANCH  35  36
ATOM     36  C13 PRO d          -4.154  25.713  22.634  0.00  0.00    -0.035 C 
ATOM     37  H51 PRO d          -4.886  26.183  23.306  0.00  0.00     0.041 H 
ATOM     38  H52 PRO d          -4.557  24.759  22.261  0.00  0.00     0.041 H 
ATOM     39  H53 PRO d          -3.953  26.382  21.784  0.00  0.00     0.041 H 
ENDBRANCH  35  36
ENDBRANCH  32  35
ENDBRANCH  29  32
ENDBRANCH  27  29
BRANCH  27  40
ATOM     40  C   PRO d           0.910  29.396  23.773  0.00  0.00     0.249 C 
ATOM     41  O   PRO d           0.988  30.433  24.451  0.00  0.00    -0.271 OA
ATOM     42  N   PRO d           1.954  28.573  23.684  0.00  0.00    -0.346 N 
ATOM     43  H54 PRO d           1.841  27.660  23.292  0.00  0.00     0.163 HD
BRANCH  42  44
ATOM     44  CA  PRO d           3.261  29.005  24.160  0.00  0.00     0.086 C 
ATOM     45  H55 PRO d           3.219  29.879  24.826  0.00  0.00     0.086 H 
BRANCH  44  46
ATOM     46  C   PRO d           3.850  29.314  22.785  0.00  0.00     0.240 C 
ATOM     47  O   PRO d           3.521  30.332  22.159  0.00  0.00    -0.271 OA
ATOM     48  N   PRO d           4.856  28.508  22.455  0.00  0.00    -0.344 N 
ATOM     49  H59 PRO d           5.098  27.764  23.077  0.00  0.00     0.163 HD
BRANCH  48  50
ATOM     50  CA  PRO d           5.617  28.666  21.224  0.00  0.00     0.101 C 
ATOM     51  H60 PRO d           5.040  29.277  20.515  0.00  0.00     0.090 H 
BRANCH  50  52
ATOM     52  C   PRO d           5.884  27.307  20.587  0.00  0.00     0.197 C 
ATOM     53  O   PRO d           4.942  26.503  20.560  0.00  0.00    -0.646 OA
ATOM     54  OXT PRO d           6.987  27.135  20.059  0.00  0.00    -0.646 OA
ENDBRANCH  50  52
BRANCH  50  55
ATOM     55  CB  PRO d           6.937  29.408  21.575  0.00  0.00     0.003 C 
ATOM     56  H61 PRO d           7.687  29.106  20.829  0.00  0.00     0.046 H 
ATOM     57  H62 PRO d           7.250  29.060  22.571  0.00  0.00     0.046 H 
BRANCH  55  58
ATOM     58  CG  PRO d           6.928  30.942  21.614  0.00  0.00     0.030 A 
ATOM     59  ND1 PRO d           7.511  31.762  22.488  0.00  0.00    -0.353 N 
ATOM     60  CE1 PRO d           7.185  32.997  22.177  0.00  0.00     0.063 A 
ATOM     61  H63 PRO d           8.114  31.477  23.274  0.00  0.00     0.166 HD
ATOM     62  NE2 PRO d           6.398  32.979  21.106  0.00  0.00    -0.254 NA
ATOM     63  H65 PRO d           7.507  33.890  22.710  0.00  0.00     0.143 H 
ATOM     64  CD2 PRO d           6.218  31.741  20.726  0.00  0.00     0.025 A 
ATOM     65  H64 PRO d           5.627  31.402  19.877  0.00  0.00     0.117 H 
ENDBRANCH  55  58
ENDBRANCH  50  55
ENDBRANCH  48  50
ENDBRANCH  44  46
BRANCH  44  66
ATOM     66  CB  PRO d           4.003  27.861  24.827  0.00  0.00    -0.049 C 
ATOM     67  H56 PRO d           4.548  28.240  25.704  0.00  0.00     0.030 H 
ATOM     68  H57 PRO d           4.717  27.422  24.115  0.00  0.00     0.030 H 
ATOM     69  H58 PRO d           3.283  27.093  25.146  0.00  0.00     0.030 H 
ENDBRANCH  44  66
ENDBRANCH  42  44
ENDBRANCH  27  40
ENDBRANCH  24  27
ENDBRANCH  21  24
ENDBRANCH   5  21
ENDBRANCH   3   5
BRANCH   1  70
ATOM     70  CA  PRO d           0.090  28.391  16.549  0.00  0.00     0.109 C 
ATOM     71  H29 PRO d          -0.818  27.918  16.147  0.00  0.00     0.090 H 
BRANCH  70  72
ATOM     72  N   PRO d           0.225  29.727  15.946  0.00  0.00    -0.344 N 
ATOM     73  C   PRO d           1.388  30.358  15.741  0.00  0.00     0.241 C 
ATOM     74  O   PRO d           2.447  29.869  16.166  0.00  0.00    -0.271 OA
ATOM     75  H28 PRO d          -0.613  30.198  15.668  0.00  0.00     0.163 HD
BRANCH  73  76
ATOM     76  CA  PRO d           1.342  31.758  15.124  0.00  0.00     0.089 C 
ATOM     77  H18 PRO d           1.042  32.447  15.927  0.00  0.00     0.087 H 
BRANCH  76  78
ATOM     78  N   PRO d           2.637  32.172  14.606  0.00  0.00    -0.346 N 
ATOM     79  C   PRO d           3.404  32.988  15.325  0.00  0.00     0.241 C 
ATOM     80  O   PRO d           3.064  33.329  16.462  0.00  0.00    -0.271 OA
ATOM     81  H17 PRO d           2.949  31.846  13.714  0.00  0.00     0.163 HD
BRANCH  79  82
ATOM     82  CA  PRO d           4.707  33.570  14.809  0.00  0.00     0.094 C 
ATOM     83  H11 PRO d           4.865  34.595  15.179  0.00  0.00     0.088 H 
BRANCH  82  84
ATOM     84  N   PRO d           5.779  32.685  15.289  0.00  0.00    -0.346 N 
ATOM     85  C   PRO d           6.459  32.811  16.452  0.00  0.00     0.249 C 
ATOM     86  O   PRO d           6.188  33.671  17.311  0.00  0.00    -0.271 OA
ATOM     87  H10 PRO d           6.029  31.916  14.700  0.00  0.00     0.163 HD
BRANCH  85  88
ATOM     88  CA  PRO d           7.618  31.855  16.769  0.00  0.00     0.178 C 
ATOM     89  N   PRO d           8.576  32.624  17.554  0.00  0.00    -0.062 N 
ATOM     90  CD  PRO d           9.121  31.742  18.586  0.00  0.00     0.083 C 
ATOM     91  H1  PRO d           8.114  33.410  17.984  0.00  0.00     0.278 HD
ATOM     92  H2  PRO d           9.320  32.954  16.959  0.00  0.00     0.278 HD
ATOM     93  CG  PRO d           8.571  30.342  18.296  0.00  0.00    -0.040 C 
ATOM     94  H8  PRO d           8.798  32.078  19.582  0.00  0.00     0.075 H 
ATOM     95  H9  PRO d          10.220  31.736  18.540  0.00  0.00     0.075 H 
ATOM     96  CB  PRO d           7.230  30.669  17.645  0.00  0.00    -0.028 C 
ATOM     97  H6  PRO d           9.227  29.788  17.609  0.00  0.00     0.035 H 
ATOM     98  H7  PRO d           8.437  29.762  19.222  0.00  0.00     0.035 H 
ATOM     99  H4  PRO d           6.856  29.827  17.045  0.00  0.00     0.036 H 
ATOM    100  H5  PRO d           6.474  30.949  18.394  0.00  0.00     0.036 H 
ATOM    101  H3  PRO d           8.065  31.493  15.832  0.00  0.00     0.099 H 
ENDBRANCH  85  88
ENDBRANCH  82  84
BRANCH  82 102
ATOM    102  CB  PRO d           4.600  33.567  13.293  0.00  0.00     0.002 C 
ATOM    103  H12 PRO d           4.113  32.634  12.976  0.00  0.00     0.046 H 
ATOM    104  H13 PRO d           5.613  33.616  12.867  0.00  0.00     0.046 H 
BRANCH 102 105
ATOM    105  CG  PRO d           3.802  34.729  12.772  0.00  0.00     0.030 A 
ATOM    106  ND1 PRO d           3.301  34.825  11.551  0.00  0.00    -0.353 N 
ATOM    107  CE1 PRO d           2.742  35.999  11.493  0.00  0.00     0.063 A 
ATOM    108  H14 PRO d           3.345  34.119  10.802  0.00  0.00     0.166 HD
ATOM    109  NE2 PRO d           2.872  36.627  12.644  0.00  0.00    -0.254 NA
ATOM    110  H16 PRO d           2.239  36.405  10.617  0.00  0.00     0.143 H 
ATOM    111  CD2 PRO d           3.524  35.877  13.480  0.00  0.00     0.025 A 
ATOM    112  H15 PRO d           3.792  36.104  14.511  0.00  0.00     0.117 H 
ENDBRANCH 102 105
ENDBRANCH  82 102
ENDBRANCH  79  82
ENDBRANCH  76  78
BRANCH  76 113
ATOM    113  CB  PRO d           0.360  31.950  13.926  0.00  0.00    -0.035 C 
ATOM    114  H19 PRO d          -0.663  31.920  14.329  0.00  0.00     0.037 H 
ATOM    115  H20 PRO d           0.509  31.104  13.238  0.00  0.00     0.037 H 
BRANCH 113 116
ATOM    116  CG  PRO d           0.501  33.285  13.079  0.00  0.00    -0.059 C 
ATOM    117  H21 PRO d           1.441  33.786  13.349  0.00  0.00     0.038 H 
BRANCH 116 118
ATOM    118  CD1 PRO d           0.432  33.025  11.576  0.00  0.00    -0.073 C 
ATOM    119  H22 PRO d          -0.192  32.139  11.385  0.00  0.00     0.028 H 
ATOM    120  H23 PRO d           1.446  32.849  11.189  0.00  0.00     0.028 H 
ATOM    121  H24 PRO d          -0.006  33.899  11.073  0.00  0.00     0.028 H 
ENDBRANCH 116 118
BRANCH 116 122
ATOM    122  CD2 PRO d          -0.693  34.203  13.289  0.00  0.00    -0.073 C 
ATOM    123  H25 PRO d          -1.178  34.401  12.322  0.00  0.00     0.028 H 
ATOM    124  H26 PRO d          -0.351  35.152  13.730  0.00  0.00     0.028 H 
ATOM    125  H27 PRO d          -1.411  33.720  13.968  0.00  0.00     0.028 H 
ENDBRANCH 116 122
ENDBRANCH 113 116
ENDBRANCH  76 113
ENDBRANCH  73  76
ENDBRANCH  70  72
BRANCH  70 126
ATOM    126  CB  PRO d           1.321  27.491  16.211  0.00  0.00     0.044 C 
ATOM    127  H30 PRO d           2.098  27.690  16.964  0.00  0.00     0.077 H 
ATOM    128  H31 PRO d           1.689  27.785  15.218  0.00  0.00     0.077 H 
BRANCH 126 129
ATOM    129  OG  PRO d           1.089  26.077  16.188  0.00  0.00    -0.398 OA
ATOM    130  H32 PRO d           1.620  25.682  15.507  0.00  0.00     0.209 HD
ENDBRANCH 126 129
ENDBRANCH  70 126
ENDBRANCH   1  70
TORSDOF 33
ENDMDL
MODEL 2
REMARK VINA RESULT:      -6.7      3.100      9.875
REMARK WARNING: 32 MAX_TORS EXCEEDED!!!
REMARK  33 active torsions:
REMARK  status: ('A' for Active; 'I' for Inactive)
REMARK    1  A    between atoms: CA_2  and  C_3 
REMARK       I    between atoms: C_3  and  N_8 
REMARK    2  A    between atoms: N_8  and  CA_9 
REMARK    3  A    between atoms: CA_9  and  C_10 
REMARK    4  A    between atoms: CA_9  and  CB_12 
REMARK       I    between atoms: C_10  and  N_18 
REMARK    5  A    between atoms: CB_12  and  CG_13 
REMARK    6  A    between atoms: N_18  and  CA_19 
REMARK    7  A    between atoms: CA_19  and  C_20 
REMARK    8  A    between atoms: CA_19  and  CB_22 
REMARK       I    between atoms: C_20  and  N_26 
REMARK    9  A    between atoms: CB_22  and  CG_23 
REMARK   10  A    between atoms: CG_23  and  CD1_24 
REMARK   11  A    between atoms: CG_23  and  CD2_25 
REMARK   12  A    between atoms: N_26  and  CA_27 
REMARK   13  A    between atoms: CA_27  and  C_28 
REMARK   14  A    between atoms: CA_27  and  CB_30 
REMARK       I    between atoms: C_28  and  N_32 
REMARK   15  A    between atoms: CB_30  and  OG_31 
REMARK   16  A    between atoms: N_32  and  C1_33 
REMARK   17  A    between atoms: C1_33  and  C2_34 
REMARK   18  A    between atoms: C1_33  and  C9_41 
REMARK   19  A    between atoms: C2_34  and  C3_35 
REMARK   20  A    between atoms: C9_41  and  N2_42 
REMARK   21  A    between atoms: N2_42  and  C10_43 
REMARK   22  A    between atoms: C10_43  and  C11_44 
REMARK   23  A    between atoms: C10_43  and  C_48 
REMARK   24  A    between atoms: C11_44  and  C12_45 
REMARK   25  A    between atoms: C12_45  and  SD_46 
REMARK   26  A    between atoms: SD_46  and  C13_47 
REMARK       I    between atoms: C_48  and  N_50 
REMARK   27  A    between atoms: N_50  and  CA_51 
REMARK   28  A    between atoms: CA_51  and  C_52 
REMARK   29  A    between atoms: CA_51  and  CB_54 
REMARK       I    between atoms: C_52  and  N_55 
REMARK   30  A    between atoms: N_55  and  CA_56 
REMARK   31  A    between atoms: CA_56  and  C_57 
REMARK   32  A    between atoms: CA_56  and  CB_59 
REMARK   33  A    between atoms: CB_59  and  CG_60 
ROOT
ATOM      1  C   PRO d           0.865  30.272  16.924  0.00  0.00     0.242 C 
ATOM      2  O   PRO d           0.835  31.493  17.185  0.00  0.00    -0.271 OA
ATOM      3  N   PRO d           0.177  29.769  15.894  0.00  0.00    -0.353 N 
ATOM      4  H33 PRO d           0.149  28.777  15.769  0.00  0.00     0.163 HD
ENDROOT
BRANCH   3   5
ATOM      5  C1  PRO d          -0.534  30.619  14.948  0.00  0.00     0.039 C 
ATOM      6  H34 PRO d          -1.061  29.967  14.235  0.00  0.00     0.075 H 
BRANCH   5   7
ATOM      7  C2  PRO d          -1.546  31.471  15.678  0.00  0.00    -0.021 C 
ATOM      8  H35 PRO d          -2.258  31.847  14.928  0.00  0.00     0.043 H 
ATOM      9  H36 PRO d          -1.000  32.317  16.122  0.00  0.00     0.043 H 
BRANCH   7  10
ATOM     10  C3  PRO d          -2.362  30.823  16.794  0.00  0.00    -0.056 A 
ATOM     11  C4  PRO d          -2.735  31.625  17.880  0.00  0.00    -0.077 A 
ATOM     12  C6  PRO d          -3.498  31.084  18.912  0.00  0.00    -0.082 A 
ATOM     13  H37 PRO d          -2.430  32.664  17.917  0.00  0.00     0.084 H 
ATOM     14  C8  PRO d          -3.889  29.747  18.875  0.00  0.00    -0.083 A 
ATOM     15  H39 PRO d          -3.790  31.707  19.750  0.00  0.00     0.083 H 
ATOM     16  C7  PRO d          -3.510  28.949  17.801  0.00  0.00    -0.082 A 
ATOM     17  H41 PRO d          -4.485  29.331  19.679  0.00  0.00     0.083 H 
ATOM     18  C5  PRO d          -2.755  29.479  16.760  0.00  0.00    -0.077 A 
ATOM     19  H40 PRO d          -3.806  27.906  17.775  0.00  0.00     0.083 H 
ATOM     20  H38 PRO d          -2.471  28.851  15.923  0.00  0.00     0.084 H 
ENDBRANCH   7  10
ENDBRANCH   5   7
BRANCH   5  21
ATOM     21  C9  PRO d           0.381  31.554  14.160  0.00  0.00     0.101 C 
ATOM     22  H42 PRO d           0.468  31.177  13.130  0.00  0.00     0.079 H 
ATOM     23  H43 PRO d           1.374  31.557  14.634  0.00  0.00     0.079 H 
BRANCH  21  24
ATOM     24  N2  PRO d          -0.113  32.908  14.116  0.00  0.00    -0.060 N 
ATOM     25  H44 PRO d           0.577  33.504  14.546  0.00  0.00     0.278 HD
ATOM     26  H45 PRO d          -0.968  32.943  14.649  0.00  0.00     0.278 HD
BRANCH  24  27
ATOM     27  C10 PRO d          -0.394  33.437  12.776  0.00  0.00     0.178 C 
ATOM     28  H46 PRO d          -0.618  32.588  12.113  0.00  0.00     0.099 H 
BRANCH  27  29
ATOM     29  C11 PRO d          -1.640  34.349  12.853  0.00  0.00    -0.022 C 
ATOM     30  H47 PRO d          -2.312  33.915  13.609  0.00  0.00     0.037 H 
ATOM     31  H48 PRO d          -2.127  34.316  11.867  0.00  0.00     0.037 H 
BRANCH  29  32
ATOM     32  C12 PRO d          -1.454  35.831  13.214  0.00  0.00    -0.021 C 
ATOM     33  H49 PRO d          -1.369  36.401  12.276  0.00  0.00     0.049 H 
ATOM     34  H50 PRO d          -0.520  35.926  13.786  0.00  0.00     0.049 H 
BRANCH  32  35
ATOM     35  SD  PRO d          -2.785  36.563  14.193  0.00  0.00    -0.173 SA
BRANCH  35  36
ATOM     36  C13 PRO d          -3.340  35.112  15.029  0.00  0.00    -0.035 C 
ATOM     37  H51 PRO d          -3.928  35.400  15.912  0.00  0.00     0.041 H 
ATOM     38  H52 PRO d          -2.471  34.517  15.346  0.00  0.00     0.041 H 
ATOM     39  H53 PRO d          -3.965  34.514  14.351  0.00  0.00     0.041 H 
ENDBRANCH  35  36
ENDBRANCH  32  35
ENDBRANCH  29  32
ENDBRANCH  27  29
BRANCH  27  40
ATOM     40  C   PRO d           0.803  34.218  12.161  0.00  0.00     0.249 C 
ATOM     41  O   PRO d           0.748  34.592  10.978  0.00  0.00    -0.271 OA
ATOM     42  N   PRO d           1.836  34.568  12.927  0.00  0.00    -0.346 N 
ATOM     43  H54 PRO d           1.798  34.422  13.916  0.00  0.00     0.163 HD
BRANCH  42  44
ATOM     44  CA  PRO d           3.019  35.165  12.323  0.00  0.00     0.086 C 
ATOM     45  H55 PRO d           2.989  35.182  11.223  0.00  0.00     0.086 H 
BRANCH  44  46
ATOM     46  C   PRO d           4.024  34.165  12.891  0.00  0.00     0.240 C 
ATOM     47  O   PRO d           5.000  33.787  12.226  0.00  0.00    -0.271 OA
ATOM     48  N   PRO d           3.845  33.923  14.186  0.00  0.00    -0.344 N 
ATOM     49  H59 PRO d           3.070  34.350  14.651  0.00  0.00     0.163 HD
BRANCH  48  50
ATOM     50  CA  PRO d           4.732  33.062  14.955  0.00  0.00     0.101 C 
ATOM     51  H60 PRO d           4.925  32.140  14.387  0.00  0.00     0.090 H 
BRANCH  50  52
ATOM     52  C   PRO d           4.087  32.686  16.284  0.00  0.00     0.197 C 
ATOM     53  O   PRO d           3.219  33.452  16.725  0.00  0.00    -0.646 OA
ATOM     54  OXT PRO d           4.403  31.600  16.780  0.00  0.00    -0.646 OA
ENDBRANCH  50  52
BRANCH  50  55
ATOM     55  CB  PRO d           6.072  33.822  15.158  0.00  0.00     0.003 C 
ATOM     56  H61 PRO d           5.820  34.864  15.405  0.00  0.00     0.046 H 
ATOM     57  H62 PRO d           6.611  33.792  14.199  0.00  0.00     0.046 H 
BRANCH  55  58
ATOM     58  CG  PRO d           7.042  33.323  16.237  0.00  0.00     0.030 A 
ATOM     59  ND1 PRO d           7.299  33.842  17.438  0.00  0.00    -0.353 N 
ATOM     60  CE1 PRO d           8.248  33.127  18.002  0.00  0.00     0.063 A 
ATOM     61  H63 PRO d           6.835  34.662  17.853  0.00  0.00     0.166 HD
ATOM     62  NE2 PRO d           8.603  32.149  17.175  0.00  0.00    -0.254 NA
ATOM     63  H65 PRO d           8.674  33.307  18.988  0.00  0.00     0.143 H 
ATOM     64  CD2 PRO d           7.886  32.229  16.084  0.00  0.00     0.025 A 
ATOM     65  H64 PRO d           7.940  31.566  15.221  0.00  0.00     0.117 H 
ENDBRANCH  55  58
ENDBRANCH  50  55
ENDBRANCH  48  50
ENDBRANCH  44  46
BRANCH  44  66
ATOM     66  CB  PRO d           3.267  36.558  12.871  0.00  0.00    -0.049 C 
ATOM     67  H56 PRO d           3.743  36.484  13.860  0.00  0.00     0.030 H 
ATOM     68  H57 PRO d           2.310  37.092  12.965  0.00  0.00     0.030 H 
ATOM     69  H58 PRO d           3.929  37.110  12.187  0.00  0.00     0.030 H 
ENDBRANCH  44  66
ENDBRANCH  42  44
ENDBRANCH  27  40
ENDBRANCH  24  27
ENDBRANCH  21  24
ENDBRANCH   5  21
ENDBRANCH   3   5
BRANCH   1  70
ATOM     70  CA  PRO d           1.656  29.253  17.763  0.00  0.00     0.109 C 
ATOM     71  H29 PRO d           1.959  29.726  18.709  0.00  0.00     0.090 H 
BRANCH  70  72
ATOM     72  N   PRO d           0.821  28.082  18.072  0.00  0.00    -0.344 N 
ATOM     73  C   PRO d           0.061  27.954  19.167  0.00  0.00     0.241 C 
ATOM     74  O   PRO d           0.109  28.811  20.064  0.00  0.00    -0.271 OA
ATOM     75  H28 PRO d           0.820  27.326  17.417  0.00  0.00     0.163 HD
BRANCH  73  76
ATOM     76  CA  PRO d          -0.727  26.653  19.342  0.00  0.00     0.089 C 
ATOM     77  H18 PRO d          -1.148  26.404  18.357  0.00  0.00     0.087 H 
BRANCH  76  78
ATOM     78  N   PRO d           0.118  25.555  19.787  0.00  0.00    -0.346 N 
ATOM     79  C   PRO d           0.829  24.869  18.896  0.00  0.00     0.241 C 
ATOM     80  O   PRO d           0.843  25.207  17.708  0.00  0.00    -0.271 OA
ATOM     81  H17 PRO d           0.164  25.318  20.757  0.00  0.00     0.163 HD
BRANCH  79  82
ATOM     82  CA  PRO d           1.634  23.633  19.253  0.00  0.00     0.094 C 
ATOM     83  H11 PRO d           2.149  23.220  18.373  0.00  0.00     0.088 H 
BRANCH  82  84
ATOM     84  N   PRO d           2.614  24.051  20.267  0.00  0.00    -0.346 N 
ATOM     85  C   PRO d           3.350  25.187  20.246  0.00  0.00     0.249 C 
ATOM     86  O   PRO d           3.216  26.071  19.379  0.00  0.00    -0.271 OA
ATOM     87  H10 PRO d           2.749  23.439  21.046  0.00  0.00     0.163 HD
BRANCH  85  88
ATOM     88  CA  PRO d           4.402  25.438  21.337  0.00  0.00     0.178 C 
ATOM     89  N   PRO d           5.217  26.551  20.867  0.00  0.00    -0.062 N 
ATOM     90  CD  PRO d           5.533  27.394  22.020  0.00  0.00     0.083 C 
ATOM     91  H1  PRO d           4.705  27.086  20.182  0.00  0.00     0.278 HD
ATOM     92  H2  PRO d           6.068  26.203  20.454  0.00  0.00     0.278 HD
ATOM     93  CG  PRO d           5.008  26.655  23.255  0.00  0.00    -0.040 C 
ATOM     94  H8  PRO d           5.038  28.371  21.923  0.00  0.00     0.075 H 
ATOM     95  H9  PRO d           6.620  27.539  22.098  0.00  0.00     0.075 H 
ATOM     96  CB  PRO d           3.823  25.890  22.672  0.00  0.00    -0.028 C 
ATOM     97  H6  PRO d           5.765  25.971  23.665  0.00  0.00     0.035 H 
ATOM     98  H7  PRO d           4.686  27.358  24.038  0.00  0.00     0.035 H 
ATOM     99  H4  PRO d           3.544  25.033  23.304  0.00  0.00     0.036 H 
ATOM    100  H5  PRO d           2.948  26.542  22.534  0.00  0.00     0.036 H 
ATOM    101  H3  PRO d           5.006  24.531  21.482  0.00  0.00     0.099 H 
ENDBRANCH  85  88
ENDBRANCH  82  84
BRANCH  82 102
ATOM    102  CB  PRO d           0.638  22.625  19.803  0.00  0.00     0.002 C 
ATOM    103  H12 PRO d           0.792  21.663  19.294  0.00  0.00     0.046 H 
ATOM    104  H13 PRO d          -0.380  22.988  19.601  0.00  0.00     0.046 H 
BRANCH 102 105
ATOM    105  CG  PRO d           0.791  22.417  21.283  0.00  0.00     0.030 A 
ATOM    106  ND1 PRO d          -0.066  22.826  22.205  0.00  0.00    -0.353 N 
ATOM    107  CE1 PRO d           0.467  22.504  23.347  0.00  0.00     0.063 A 
ATOM    108  H14 PRO d          -0.967  23.302  22.050  0.00  0.00     0.166 HD
ATOM    109  NE2 PRO d           1.621  21.897  23.160  0.00  0.00    -0.254 NA
ATOM    110  H16 PRO d           0.022  22.706  24.320  0.00  0.00     0.143 H 
ATOM    111  CD2 PRO d           1.871  21.815  21.888  0.00  0.00     0.025 A 
ATOM    112  H15 PRO d           2.741  21.368  21.407  0.00  0.00     0.117 H 
ENDBRANCH 102 105
ENDBRANCH  82 102
ENDBRANCH  79  82
ENDBRANCH  76  78
BRANCH  76 113
ATOM    113  CB  PRO d          -1.897  26.692  20.374  0.00  0.00    -0.035 C 
ATOM    114  H19 PRO d          -2.819  26.420  19.839  0.00  0.00     0.037 H 
ATOM    115  H20 PRO d          -1.978  27.725  20.744  0.00  0.00     0.037 H 
BRANCH 113 116
ATOM    116  CG  PRO d          -1.781  25.740  21.639  0.00  0.00    -0.059 C 
ATOM    117  H21 PRO d          -0.986  25.001  21.462  0.00  0.00     0.038 H 
BRANCH 116 118
ATOM    118  CD1 PRO d          -1.527  26.519  22.927  0.00  0.00    -0.073 C 
ATOM    119  H22 PRO d          -0.851  27.362  22.718  0.00  0.00     0.028 H 
ATOM    120  H23 PRO d          -1.066  25.855  23.672  0.00  0.00     0.028 H 
ATOM    121  H24 PRO d          -2.481  26.903  23.317  0.00  0.00     0.028 H 
ENDBRANCH 116 118
BRANCH 116 122
ATOM    122  CD2 PRO d          -3.106  25.060  21.945  0.00  0.00    -0.073 C 
ATOM    123  H25 PRO d          -2.918  24.042  22.319  0.00  0.00     0.028 H 
ATOM    124  H26 PRO d          -3.711  25.008  21.027  0.00  0.00     0.028 H 
ATOM    125  H27 PRO d          -3.646  25.637  22.709  0.00  0.00     0.028 H 
ENDBRANCH 116 122
ENDBRANCH 113 116
ENDBRANCH  76 113
ENDBRANCH  73  76
ENDBRANCH  70  72
BRANCH  70 126
ATOM    126  CB  PRO d           2.939  28.840  16.972  0.00  0.00     0.044 C 
ATOM    127  H30 PRO d           3.809  29.244  17.511  0.00  0.00     0.077 H 
ATOM    128  H31 PRO d           2.880  29.301  15.975  0.00  0.00     0.077 H 
BRANCH 126 129
ATOM    129  OG  PRO d           3.152  27.436  16.792  0.00  0.00    -0.398 OA
ATOM    130  H32 PRO d           3.184  27.238  15.863  0.00  0.00     0.209 HD
ENDBRANCH 126 129
ENDBRANCH  70 126
ENDBRANCH   1  70
TORSDOF 33
ENDMDL
MODEL 3
REMARK VINA RESULT:      -6.4      3.132     10.521
REMARK WARNING: 32 MAX_TORS EXCEEDED!!!
REMARK  33 active torsions:
REMARK  status: ('A' for Active; 'I' for Inactive)
REMARK    1  A    between atoms: CA_2  and  C_3 
REMARK       I    between atoms: C_3  and  N_8 
REMARK    2  A    between atoms: N_8  and  CA_9 
REMARK    3  A    between atoms: CA_9  and  C_10 
REMARK    4  A    between atoms: CA_9  and  CB_12 
REMARK       I    between atoms: C_10  and  N_18 
REMARK    5  A    between atoms: CB_12  and  CG_13 
REMARK    6  A    between atoms: N_18  and  CA_19 
REMARK    7  A    between atoms: CA_19  and  C_20 
REMARK    8  A    between atoms: CA_19  and  CB_22 
REMARK       I    between atoms: C_20  and  N_26 
REMARK    9  A    between atoms: CB_22  and  CG_23 
REMARK   10  A    between atoms: CG_23  and  CD1_24 
REMARK   11  A    between atoms: CG_23  and  CD2_25 
REMARK   12  A    between atoms: N_26  and  CA_27 
REMARK   13  A    between atoms: CA_27  and  C_28 
REMARK   14  A    between atoms: CA_27  and  CB_30 
REMARK       I    between atoms: C_28  and  N_32 
REMARK   15  A    between atoms: CB_30  and  OG_31 
REMARK   16  A    between atoms: N_32  and  C1_33 
REMARK   17  A    between atoms: C1_33  and  C2_34 
REMARK   18  A    between atoms: C1_33  and  C9_41 
REMARK   19  A    between atoms: C2_34  and  C3_35 
REMARK   20  A    between atoms: C9_41  and  N2_42 
REMARK   21  A    between atoms: N2_42  and  C10_43 
REMARK   22  A    between atoms: C10_43  and  C11_44 
REMARK   23  A    between atoms: C10_43  and  C_48 
REMARK   24  A    between atoms: C11_44  and  C12_45 
REMARK   25  A    between atoms: C12_45  and  SD_46 
REMARK   26  A    between atoms: SD_46  and  C13_47 
REMARK       I    between atoms: C_48  and  N_50 
REMARK   27  A    between atoms: N_50  and  CA_51 
REMARK   28  A    between atoms: CA_51  and  C_52 
REMARK   29  A    between atoms: CA_51  and  CB_54 
REMARK       I    between atoms: C_52  and  N_55 
REMARK   30  A    between atoms: N_55  and  CA_56 
REMARK   31  A    between atoms: CA_56  and  C_57 
REMARK   32  A    between atoms: CA_56  and  CB_59 
REMARK   33  A    between atoms: CB_59  and  CG_60 
ROOT
ATOM      1  C   PRO d           4.276  28.354  20.687  0.00  0.00     0.242 C 
ATOM      2  O   PRO d           4.128  29.450  21.267  0.00  0.00    -0.271 OA
ATOM      3  N   PRO d           4.493  28.293  19.369  0.00  0.00    -0.353 N 
ATOM      4  H33 PRO d           4.515  27.399  18.923  0.00  0.00     0.163 HD
ENDROOT
BRANCH   3   5
ATOM      5  C1  PRO d           4.697  29.489  18.562  0.00  0.00     0.039 C 
ATOM      6  H34 PRO d           4.513  30.366  19.201  0.00  0.00     0.075 H 
BRANCH   5   7
ATOM      7  C2  PRO d           6.120  29.535  18.057  0.00  0.00    -0.021 C 
ATOM      8  H35 PRO d           6.092  29.958  17.042  0.00  0.00     0.043 H 
ATOM      9  H36 PRO d           6.484  28.498  18.013  0.00  0.00     0.043 H 
BRANCH   7  10
ATOM     10  C3  PRO d           7.142  30.340  18.856  0.00  0.00    -0.056 A 
ATOM     11  C4  PRO d           8.490  30.227  18.494  0.00  0.00    -0.077 A 
ATOM     12  C6  PRO d           9.457  30.958  19.180  0.00  0.00    -0.082 A 
ATOM     13  H37 PRO d           8.780  29.571  17.681  0.00  0.00     0.084 H 
ATOM     14  C8  PRO d           9.093  31.799  20.230  0.00  0.00    -0.083 A 
ATOM     15  H39 PRO d          10.499  30.873  18.895  0.00  0.00     0.083 H 
ATOM     16  C7  PRO d           7.756  31.904  20.596  0.00  0.00    -0.082 A 
ATOM     17  H41 PRO d           9.849  32.368  20.759  0.00  0.00     0.083 H 
ATOM     18  C5  PRO d           6.779  31.185  19.913  0.00  0.00    -0.077 A 
ATOM     19  H40 PRO d           7.472  32.551  21.418  0.00  0.00     0.083 H 
ATOM     20  H38 PRO d           5.738  31.279  20.200  0.00  0.00     0.084 H 
ENDBRANCH   7  10
ENDBRANCH   5   7
BRANCH   5  21
ATOM     21  C9  PRO d           3.770  29.573  17.350  0.00  0.00     0.101 C 
ATOM     22  H42 PRO d           3.364  28.571  17.147  0.00  0.00     0.079 H 
ATOM     23  H43 PRO d           4.355  29.914  16.483  0.00  0.00     0.079 H 
BRANCH  21  24
ATOM     24  N2  PRO d           2.671  30.484  17.553  0.00  0.00    -0.060 N 
ATOM     25  H44 PRO d           2.741  30.850  18.489  0.00  0.00     0.278 HD
ATOM     26  H45 PRO d           1.814  29.962  17.458  0.00  0.00     0.278 HD
BRANCH  24  27
ATOM     27  C10 PRO d           2.611  31.622  16.627  0.00  0.00     0.178 C 
ATOM     28  H46 PRO d           2.347  32.520  17.206  0.00  0.00     0.099 H 
BRANCH  27  29
ATOM     29  C11 PRO d           4.010  31.829  16.002  0.00  0.00    -0.022 C 
ATOM     30  H47 PRO d           3.860  32.004  14.926  0.00  0.00     0.037 H 
ATOM     31  H48 PRO d           4.570  30.894  16.147  0.00  0.00     0.037 H 
BRANCH  29  32
ATOM     32  C12 PRO d           4.896  32.971  16.525  0.00  0.00    -0.021 C 
ATOM     33  H49 PRO d           4.936  32.894  17.623  0.00  0.00     0.049 H 
ATOM     34  H50 PRO d           4.424  33.923  16.242  0.00  0.00     0.049 H 
BRANCH  32  35
ATOM     35  SD  PRO d           6.593  32.982  15.904  0.00  0.00    -0.173 SA
BRANCH  35  36
ATOM     36  C13 PRO d           7.381  33.761  17.277  0.00  0.00    -0.035 C 
ATOM     37  H51 PRO d           8.464  33.579  17.229  0.00  0.00     0.041 H 
ATOM     38  H52 PRO d           6.981  33.345  18.214  0.00  0.00     0.041 H 
ATOM     39  H53 PRO d           7.189  34.843  17.246  0.00  0.00     0.041 H 
ENDBRANCH  35  36
ENDBRANCH  32  35
ENDBRANCH  29  32
ENDBRANCH  27  29
BRANCH  27  40
ATOM     40  C   PRO d           1.544  31.447  15.508  0.00  0.00     0.249 C 
ATOM     41  O   PRO d           0.968  30.354  15.377  0.00  0.00    -0.271 OA
ATOM     42  N   PRO d           1.180  32.490  14.763  0.00  0.00    -0.346 N 
ATOM     43  H54 PRO d           1.513  33.406  14.987  0.00  0.00     0.163 HD
BRANCH  42  44
ATOM     44  CA  PRO d           0.295  32.294  13.623  0.00  0.00     0.086 C 
ATOM     45  H55 PRO d           0.247  31.250  13.279  0.00  0.00     0.086 H 
BRANCH  44  46
ATOM     46  C   PRO d           1.044  33.218  12.665  0.00  0.00     0.240 C 
ATOM     47  O   PRO d           0.603  33.463  11.532  0.00  0.00    -0.271 OA
ATOM     48  N   PRO d           2.061  33.854  13.241  0.00  0.00    -0.344 N 
ATOM     49  H59 PRO d           2.280  33.645  14.193  0.00  0.00     0.163 HD
BRANCH  48  50
ATOM     50  CA  PRO d           2.868  34.842  12.539  0.00  0.00     0.101 C 
ATOM     51  H60 PRO d           2.664  34.779  11.460  0.00  0.00     0.090 H 
BRANCH  50  52
ATOM     52  C   PRO d           4.351  34.576  12.769  0.00  0.00     0.197 C 
ATOM     53  O   PRO d           4.708  33.391  12.828  0.00  0.00    -0.646 OA
ATOM     54  OXT PRO d           5.107  35.553  12.783  0.00  0.00    -0.646 OA
ENDBRANCH  50  52
BRANCH  50  55
ATOM     55  CB  PRO d           2.448  36.248  13.052  0.00  0.00     0.003 C 
ATOM     56  H61 PRO d           3.328  36.902  12.962  0.00  0.00     0.046 H 
ATOM     57  H62 PRO d           2.178  36.139  14.113  0.00  0.00     0.046 H 
BRANCH  55  58
ATOM     58  CG  PRO d           1.280  36.963  12.359  0.00  0.00     0.030 A 
ATOM     59  ND1 PRO d           0.066  36.496  12.066  0.00  0.00    -0.353 N 
ATOM     60  CE1 PRO d          -0.588  37.430  11.412  0.00  0.00     0.063 A 
ATOM     61  H63 PRO d          -0.297  35.563  12.309  0.00  0.00     0.166 HD
ATOM     62  NE2 PRO d           0.194  38.497  11.283  0.00  0.00    -0.254 NA
ATOM     63  H65 PRO d          -1.606  37.343  11.036  0.00  0.00     0.143 H 
ATOM     64  CD2 PRO d           1.346  38.256  11.853  0.00  0.00     0.025 A 
ATOM     65  H64 PRO d           2.193  38.937  11.919  0.00  0.00     0.117 H 
ENDBRANCH  55  58
ENDBRANCH  50  55
ENDBRANCH  48  50
ENDBRANCH  44  46
BRANCH  44  66
ATOM     66  CB  PRO d          -1.097  32.824  13.916  0.00  0.00    -0.049 C 
ATOM     67  H56 PRO d          -1.717  32.746  13.011  0.00  0.00     0.030 H 
ATOM     68  H57 PRO d          -1.030  33.878  14.224  0.00  0.00     0.030 H 
ATOM     69  H58 PRO d          -1.552  32.233  14.725  0.00  0.00     0.030 H 
ENDBRANCH  44  66
ENDBRANCH  42  44
ENDBRANCH  27  40
ENDBRANCH  24  27
ENDBRANCH  21  24
ENDBRANCH   5  21
ENDBRANCH   3   5
BRANCH   1  70
ATOM     70  CA  PRO d           4.197  27.000  21.415  0.00  0.00     0.109 C 
ATOM     71  H29 PRO d           4.583  27.121  22.438  0.00  0.00     0.090 H 
BRANCH  70  72
ATOM     72  N   PRO d           2.801  26.539  21.494  0.00  0.00    -0.344 N 
ATOM     73  C   PRO d           2.294  25.811  22.495  0.00  0.00     0.241 C 
ATOM     74  O   PRO d           3.036  25.381  23.394  0.00  0.00    -0.271 OA
ATOM     75  H28 PRO d           2.187  26.789  20.745  0.00  0.00     0.163 HD
BRANCH  73  76
ATOM     76  CA  PRO d           0.823  25.396  22.403  0.00  0.00     0.089 C 
ATOM     77  H18 PRO d           0.471  25.249  23.434  0.00  0.00     0.087 H 
BRANCH  76  78
ATOM     78  N   PRO d           0.004  26.415  21.764  0.00  0.00    -0.346 N 
ATOM     79  C   PRO d          -1.203  26.691  22.251  0.00  0.00     0.241 C 
ATOM     80  O   PRO d          -1.600  26.149  23.288  0.00  0.00    -0.271 OA
ATOM     81  H17 PRO d           0.347  26.906  20.963  0.00  0.00     0.163 HD
BRANCH  79  82
ATOM     82  CA  PRO d          -2.173  27.643  21.576  0.00  0.00     0.094 C 
ATOM     83  H11 PRO d          -3.145  27.163  21.390  0.00  0.00     0.088 H 
BRANCH  82  84
ATOM     84  N   PRO d          -2.335  28.788  22.485  0.00  0.00    -0.346 N 
ATOM     85  C   PRO d          -1.390  29.710  22.783  0.00  0.00     0.249 C 
ATOM     86  O   PRO d          -0.270  29.740  22.240  0.00  0.00    -0.271 OA
ATOM     87  H10 PRO d          -3.227  28.895  22.924  0.00  0.00     0.163 HD
BRANCH  85  88
ATOM     88  CA  PRO d          -1.686  30.799  23.826  0.00  0.00     0.178 C 
ATOM     89  N   PRO d          -1.530  32.074  23.137  0.00  0.00    -0.062 N 
ATOM     90  CD  PRO d          -2.570  32.978  23.626  0.00  0.00     0.083 C 
ATOM     91  H1  PRO d          -1.631  31.941  22.143  0.00  0.00     0.278 HD
ATOM     92  H2  PRO d          -0.620  32.461  23.334  0.00  0.00     0.278 HD
ATOM     93  CG  PRO d          -3.277  32.248  24.773  0.00  0.00    -0.040 C 
ATOM     94  H8  PRO d          -3.285  33.205  22.822  0.00  0.00     0.075 H 
ATOM     95  H9  PRO d          -2.121  33.913  23.991  0.00  0.00     0.075 H 
ATOM     96  CB  PRO d          -3.117  30.790  24.351  0.00  0.00    -0.028 C 
ATOM     97  H6  PRO d          -2.785  32.443  25.737  0.00  0.00     0.035 H 
ATOM     98  H7  PRO d          -4.338  32.533  24.838  0.00  0.00     0.035 H 
ATOM     99  H4  PRO d          -3.231  30.107  25.205  0.00  0.00     0.036 H 
ATOM    100  H5  PRO d          -3.835  30.515  23.564  0.00  0.00     0.036 H 
ATOM    101  H3  PRO d          -0.982  30.707  24.665  0.00  0.00     0.099 H 
ENDBRANCH  85  88
ENDBRANCH  82  84
BRANCH  82 102
ATOM    102  CB  PRO d          -1.523  28.044  20.261  0.00  0.00     0.002 C 
ATOM    103  H12 PRO d          -1.000  27.171  19.845  0.00  0.00     0.046 H 
ATOM    104  H13 PRO d          -0.798  28.847  20.457  0.00  0.00     0.046 H 
BRANCH 102 105
ATOM    105  CG  PRO d          -2.524  28.533  19.253  0.00  0.00     0.030 A 
ATOM    106  ND1 PRO d          -2.328  28.585  17.945  0.00  0.00    -0.353 N 
ATOM    107  CE1 PRO d          -3.406  29.122  17.450  0.00  0.00     0.063 A 
ATOM    108  H14 PRO d          -1.496  28.267  17.427  0.00  0.00     0.166 HD
ATOM    109  NE2 PRO d          -4.266  29.392  18.410  0.00  0.00    -0.254 NA
ATOM    110  H16 PRO d          -3.572  29.319  16.393  0.00  0.00     0.143 H 
ATOM    111  CD2 PRO d          -3.767  29.042  19.557  0.00  0.00     0.025 A 
ATOM    112  H15 PRO d          -4.228  29.132  20.540  0.00  0.00     0.117 H 
ENDBRANCH 102 105
ENDBRANCH  82 102
ENDBRANCH  79  82
ENDBRANCH  76  78
BRANCH  76 113
ATOM    113  CB  PRO d           0.526  24.092  21.597  0.00  0.00    -0.035 C 
ATOM    114  H19 PRO d          -0.505  23.788  21.830  0.00  0.00     0.037 H 
ATOM    115  H20 PRO d           1.225  23.320  21.950  0.00  0.00     0.037 H 
BRANCH 113 116
ATOM    116  CG  PRO d           0.657  24.169  20.018  0.00  0.00    -0.059 C 
ATOM    117  H21 PRO d           1.254  25.051  19.748  0.00  0.00     0.038 H 
BRANCH 116 118
ATOM    118  CD1 PRO d           1.259  22.898  19.425  0.00  0.00    -0.073 C 
ATOM    119  H22 PRO d           0.520  22.412  18.772  0.00  0.00     0.028 H 
ATOM    120  H23 PRO d           1.538  22.212  20.238  0.00  0.00     0.028 H 
ATOM    121  H24 PRO d           2.154  23.155  18.839  0.00  0.00     0.028 H 
ENDBRANCH 116 118
BRANCH 116 122
ATOM    122  CD2 PRO d          -0.709  24.205  19.350  0.00  0.00    -0.073 C 
ATOM    123  H25 PRO d          -0.772  25.085  18.692  0.00  0.00     0.028 H 
ATOM    124  H26 PRO d          -1.492  24.265  20.120  0.00  0.00     0.028 H 
ATOM    125  H27 PRO d          -0.849  23.292  18.754  0.00  0.00     0.028 H 
ENDBRANCH 116 122
ENDBRANCH 113 116
ENDBRANCH  76 113
ENDBRANCH  73  76
ENDBRANCH  70  72
BRANCH  70 126
ATOM    126  CB  PRO d           5.092  25.969  20.656  0.00  0.00     0.044 C 
ATOM    127  H30 PRO d           4.551  25.660  19.749  0.00  0.00     0.077 H 
ATOM    128  H31 PRO d           5.231  25.098  21.314  0.00  0.00     0.077 H 
BRANCH 126 129
ATOM    129  OG  PRO d           6.390  26.424  20.256  0.00  0.00    -0.398 OA
ATOM    130  H32 PRO d           7.044  26.067  20.845  0.00  0.00     0.209 HD
ENDBRANCH 126 129
ENDBRANCH  70 126
ENDBRANCH   1  70
TORSDOF 33
ENDMDL
MODEL 4
REMARK VINA RESULT:      -6.4      3.119      9.440
REMARK WARNING: 32 MAX_TORS EXCEEDED!!!
REMARK  33 active torsions:
REMARK  status: ('A' for Active; 'I' for Inactive)
REMARK    1  A    between atoms: CA_2  and  C_3 
REMARK       I    between atoms: C_3  and  N_8 
REMARK    2  A    between atoms: N_8  and  CA_9 
REMARK    3  A    between atoms: CA_9  and  C_10 
REMARK    4  A    between atoms: CA_9  and  CB_12 
REMARK       I    between atoms: C_10  and  N_18 
REMARK    5  A    between atoms: CB_12  and  CG_13 
REMARK    6  A    between atoms: N_18  and  CA_19 
REMARK    7  A    between atoms: CA_19  and  C_20 
REMARK    8  A    between atoms: CA_19  and  CB_22 
REMARK       I    between atoms: C_20  and  N_26 
REMARK    9  A    between atoms: CB_22  and  CG_23 
REMARK   10  A    between atoms: CG_23  and  CD1_24 
REMARK   11  A    between atoms: CG_23  and  CD2_25 
REMARK   12  A    between atoms: N_26  and  CA_27 
REMARK   13  A    between atoms: CA_27  and  C_28 
REMARK   14  A    between atoms: CA_27  and  CB_30 
REMARK       I    between atoms: C_28  and  N_32 
REMARK   15  A    between atoms: CB_30  and  OG_31 
REMARK   16  A    between atoms: N_32  and  C1_33 
REMARK   17  A    between atoms: C1_33  and  C2_34 
REMARK   18  A    between atoms: C1_33  and  C9_41 
REMARK   19  A    between atoms: C2_34  and  C3_35 
REMARK   20  A    between atoms: C9_41  and  N2_42 
REMARK   21  A    between atoms: N2_42  and  C10_43 
REMARK   22  A    between atoms: C10_43  and  C11_44 
REMARK   23  A    between atoms: C10_43  and  C_48 
REMARK   24  A    between atoms: C11_44  and  C12_45 
REMARK   25  A    between atoms: C12_45  and  SD_46 
REMARK   26  A    between atoms: SD_46  and  C13_47 
REMARK       I    between atoms: C_48  and  N_50 
REMARK   27  A    between atoms: N_50  and  CA_51 
REMARK   28  A    between atoms: CA_51  and  C_52 
REMARK   29  A    between atoms: CA_51  and  CB_54 
REMARK       I    between atoms: C_52  and  N_55 
REMARK   30  A    between atoms: N_55  and  CA_56 
REMARK   31  A    between atoms: CA_56  and  C_57 
REMARK   32  A    between atoms: CA_56  and  CB_59 
REMARK   33  A    between atoms: CB_59  and  CG_60 
ROOT
ATOM      1  C   PRO d           0.884  30.045  16.863  0.00  0.00     0.242 C 
ATOM      2  O   PRO d           0.946  31.291  16.929  0.00  0.00    -0.271 OA
ATOM      3  N   PRO d          -0.032  29.438  16.103  0.00  0.00    -0.353 N 
ATOM      4  H33 PRO d          -0.113  28.442  16.145  0.00  0.00     0.163 HD
ENDROOT
BRANCH   3   5
ATOM      5  C1  PRO d          -0.919  30.180  15.216  0.00  0.00     0.039 C 
ATOM      6  H34 PRO d          -1.535  29.454  14.666  0.00  0.00     0.075 H 
BRANCH   5   7
ATOM      7  C2  PRO d          -1.822  31.082  16.025  0.00  0.00    -0.021 C 
ATOM      8  H35 PRO d          -2.647  31.393  15.366  0.00  0.00     0.043 H 
ATOM      9  H36 PRO d          -1.230  31.963  16.312  0.00  0.00     0.043 H 
BRANCH   7  10
ATOM     10  C3  PRO d          -2.446  30.520  17.299  0.00  0.00    -0.056 A 
ATOM     11  C4  PRO d          -2.392  31.308  18.455  0.00  0.00    -0.077 A 
ATOM     12  C6  PRO d          -2.966  30.847  19.638  0.00  0.00    -0.082 A 
ATOM     13  H37 PRO d          -1.902  32.275  18.430  0.00  0.00     0.084 H 
ATOM     14  C8  PRO d          -3.591  29.602  19.680  0.00  0.00    -0.083 A 
ATOM     15  H39 PRO d          -2.927  31.460  20.530  0.00  0.00     0.083 H 
ATOM     16  C7  PRO d          -3.637  28.816  18.534  0.00  0.00    -0.082 A 
ATOM     17  H41 PRO d          -4.039  29.249  20.602  0.00  0.00     0.083 H 
ATOM     18  C5  PRO d          -3.074  29.268  17.345  0.00  0.00    -0.077 A 
ATOM     19  H40 PRO d          -4.115  27.843  18.568  0.00  0.00     0.083 H 
ATOM     20  H38 PRO d          -3.121  28.652  16.455  0.00  0.00     0.084 H 
ENDBRANCH   7  10
ENDBRANCH   5   7
BRANCH   5  21
ATOM     21  C9  PRO d          -0.178  31.051  14.202  0.00  0.00     0.101 C 
ATOM     22  H42 PRO d          -0.447  30.717  13.189  0.00  0.00     0.079 H 
ATOM     23  H43 PRO d           0.904  30.925  14.354  0.00  0.00     0.079 H 
BRANCH  21  24
ATOM     24  N2  PRO d          -0.503  32.450  14.328  0.00  0.00    -0.060 N 
ATOM     25  H44 PRO d           0.024  32.821  15.103  0.00  0.00     0.278 HD
ATOM     26  H45 PRO d          -1.488  32.522  14.526  0.00  0.00     0.278 HD
BRANCH  24  27
ATOM     27  C10 PRO d          -0.217  33.277  13.150  0.00  0.00     0.178 C 
ATOM     28  H46 PRO d          -0.630  32.768  12.266  0.00  0.00     0.099 H 
BRANCH  27  29
ATOM     29  C11 PRO d          -0.926  34.640  13.315  0.00  0.00    -0.022 C 
ATOM     30  H47 PRO d          -0.153  35.377  13.581  0.00  0.00     0.037 H 
ATOM     31  H48 PRO d          -1.636  34.536  14.149  0.00  0.00     0.037 H 
BRANCH  29  32
ATOM     32  C12 PRO d          -1.709  35.218  12.126  0.00  0.00    -0.021 C 
ATOM     33  H49 PRO d          -1.857  34.411  11.392  0.00  0.00     0.049 H 
ATOM     34  H50 PRO d          -1.102  36.016  11.675  0.00  0.00     0.049 H 
BRANCH  32  35
ATOM     35  SD  PRO d          -3.330  35.911  12.528  0.00  0.00    -0.173 SA
BRANCH  35  36
ATOM     36  C13 PRO d          -2.836  37.051  13.780  0.00  0.00    -0.035 C 
ATOM     37  H51 PRO d          -3.107  36.651  14.768  0.00  0.00     0.041 H 
ATOM     38  H52 PRO d          -3.347  38.013  13.622  0.00  0.00     0.041 H 
ATOM     39  H53 PRO d          -1.748  37.203  13.731  0.00  0.00     0.041 H 
ENDBRANCH  35  36
ENDBRANCH  32  35
ENDBRANCH  29  32
ENDBRANCH  27  29
BRANCH  27  40
ATOM     40  C   PRO d           1.305  33.491  12.906  0.00  0.00     0.249 C 
ATOM     41  O   PRO d           1.706  33.803  11.773  0.00  0.00    -0.271 OA
ATOM     42  N   PRO d           2.159  33.438  13.928  0.00  0.00    -0.346 N 
ATOM     43  H54 PRO d           1.816  33.362  14.864  0.00  0.00     0.163 HD
BRANCH  42  44
ATOM     44  CA  PRO d           3.593  33.489  13.679  0.00  0.00     0.086 C 
ATOM     45  H55 PRO d           3.962  32.657  13.061  0.00  0.00     0.086 H 
BRANCH  44  46
ATOM     46  C   PRO d           4.024  33.400  15.142  0.00  0.00     0.240 C 
ATOM     47  O   PRO d           3.205  33.542  16.062  0.00  0.00    -0.271 OA
ATOM     48  N   PRO d           5.274  32.971  15.293  0.00  0.00    -0.344 N 
ATOM     49  H59 PRO d           5.825  32.803  14.477  0.00  0.00     0.163 HD
BRANCH  48  50
ATOM     50  CA  PRO d           5.871  32.736  16.600  0.00  0.00     0.101 C 
ATOM     51  H60 PRO d           5.553  33.529  17.293  0.00  0.00     0.090 H 
BRANCH  50  52
ATOM     52  C   PRO d           7.392  32.761  16.500  0.00  0.00     0.197 C 
ATOM     53  O   PRO d           7.892  32.390  15.430  0.00  0.00    -0.646 OA
ATOM     54  OXT PRO d           8.014  33.239  17.454  0.00  0.00    -0.646 OA
ENDBRANCH  50  52
BRANCH  50  55
ATOM     55  CB  PRO d           5.349  31.368  17.121  0.00  0.00     0.003 C 
ATOM     56  H61 PRO d           5.521  30.630  16.324  0.00  0.00     0.046 H 
ATOM     57  H62 PRO d           4.268  31.478  17.293  0.00  0.00     0.046 H 
BRANCH  55  58
ATOM     58  CG  PRO d           5.956  30.794  18.408  0.00  0.00     0.030 A 
ATOM     59  ND1 PRO d           6.228  31.413  19.556  0.00  0.00    -0.353 N 
ATOM     60  CE1 PRO d           6.804  30.551  20.365  0.00  0.00     0.063 A 
ATOM     61  H63 PRO d           6.023  32.399  19.774  0.00  0.00     0.166 HD
ATOM     62  NE2 PRO d           6.903  29.379  19.746  0.00  0.00    -0.254 NA
ATOM     63  H65 PRO d           7.145  30.763  21.377  0.00  0.00     0.143 H 
ATOM     64  CD2 PRO d           6.392  29.481  18.547  0.00  0.00     0.025 A 
ATOM     65  H64 PRO d           6.322  28.691  17.802  0.00  0.00     0.117 H 
ENDBRANCH  55  58
ENDBRANCH  50  55
ENDBRANCH  48  50
ENDBRANCH  44  46
BRANCH  44  66
ATOM     66  CB  PRO d           3.994  34.822  13.073  0.00  0.00    -0.049 C 
ATOM     67  H56 PRO d           3.684  35.637  13.744  0.00  0.00     0.030 H 
ATOM     68  H57 PRO d           3.502  34.944  12.097  0.00  0.00     0.030 H 
ATOM     69  H58 PRO d           5.086  34.852  12.941  0.00  0.00     0.030 H 
ENDBRANCH  44  66
ENDBRANCH  42  44
ENDBRANCH  27  40
ENDBRANCH  24  27
ENDBRANCH  21  24
ENDBRANCH   5  21
ENDBRANCH   3   5
BRANCH   1  70
ATOM     70  CA  PRO d           1.820  29.115  17.655  0.00  0.00     0.109 C 
ATOM     71  H29 PRO d           2.190  29.649  18.543  0.00  0.00     0.090 H 
BRANCH  70  72
ATOM     72  N   PRO d           1.095  27.914  18.102  0.00  0.00    -0.344 N 
ATOM     73  C   PRO d           0.173  27.897  19.072  0.00  0.00     0.241 C 
ATOM     74  O   PRO d          -0.048  28.918  19.742  0.00  0.00    -0.271 OA
ATOM     75  H28 PRO d           1.306  27.049  17.647  0.00  0.00     0.163 HD
BRANCH  73  76
ATOM     76  CA  PRO d          -0.465  26.551  19.426  0.00  0.00     0.089 C 
ATOM     77  H18 PRO d          -1.248  26.366  18.676  0.00  0.00     0.087 H 
BRANCH  76  78
ATOM     78  N   PRO d           0.496  25.460  19.387  0.00  0.00    -0.346 N 
ATOM     79  C   PRO d           1.573  25.503  20.168  0.00  0.00     0.241 C 
ATOM     80  O   PRO d           1.721  26.418  20.984  0.00  0.00    -0.271 OA
ATOM     81  H17 PRO d           0.349  24.682  18.777  0.00  0.00     0.163 HD
BRANCH  79  82
ATOM     82  CA  PRO d           2.688  24.476  20.100  0.00  0.00     0.094 C 
ATOM     83  H11 PRO d           3.070  24.363  19.075  0.00  0.00     0.088 H 
BRANCH  82  84
ATOM     84  N   PRO d           3.754  24.958  20.992  0.00  0.00    -0.346 N 
ATOM     85  C   PRO d           4.813  25.720  20.631  0.00  0.00     0.249 C 
ATOM     86  O   PRO d           4.964  26.179  19.484  0.00  0.00    -0.271 OA
ATOM     87  H10 PRO d           3.691  24.700  21.956  0.00  0.00     0.163 HD
BRANCH  85  88
ATOM     88  CA  PRO d           5.894  26.066  21.666  0.00  0.00     0.178 C 
ATOM     89  N   PRO d           5.771  27.497  21.917  0.00  0.00    -0.062 N 
ATOM     90  CD  PRO d           6.000  27.723  23.344  0.00  0.00     0.083 C 
ATOM     91  H1  PRO d           4.847  27.811  21.664  0.00  0.00     0.278 HD
ATOM     92  H2  PRO d           6.458  28.000  21.377  0.00  0.00     0.278 HD
ATOM     93  CG  PRO d           6.432  26.376  23.934  0.00  0.00    -0.040 C 
ATOM     94  H8  PRO d           5.074  28.070  23.827  0.00  0.00     0.075 H 
ATOM     95  H9  PRO d           6.791  28.472  23.488  0.00  0.00     0.075 H 
ATOM     96  CB  PRO d           5.702  25.395  23.021  0.00  0.00    -0.028 C 
ATOM     97  H6  PRO d           7.522  26.244  23.875  0.00  0.00     0.035 H 
ATOM     98  H7  PRO d           6.105  26.271  24.979  0.00  0.00     0.035 H 
ATOM     99  H4  PRO d           6.164  24.398  23.048  0.00  0.00     0.036 H 
ATOM    100  H5  PRO d           4.637  25.312  23.284  0.00  0.00     0.036 H 
ATOM    101  H3  PRO d           6.885  25.813  21.264  0.00  0.00     0.099 H 
ENDBRANCH  85  88
ENDBRANCH  82  84
BRANCH  82 102
ATOM    102  CB  PRO d           2.086  23.167  20.586  0.00  0.00     0.002 C 
ATOM    103  H12 PRO d           2.688  22.335  20.192  0.00  0.00     0.046 H 
ATOM    104  H13 PRO d           1.058  23.088  20.206  0.00  0.00     0.046 H 
BRANCH 102 105
ATOM    105  CG  PRO d           2.055  23.072  22.085  0.00  0.00     0.030 A 
ATOM    106  ND1 PRO d           1.259  23.772  22.879  0.00  0.00    -0.353 N 
ATOM    107  CE1 PRO d           1.592  23.438  24.092  0.00  0.00     0.063 A 
ATOM    108  H14 PRO d           0.530  24.442  22.595  0.00  0.00     0.166 HD
ATOM    109  NE2 PRO d           2.560  22.545  24.073  0.00  0.00    -0.254 NA
ATOM    110  H16 PRO d           1.135  23.840  24.994  0.00  0.00     0.143 H 
ATOM    111  CD2 PRO d           2.885  22.278  22.844  0.00  0.00     0.025 A 
ATOM    112  H15 PRO d           3.646  21.582  22.492  0.00  0.00     0.117 H 
ENDBRANCH 102 105
ENDBRANCH  82 102
ENDBRANCH  79  82
ENDBRANCH  76  78
BRANCH  76 113
ATOM    113  CB  PRO d          -1.116  26.451  20.842  0.00  0.00    -0.035 C 
ATOM    114  H19 PRO d          -1.103  27.458  21.284  0.00  0.00     0.037 H 
ATOM    115  H20 PRO d          -0.490  25.777  21.446  0.00  0.00     0.037 H 
BRANCH 113 116
ATOM    116  CG  PRO d          -2.607  25.914  20.919  0.00  0.00    -0.059 C 
ATOM    117  H21 PRO d          -3.278  26.749  21.170  0.00  0.00     0.038 H 
BRANCH 116 118
ATOM    118  CD1 PRO d          -3.043  25.232  19.626  0.00  0.00    -0.073 C 
ATOM    119  H22 PRO d          -3.594  24.310  19.865  0.00  0.00     0.028 H 
ATOM    120  H23 PRO d          -2.156  24.983  19.026  0.00  0.00     0.028 H 
ATOM    121  H24 PRO d          -3.694  25.910  19.054  0.00  0.00     0.028 H 
ENDBRANCH 116 118
BRANCH 116 122
ATOM    122  CD2 PRO d          -2.738  24.783  21.926  0.00  0.00    -0.073 C 
ATOM    123  H25 PRO d          -3.249  23.930  21.455  0.00  0.00     0.028 H 
ATOM    124  H26 PRO d          -3.323  25.129  22.792  0.00  0.00     0.028 H 
ATOM    125  H27 PRO d          -1.738  24.472  22.260  0.00  0.00     0.028 H 
ENDBRANCH 116 122
ENDBRANCH 113 116
ENDBRANCH  76 113
ENDBRANCH  73  76
ENDBRANCH  70  72
BRANCH  70 126
ATOM    126  CB  PRO d           3.036  28.737  16.751  0.00  0.00     0.044 C 
ATOM    127  H30 PRO d           3.727  29.594  16.743  0.00  0.00     0.077 H 
ATOM    128  H31 PRO d           2.656  28.564  15.733  0.00  0.00     0.077 H 
BRANCH 126 129
ATOM    129  OG  PRO d           3.785  27.579  17.139  0.00  0.00    -0.398 OA
ATOM    130  H32 PRO d           3.529  27.318  18.015  0.00  0.00     0.209 HD
ENDBRANCH 126 129
ENDBRANCH  70 126
ENDBRANCH   1  70
TORSDOF 33
ENDMDL
MODEL 5
REMARK VINA RESULT:      -6.4      2.778      6.644
REMARK WARNING: 32 MAX_TORS EXCEEDED!!!
REMARK  33 active torsions:
REMARK  status: ('A' for Active; 'I' for Inactive)
REMARK    1  A    between atoms: CA_2  and  C_3 
REMARK       I    between atoms: C_3  and  N_8 
REMARK    2  A    between atoms: N_8  and  CA_9 
REMARK    3  A    between atoms: CA_9  and  C_10 
REMARK    4  A    between atoms: CA_9  and  CB_12 
REMARK       I    between atoms: C_10  and  N_18 
REMARK    5  A    between atoms: CB_12  and  CG_13 
REMARK    6  A    between atoms: N_18  and  CA_19 
REMARK    7  A    between atoms: CA_19  and  C_20 
REMARK    8  A    between atoms: CA_19  and  CB_22 
REMARK       I    between atoms: C_20  and  N_26 
REMARK    9  A    between atoms: CB_22  and  CG_23 
REMARK   10  A    between atoms: CG_23  and  CD1_24 
REMARK   11  A    between atoms: CG_23  and  CD2_25 
REMARK   12  A    between atoms: N_26  and  CA_27 
REMARK   13  A    between atoms: CA_27  and  C_28 
REMARK   14  A    between atoms: CA_27  and  CB_30 
REMARK       I    between atoms: C_28  and  N_32 
REMARK   15  A    between atoms: CB_30  and  OG_31 
REMARK   16  A    between atoms: N_32  and  C1_33 
REMARK   17  A    between atoms: C1_33  and  C2_34 
REMARK   18  A    between atoms: C1_33  and  C9_41 
REMARK   19  A    between atoms: C2_34  and  C3_35 
REMARK   20  A    between atoms: C9_41  and  N2_42 
REMARK   21  A    between atoms: N2_42  and  C10_43 
REMARK   22  A    between atoms: C10_43  and  C11_44 
REMARK   23  A    between atoms: C10_43  and  C_48 
REMARK   24  A    between atoms: C11_44  and  C12_45 
REMARK   25  A    between atoms: C12_45  and  SD_46 
REMARK   26  A    between atoms: SD_46  and  C13_47 
REMARK       I    between atoms: C_48  and  N_50 
REMARK   27  A    between atoms: N_50  and  CA_51 
REMARK   28  A    between atoms: CA_51  and  C_52 
REMARK   29  A    between atoms: CA_51  and  CB_54 
REMARK       I    between atoms: C_52  and  N_55 
REMARK   30  A    between atoms: N_55  and  CA_56 
REMARK   31  A    between atoms: CA_56  and  C_57 
REMARK   32  A    between atoms: CA_56  and  CB_59 
REMARK   33  A    between atoms: CB_59  and  CG_60 
ROOT
ATOM      1  C   PRO d           2.149  27.901  19.727  0.00  0.00     0.242 C 
ATOM      2  O   PRO d           2.132  28.846  20.545  0.00  0.00    -0.271 OA
ATOM      3  N   PRO d           3.169  27.038  19.691  0.00  0.00    -0.353 N 
ATOM      4  H33 PRO d           3.196  26.350  18.966  0.00  0.00     0.163 HD
ENDROOT
BRANCH   3   5
ATOM      5  C1  PRO d           4.244  27.067  20.674  0.00  0.00     0.039 C 
ATOM      6  H34 PRO d           3.835  27.466  21.614  0.00  0.00     0.075 H 
BRANCH   5   7
ATOM      7  C2  PRO d           4.761  25.668  20.916  0.00  0.00    -0.021 C 
ATOM      8  H35 PRO d           5.773  25.616  20.487  0.00  0.00     0.043 H 
ATOM      9  H36 PRO d           4.098  24.977  20.375  0.00  0.00     0.043 H 
BRANCH   7  10
ATOM     10  C3  PRO d           4.854  25.173  22.357  0.00  0.00    -0.056 A 
ATOM     11  C4  PRO d           3.838  24.331  22.825  0.00  0.00    -0.077 A 
ATOM     12  C6  PRO d           3.889  23.837  24.126  0.00  0.00    -0.082 A 
ATOM     13  H37 PRO d           3.011  24.065  22.175  0.00  0.00     0.084 H 
ATOM     14  C8  PRO d           4.944  24.180  24.970  0.00  0.00    -0.083 A 
ATOM     15  H39 PRO d           3.104  23.182  24.485  0.00  0.00     0.083 H 
ATOM     16  C7  PRO d           5.948  25.024  24.508  0.00  0.00    -0.082 A 
ATOM     17  H41 PRO d           4.981  23.791  25.981  0.00  0.00     0.083 H 
ATOM     18  C5  PRO d           5.912  25.517  23.208  0.00  0.00    -0.077 A 
ATOM     19  H40 PRO d           6.765  25.299  25.166  0.00  0.00     0.083 H 
ATOM     20  H38 PRO d           6.704  26.169  22.854  0.00  0.00     0.084 H 
ENDBRANCH   7  10
ENDBRANCH   5   7
BRANCH   5  21
ATOM     21  C9  PRO d           5.430  27.936  20.257  0.00  0.00     0.101 C 
ATOM     22  H42 PRO d           5.667  27.726  19.204  0.00  0.00     0.079 H 
ATOM     23  H43 PRO d           6.295  27.676  20.886  0.00  0.00     0.079 H 
BRANCH  21  24
ATOM     24  N2  PRO d           5.163  29.345  20.399  0.00  0.00    -0.060 N 
ATOM     25  H44 PRO d           4.197  29.452  20.665  0.00  0.00     0.278 HD
ATOM     26  H45 PRO d           5.315  29.781  19.503  0.00  0.00     0.278 HD
BRANCH  24  27
ATOM     27  C10 PRO d           5.985  30.051  21.389  0.00  0.00     0.178 C 
ATOM     28  H46 PRO d           6.817  29.392  21.675  0.00  0.00     0.099 H 
BRANCH  27  29
ATOM     29  C11 PRO d           6.564  31.327  20.736  0.00  0.00    -0.022 C 
ATOM     30  H47 PRO d           5.856  32.145  20.941  0.00  0.00     0.037 H 
ATOM     31  H48 PRO d           6.609  31.144  19.653  0.00  0.00     0.037 H 
BRANCH  29  32
ATOM     32  C12 PRO d           7.956  31.816  21.168  0.00  0.00    -0.021 C 
ATOM     33  H49 PRO d           8.233  31.280  22.089  0.00  0.00     0.049 H 
ATOM     34  H50 PRO d           7.887  32.893  21.378  0.00  0.00     0.049 H 
BRANCH  32  35
ATOM     35  SD  PRO d           9.275  31.566  19.959  0.00  0.00    -0.173 SA
BRANCH  35  36
ATOM     36  C13 PRO d           8.911  29.903  19.497  0.00  0.00    -0.035 C 
ATOM     37  H51 PRO d           8.722  29.305  20.400  0.00  0.00     0.041 H 
ATOM     38  H52 PRO d           9.765  29.479  18.948  0.00  0.00     0.041 H 
ATOM     39  H53 PRO d           8.019  29.887  18.853  0.00  0.00     0.041 H 
ENDBRANCH  35  36
ENDBRANCH  32  35
ENDBRANCH  29  32
ENDBRANCH  27  29
BRANCH  27  40
ATOM     40  C   PRO d           5.203  30.419  22.684  0.00  0.00     0.249 C 
ATOM     41  O   PRO d           5.808  30.485  23.766  0.00  0.00    -0.271 OA
ATOM     42  N   PRO d           3.917  30.759  22.614  0.00  0.00    -0.346 N 
ATOM     43  H54 PRO d           3.478  30.878  21.723  0.00  0.00     0.163 HD
BRANCH  42  44
ATOM     44  CA  PRO d           3.151  30.958  23.836  0.00  0.00     0.086 C 
ATOM     45  H55 PRO d           3.722  30.745  24.752  0.00  0.00     0.086 H 
BRANCH  44  46
ATOM     46  C   PRO d           2.074  29.917  23.534  0.00  0.00     0.240 C 
ATOM     47  O   PRO d           2.185  28.746  23.925  0.00  0.00    -0.271 OA
ATOM     48  N   PRO d           0.971  30.444  23.009  0.00  0.00    -0.344 N 
ATOM     49  H59 PRO d           0.955  31.423  22.810  0.00  0.00     0.163 HD
BRANCH  48  50
ATOM     50  CA  PRO d          -0.214  29.651  22.712  0.00  0.00     0.101 C 
ATOM     51  H60 PRO d           0.093  28.648  22.383  0.00  0.00     0.090 H 
BRANCH  50  52
ATOM     52  C   PRO d          -1.021  30.303  21.595  0.00  0.00     0.197 C 
ATOM     53  O   PRO d          -0.933  29.797  20.468  0.00  0.00    -0.646 OA
ATOM     54  OXT PRO d          -1.778  31.227  21.908  0.00  0.00    -0.646 OA
ENDBRANCH  50  52
BRANCH  50  55
ATOM     55  CB  PRO d          -1.040  29.524  24.022  0.00  0.00     0.003 C 
ATOM     56  H61 PRO d          -1.623  30.451  24.129  0.00  0.00     0.046 H 
ATOM     57  H62 PRO d          -0.322  29.445  24.852  0.00  0.00     0.046 H 
BRANCH  55  58
ATOM     58  CG  PRO d          -2.021  28.353  24.160  0.00  0.00     0.030 A 
ATOM     59  ND1 PRO d          -2.083  27.223  23.455  0.00  0.00    -0.353 N 
ATOM     60  CE1 PRO d          -3.124  26.535  23.868  0.00  0.00     0.063 A 
ATOM     61  H63 PRO d          -1.428  26.938  22.712  0.00  0.00     0.166 HD
ATOM     62  NE2 PRO d          -3.733  27.211  24.837  0.00  0.00    -0.254 NA
ATOM     63  H65 PRO d          -3.437  25.567  23.480  0.00  0.00     0.143 H 
ATOM     64  CD2 PRO d          -3.088  28.329  25.051  0.00  0.00     0.025 A 
ATOM     65  H64 PRO d          -3.339  29.093  25.785  0.00  0.00     0.117 H 
ENDBRANCH  55  58
ENDBRANCH  50  55
ENDBRANCH  48  50
ENDBRANCH  44  46
BRANCH  44  66
ATOM     66  CB  PRO d           2.559  32.355  23.888  0.00  0.00    -0.049 C 
ATOM     67  H56 PRO d           2.055  32.504  24.854  0.00  0.00     0.030 H 
ATOM     68  H57 PRO d           1.831  32.475  23.072  0.00  0.00     0.030 H 
ATOM     69  H58 PRO d           3.363  33.098  23.775  0.00  0.00     0.030 H 
ENDBRANCH  44  66
ENDBRANCH  42  44
ENDBRANCH  27  40
ENDBRANCH  24  27
ENDBRANCH  21  24
ENDBRANCH   5  21
ENDBRANCH   3   5
BRANCH   1  70
ATOM     70  CA  PRO d           1.036  27.667  18.691  0.00  0.00     0.109 C 
ATOM     71  H29 PRO d           0.109  27.395  19.216  0.00  0.00     0.090 H 
BRANCH  70  72
ATOM     72  N   PRO d           0.790  28.892  17.913  0.00  0.00    -0.344 N 
ATOM     73  C   PRO d           1.690  29.487  17.122  0.00  0.00     0.241 C 
ATOM     74  O   PRO d           2.861  29.074  17.087  0.00  0.00    -0.271 OA
ATOM     75  H28 PRO d          -0.116  29.311  17.981  0.00  0.00     0.163 HD
BRANCH  73  76
ATOM     76  CA  PRO d           1.272  30.773  16.405  0.00  0.00     0.089 C 
ATOM     77  H18 PRO d           1.162  31.545  17.181  0.00  0.00     0.087 H 
BRANCH  76  78
ATOM     78  N   PRO d           2.268  31.212  15.439  0.00  0.00    -0.346 N 
ATOM     79  C   PRO d           2.862  32.393  15.596  0.00  0.00     0.241 C 
ATOM     80  O   PRO d           2.638  33.081  16.597  0.00  0.00    -0.271 OA
ATOM     81  H17 PRO d           2.504  30.630  14.662  0.00  0.00     0.163 HD
BRANCH  79  82
ATOM     82  CA  PRO d           3.814  32.984  14.573  0.00  0.00     0.094 C 
ATOM     83  H11 PRO d           4.392  32.201  14.061  0.00  0.00     0.088 H 
BRANCH  82  84
ATOM     84  N   PRO d           2.983  33.720  13.607  0.00  0.00    -0.346 N 
ATOM     85  C   PRO d           3.418  34.320  12.475  0.00  0.00     0.249 C 
ATOM     86  O   PRO d           4.592  34.245  12.070  0.00  0.00    -0.271 OA
ATOM     87  H10 PRO d           2.005  33.783  13.806  0.00  0.00     0.163 HD
BRANCH  85  88
ATOM     88  CA  PRO d           2.437  35.131  11.615  0.00  0.00     0.178 C 
ATOM     89  N   PRO d           1.660  34.157  10.858  0.00  0.00    -0.062 N 
ATOM     90  CD  PRO d           0.281  34.639  10.790  0.00  0.00     0.083 C 
ATOM     91  H1  PRO d           1.688  33.262  11.321  0.00  0.00     0.278 HD
ATOM     92  H2  PRO d           2.037  34.066   9.927  0.00  0.00     0.278 HD
ATOM     93  CG  PRO d           0.280  36.042  11.404  0.00  0.00    -0.040 C 
ATOM     94  H8  PRO d          -0.383  33.974  11.361  0.00  0.00     0.075 H 
ATOM     95  H9  PRO d          -0.056  34.682   9.744  0.00  0.00     0.075 H 
ATOM     96  CB  PRO d           1.418  35.934  12.415  0.00  0.00    -0.028 C 
ATOM     97  H6  PRO d           0.487  36.812  10.646  0.00  0.00     0.035 H 
ATOM     98  H7  PRO d          -0.677  36.264  11.899  0.00  0.00     0.035 H 
ATOM     99  H4  PRO d           1.809  36.924  12.691  0.00  0.00     0.036 H 
ATOM    100  H5  PRO d           1.103  35.399  13.323  0.00  0.00     0.036 H 
ATOM    101  H3  PRO d           2.998  35.802  10.948  0.00  0.00     0.099 H 
ENDBRANCH  85  88
ENDBRANCH  82  84
BRANCH  82 102
ATOM    102  CB  PRO d           4.744  33.906  15.346  0.00  0.00     0.002 C 
ATOM    103  H12 PRO d           4.162  34.424  16.122  0.00  0.00     0.046 H 
ATOM    104  H13 PRO d           5.166  34.646  14.650  0.00  0.00     0.046 H 
BRANCH 102 105
ATOM    105  CG  PRO d           5.872  33.163  16.003  0.00  0.00     0.030 A 
ATOM    106  ND1 PRO d           5.827  31.901  16.398  0.00  0.00    -0.353 N 
ATOM    107  CE1 PRO d           6.975  31.671  16.967  0.00  0.00     0.063 A 
ATOM    108  H14 PRO d           5.047  31.238  16.281  0.00  0.00     0.166 HD
ATOM    109  NE2 PRO d           7.732  32.748  16.925  0.00  0.00    -0.254 NA
ATOM    110  H16 PRO d           7.269  30.722  17.413  0.00  0.00     0.143 H 
ATOM    111  CD2 PRO d           7.092  33.710  16.332  0.00  0.00     0.025 A 
ATOM    112  H15 PRO d           7.442  34.723  16.137  0.00  0.00     0.117 H 
ENDBRANCH 102 105
ENDBRANCH  82 102
ENDBRANCH  79  82
ENDBRANCH  76  78
BRANCH  76 113
ATOM    113  CB  PRO d          -0.059  30.706  15.594  0.00  0.00    -0.035 C 
ATOM    114  H19 PRO d          -0.720  29.987  16.101  0.00  0.00     0.037 H 
ATOM    115  H20 PRO d           0.185  30.334  14.588  0.00  0.00     0.037 H 
BRANCH 113 116
ATOM    116  CG  PRO d          -0.872  32.058  15.418  0.00  0.00    -0.059 C 
ATOM    117  H21 PRO d          -0.378  32.853  15.995  0.00  0.00     0.038 H 
BRANCH 116 118
ATOM    118  CD1 PRO d          -1.019  32.457  13.952  0.00  0.00    -0.073 C 
ATOM    119  H22 PRO d          -1.753  33.272  13.866  0.00  0.00     0.028 H 
ATOM    120  H23 PRO d          -1.364  31.591  13.370  0.00  0.00     0.028 H 
ATOM    121  H24 PRO d          -0.047  32.796  13.565  0.00  0.00     0.028 H 
ENDBRANCH 116 118
BRANCH 116 122
ATOM    122  CD2 PRO d          -2.323  31.892  15.842  0.00  0.00    -0.073 C 
ATOM    123  H25 PRO d          -2.372  31.263  16.742  0.00  0.00     0.028 H 
ATOM    124  H26 PRO d          -2.889  31.415  15.028  0.00  0.00     0.028 H 
ATOM    125  H27 PRO d          -2.756  32.879  16.060  0.00  0.00     0.028 H 
ENDBRANCH 116 122
ENDBRANCH 113 116
ENDBRANCH  76 113
ENDBRANCH  73  76
ENDBRANCH  70  72
BRANCH  70 126
ATOM    126  CB  PRO d           1.456  26.482  17.763  0.00  0.00     0.044 C 
ATOM    127  H30 PRO d           1.071  25.554  18.210  0.00  0.00     0.077 H 
ATOM    128  H31 PRO d           2.555  26.449  17.739  0.00  0.00     0.077 H 
BRANCH 126 129
ATOM    129  OG  PRO d           0.992  26.538  16.409  0.00  0.00    -0.398 OA
ATOM    130  H32 PRO d           1.600  27.051  15.888  0.00  0.00     0.209 HD
ENDBRANCH 126 129
ENDBRANCH  70 126
ENDBRANCH   1  70
TORSDOF 33
ENDMDL
MODEL 6
REMARK VINA RESULT:      -6.3      3.114      6.240
REMARK WARNING: 32 MAX_TORS EXCEEDED!!!
REMARK  33 active torsions:
REMARK  status: ('A' for Active; 'I' for Inactive)
REMARK    1  A    between atoms: CA_2  and  C_3 
REMARK       I    between atoms: C_3  and  N_8 
REMARK    2  A    between atoms: N_8  and  CA_9 
REMARK    3  A    between atoms: CA_9  and  C_10 
REMARK    4  A    between atoms: CA_9  and  CB_12 
REMARK       I    between atoms: C_10  and  N_18 
REMARK    5  A    between atoms: CB_12  and  CG_13 
REMARK    6  A    between atoms: N_18  and  CA_19 
REMARK    7  A    between atoms: CA_19  and  C_20 
REMARK    8  A    between atoms: CA_19  and  CB_22 
REMARK       I    between atoms: C_20  and  N_26 
REMARK    9  A    between atoms: CB_22  and  CG_23 
REMARK   10  A    between atoms: CG_23  and  CD1_24 
REMARK   11  A    between atoms: CG_23  and  CD2_25 
REMARK   12  A    between atoms: N_26  and  CA_27 
REMARK   13  A    between atoms: CA_27  and  C_28 
REMARK   14  A    between atoms: CA_27  and  CB_30 
REMARK       I    between atoms: C_28  and  N_32 
REMARK   15  A    between atoms: CB_30  and  OG_31 
REMARK   16  A    between atoms: N_32  and  C1_33 
REMARK   17  A    between atoms: C1_33  and  C2_34 
REMARK   18  A    between atoms: C1_33  and  C9_41 
REMARK   19  A    between atoms: C2_34  and  C3_35 
REMARK   20  A    between atoms: C9_41  and  N2_42 
REMARK   21  A    between atoms: N2_42  and  C10_43 
REMARK   22  A    between atoms: C10_43  and  C11_44 
REMARK   23  A    between atoms: C10_43  and  C_48 
REMARK   24  A    between atoms: C11_44  and  C12_45 
REMARK   25  A    between atoms: C12_45  and  SD_46 
REMARK   26  A    between atoms: SD_46  and  C13_47 
REMARK       I    between atoms: C_48  and  N_50 
REMARK   27  A    between atoms: N_50  and  CA_51 
REMARK   28  A    between atoms: CA_51  and  C_52 
REMARK   29  A    between atoms: CA_51  and  CB_54 
REMARK       I    between atoms: C_52  and  N_55 
REMARK   30  A    between atoms: N_55  and  CA_56 
REMARK   31  A    between atoms: CA_56  and  C_57 
REMARK   32  A    between atoms: CA_56  and  CB_59 
REMARK   33  A    between atoms: CB_59  and  CG_60 
ROOT
ATOM      1  C   PRO d           2.859  31.073  16.059  0.00  0.00     0.242 C 
ATOM      2  O   PRO d           3.265  29.897  15.944  0.00  0.00    -0.271 OA
ATOM      3  N   PRO d           1.872  31.384  16.905  0.00  0.00    -0.353 N 
ATOM      4  H33 PRO d           1.511  32.316  16.905  0.00  0.00     0.163 HD
ENDROOT
BRANCH   3   5
ATOM      5  C1  PRO d           1.305  30.407  17.826  0.00  0.00     0.039 C 
ATOM      6  H34 PRO d           0.812  30.956  18.642  0.00  0.00     0.075 H 
BRANCH   5   7
ATOM      7  C2  PRO d           0.280  29.557  17.112  0.00  0.00    -0.021 C 
ATOM      8  H35 PRO d           0.359  28.539  17.520  0.00  0.00     0.043 H 
ATOM      9  H36 PRO d           0.551  29.547  16.046  0.00  0.00     0.043 H 
BRANCH   7  10
ATOM     10  C3  PRO d          -1.187  29.970  17.202  0.00  0.00    -0.056 A 
ATOM     11  C4  PRO d          -1.508  31.305  16.932  0.00  0.00    -0.077 A 
ATOM     12  C6  PRO d          -2.835  31.724  16.981  0.00  0.00    -0.082 A 
ATOM     13  H37 PRO d          -0.724  32.012  16.684  0.00  0.00     0.084 H 
ATOM     14  C8  PRO d          -3.848  30.823  17.305  0.00  0.00    -0.083 A 
ATOM     15  H39 PRO d          -3.083  32.757  16.767  0.00  0.00     0.083 H 
ATOM     16  C7  PRO d          -3.528  29.499  17.583  0.00  0.00    -0.082 A 
ATOM     17  H41 PRO d          -4.880  31.153  17.340  0.00  0.00     0.083 H 
ATOM     18  C5  PRO d          -2.207  29.066  17.529  0.00  0.00    -0.077 A 
ATOM     19  H40 PRO d          -4.314  28.799  17.844  0.00  0.00     0.083 H 
ATOM     20  H38 PRO d          -1.968  28.030  17.740  0.00  0.00     0.084 H 
ENDBRANCH   7  10
ENDBRANCH   5   7
BRANCH   5  21
ATOM     21  C9  PRO d           2.344  29.468  18.437  0.00  0.00     0.101 C 
ATOM     22  H42 PRO d           3.330  29.711  18.013  0.00  0.00     0.079 H 
ATOM     23  H43 PRO d           2.079  28.433  18.177  0.00  0.00     0.079 H 
BRANCH  21  24
ATOM     24  N2  PRO d           2.419  29.580  19.872  0.00  0.00    -0.060 N 
ATOM     25  H44 PRO d           1.486  29.737  20.220  0.00  0.00     0.278 HD
ATOM     26  H45 PRO d           2.998  30.375  20.091  0.00  0.00     0.278 HD
BRANCH  24  27
ATOM     27  C10 PRO d           2.972  28.414  20.571  0.00  0.00     0.178 C 
ATOM     28  H46 PRO d           3.217  28.716  21.600  0.00  0.00     0.099 H 
BRANCH  27  29
ATOM     29  C11 PRO d           1.893  27.308  20.623  0.00  0.00    -0.022 C 
ATOM     30  H47 PRO d           2.185  26.609  21.421  0.00  0.00     0.037 H 
ATOM     31  H48 PRO d           1.916  26.788  19.654  0.00  0.00     0.037 H 
BRANCH  29  32
ATOM     32  C12 PRO d           0.432  27.707  20.886  0.00  0.00    -0.021 C 
ATOM     33  H49 PRO d           0.300  28.748  20.553  0.00  0.00     0.049 H 
ATOM     34  H50 PRO d           0.252  27.643  21.968  0.00  0.00     0.049 H 
BRANCH  32  35
ATOM     35  SD  PRO d          -0.810  26.694  20.052  0.00  0.00    -0.173 SA
BRANCH  35  36
ATOM     36  C13 PRO d          -1.922  26.460  21.402  0.00  0.00    -0.035 C 
ATOM     37  H51 PRO d          -1.970  27.380  22.001  0.00  0.00     0.041 H 
ATOM     38  H52 PRO d          -1.566  25.630  22.031  0.00  0.00     0.041 H 
ATOM     39  H53 PRO d          -2.924  26.221  21.015  0.00  0.00     0.041 H 
ENDBRANCH  35  36
ENDBRANCH  32  35
ENDBRANCH  29  32
ENDBRANCH  27  29
BRANCH  27  40
ATOM     40  C   PRO d           4.271  27.864  19.915  0.00  0.00     0.249 C 
ATOM     41  O   PRO d           4.267  26.734  19.401  0.00  0.00    -0.271 OA
ATOM     42  N   PRO d           5.350  28.641  19.817  0.00  0.00    -0.346 N 
ATOM     43  H54 PRO d           5.296  29.606  20.070  0.00  0.00     0.163 HD
BRANCH  42  44
ATOM     44  CA  PRO d           6.607  28.081  19.340  0.00  0.00     0.086 C 
ATOM     45  H55 PRO d           6.676  26.990  19.462  0.00  0.00     0.086 H 
BRANCH  44  46
ATOM     46  C   PRO d           7.513  28.861  20.291  0.00  0.00     0.240 C 
ATOM     47  O   PRO d           8.576  28.377  20.706  0.00  0.00    -0.271 OA
ATOM     48  N   PRO d           7.142  30.129  20.443  0.00  0.00    -0.344 N 
ATOM     49  H59 PRO d           6.308  30.442  19.991  0.00  0.00     0.163 HD
BRANCH  48  50
ATOM     50  CA  PRO d           7.903  31.079  21.242  0.00  0.00     0.101 C 
ATOM     51  H60 PRO d           8.414  30.543  22.056  0.00  0.00     0.090 H 
BRANCH  50  52
ATOM     52  C   PRO d           6.972  32.119  21.857  0.00  0.00     0.197 C 
ATOM     53  O   PRO d           7.490  32.977  22.585  0.00  0.00    -0.646 OA
ATOM     54  OXT PRO d           5.787  32.093  21.510  0.00  0.00    -0.646 OA
ENDBRANCH  50  52
BRANCH  50  55
ATOM     55  CB  PRO d           8.968  31.731  20.318  0.00  0.00     0.003 C 
ATOM     56  H61 PRO d           9.829  31.047  20.282  0.00  0.00     0.046 H 
ATOM     57  H62 PRO d           9.271  32.678  20.789  0.00  0.00     0.046 H 
BRANCH  55  58
ATOM     58  CG  PRO d           8.583  32.051  18.867  0.00  0.00     0.030 A 
ATOM     59  ND1 PRO d           8.923  31.410  17.749  0.00  0.00    -0.353 N 
ATOM     60  CE1 PRO d           8.425  32.071  16.727  0.00  0.00     0.063 A 
ATOM     61  H63 PRO d           9.481  30.546  17.694  0.00  0.00     0.166 HD
ATOM     62  NE2 PRO d           7.764  33.132  17.178  0.00  0.00    -0.254 NA
ATOM     63  H65 PRO d           8.537  31.793  15.680  0.00  0.00     0.143 H 
ATOM     64  CD2 PRO d           7.831  33.155  18.484  0.00  0.00     0.025 A 
ATOM     65  H64 PRO d           7.385  33.898  19.143  0.00  0.00     0.117 H 
ENDBRANCH  55  58
ENDBRANCH  50  55
ENDBRANCH  48  50
ENDBRANCH  44  46
BRANCH  44  66
ATOM     66  CB  PRO d           6.865  28.473  17.896  0.00  0.00    -0.049 C 
ATOM     67  H56 PRO d           6.036  28.119  17.266  0.00  0.00     0.030 H 
ATOM     68  H57 PRO d           7.805  28.016  17.555  0.00  0.00     0.030 H 
ATOM     69  H58 PRO d           6.941  29.568  17.822  0.00  0.00     0.030 H 
ENDBRANCH  44  66
ENDBRANCH  42  44
ENDBRANCH  27  40
ENDBRANCH  24  27
ENDBRANCH  21  24
ENDBRANCH   5  21
ENDBRANCH   3   5
BRANCH   1  70
ATOM     70  CA  PRO d           3.428  32.242  15.236  0.00  0.00     0.109 C 
ATOM     71  H29 PRO d           4.167  31.851  14.521  0.00  0.00     0.090 H 
BRANCH  70  72
ATOM     72  N   PRO d           2.355  32.909  14.480  0.00  0.00    -0.344 N 
ATOM     73  C   PRO d           2.544  33.900  13.601  0.00  0.00     0.241 C 
ATOM     74  O   PRO d           3.672  34.398  13.453  0.00  0.00    -0.271 OA
ATOM     75  H28 PRO d           1.417  32.599  14.635  0.00  0.00     0.163 HD
BRANCH  73  76
ATOM     76  CA  PRO d           1.309  34.498  12.922  0.00  0.00     0.089 C 
ATOM     77  H18 PRO d           0.495  34.462  13.660  0.00  0.00     0.087 H 
BRANCH  76  78
ATOM     78  N   PRO d           1.519  35.879  12.516  0.00  0.00    -0.346 N 
ATOM     79  C   PRO d           0.647  36.814  12.885  0.00  0.00     0.241 C 
ATOM     80  O   PRO d          -0.292  36.535  13.637  0.00  0.00    -0.271 OA
ATOM     81  H17 PRO d           2.315  36.125  11.963  0.00  0.00     0.163 HD
BRANCH  79  82
ATOM     82  CA  PRO d           0.718  38.251  12.403  0.00  0.00     0.094 C 
ATOM     83  H11 PRO d           0.463  38.959  13.206  0.00  0.00     0.088 H 
BRANCH  82  84
ATOM     84  N   PRO d           2.100  38.471  11.949  0.00  0.00    -0.346 N 
ATOM     85  C   PRO d           3.219  38.325  12.696  0.00  0.00     0.249 C 
ATOM     86  O   PRO d           3.208  37.895  13.864  0.00  0.00    -0.271 OA
ATOM     87  H10 PRO d           2.225  38.755  10.998  0.00  0.00     0.163 HD
BRANCH  85  88
ATOM     88  CA  PRO d           4.589  38.683  12.101  0.00  0.00     0.178 C 
ATOM     89  N   PRO d           4.339  39.086  10.722  0.00  0.00    -0.062 N 
ATOM     90  CD  PRO d           5.228  40.206  10.414  0.00  0.00     0.083 C 
ATOM     91  H1  PRO d           3.378  39.372  10.617  0.00  0.00     0.278 HD
ATOM     92  H2  PRO d           4.531  38.316  10.100  0.00  0.00     0.278 HD
ATOM     93  CG  PRO d           6.156  40.369  11.623  0.00  0.00    -0.040 C 
ATOM     94  H8  PRO d           4.643  41.124  10.258  0.00  0.00     0.075 H 
ATOM     95  H9  PRO d           5.815  39.988   9.511  0.00  0.00     0.075 H 
ATOM     96  CB  PRO d           5.265  39.879  12.760  0.00  0.00    -0.028 C 
ATOM     97  H6  PRO d           7.058  39.747  11.522  0.00  0.00     0.035 H 
ATOM     98  H7  PRO d           6.449  41.420  11.766  0.00  0.00     0.035 H 
ATOM     99  H4  PRO d           5.857  39.577  13.636  0.00  0.00     0.036 H 
ATOM    100  H5  PRO d           4.533  40.644  13.059  0.00  0.00     0.036 H 
ATOM    101  H3  PRO d           5.253  37.808  12.149  0.00  0.00     0.099 H 
ENDBRANCH  85  88
ENDBRANCH  82  84
BRANCH  82 102
ATOM    102  CB  PRO d          -0.282  38.363  11.263  0.00  0.00     0.002 C 
ATOM    103  H12 PRO d          -0.438  37.364  10.831  0.00  0.00     0.046 H 
ATOM    104  H13 PRO d           0.131  39.034  10.496  0.00  0.00     0.046 H 
BRANCH 102 105
ATOM    105  CG  PRO d          -1.607  38.906  11.715  0.00  0.00     0.030 A 
ATOM    106  ND1 PRO d          -2.614  38.180  12.176  0.00  0.00    -0.353 N 
ATOM    107  CE1 PRO d          -3.583  39.021  12.392  0.00  0.00     0.063 A 
ATOM    108  H14 PRO d          -2.627  37.161  12.332  0.00  0.00     0.166 HD
ATOM    109  NE2 PRO d          -3.204  40.245  12.090  0.00  0.00    -0.254 NA
ATOM    110  H16 PRO d          -4.567  38.750  12.770  0.00  0.00     0.143 H 
ATOM    111  CD2 PRO d          -1.977  40.231  11.663  0.00  0.00     0.025 A 
ATOM    112  H15 PRO d          -1.375  41.079  11.338  0.00  0.00     0.117 H 
ENDBRANCH 102 105
ENDBRANCH  82 102
ENDBRANCH  79  82
ENDBRANCH  76  78
BRANCH  76 113
ATOM    113  CB  PRO d           0.821  33.778  11.626  0.00  0.00    -0.035 C 
ATOM    114  H19 PRO d           0.504  32.763  11.910  0.00  0.00     0.037 H 
ATOM    115  H20 PRO d           1.679  33.715  10.940  0.00  0.00     0.037 H 
BRANCH 113 116
ATOM    116  CG  PRO d          -0.378  34.448  10.831  0.00  0.00    -0.059 C 
ATOM    117  H21 PRO d          -0.183  35.525  10.724  0.00  0.00     0.038 H 
BRANCH 116 118
ATOM    118  CD1 PRO d          -0.604  33.796   9.470  0.00  0.00    -0.073 C 
ATOM    119  H22 PRO d          -0.237  32.759   9.494  0.00  0.00     0.028 H 
ATOM    120  H23 PRO d          -0.060  34.359   8.698  0.00  0.00     0.028 H 
ATOM    121  H24 PRO d          -1.679  33.799   9.236  0.00  0.00     0.028 H 
ENDBRANCH 116 118
BRANCH 116 122
ATOM    122  CD2 PRO d          -1.710  34.196  11.520  0.00  0.00    -0.073 C 
ATOM    123  H25 PRO d          -2.503  34.752  10.999  0.00  0.00     0.028 H 
ATOM    124  H26 PRO d          -1.650  34.533  12.566  0.00  0.00     0.028 H 
ATOM    125  H27 PRO d          -1.938  33.121  11.494  0.00  0.00     0.028 H 
ENDBRANCH 116 122
ENDBRANCH 113 116
ENDBRANCH  76 113
ENDBRANCH  73  76
ENDBRANCH  70  72
BRANCH  70 126
ATOM    126  CB  PRO d           4.142  33.238  16.205  0.00  0.00     0.044 C 
ATOM    127  H30 PRO d           4.297  32.720  17.163  0.00  0.00     0.077 H 
ATOM    128  H31 PRO d           3.471  34.096  16.357  0.00  0.00     0.077 H 
BRANCH 126 129
ATOM    129  OG  PRO d           5.410  33.748  15.775  0.00  0.00    -0.398 OA
ATOM    130  H32 PRO d           5.961  33.901  16.533  0.00  0.00     0.209 HD
ENDBRANCH 126 129
ENDBRANCH  70 126
ENDBRANCH   1  70
TORSDOF 33
ENDMDL
MODEL 7
REMARK VINA RESULT:      -6.3      3.129     11.252
REMARK WARNING: 32 MAX_TORS EXCEEDED!!!
REMARK  33 active torsions:
REMARK  status: ('A' for Active; 'I' for Inactive)
REMARK    1  A    between atoms: CA_2  and  C_3 
REMARK       I    between atoms: C_3  and  N_8 
REMARK    2  A    between atoms: N_8  and  CA_9 
REMARK    3  A    between atoms: CA_9  and  C_10 
REMARK    4  A    between atoms: CA_9  and  CB_12 
REMARK       I    between atoms: C_10  and  N_18 
REMARK    5  A    between atoms: CB_12  and  CG_13 
REMARK    6  A    between atoms: N_18  and  CA_19 
REMARK    7  A    between atoms: CA_19  and  C_20 
REMARK    8  A    between atoms: CA_19  and  CB_22 
REMARK       I    between atoms: C_20  and  N_26 
REMARK    9  A    between atoms: CB_22  and  CG_23 
REMARK   10  A    between atoms: CG_23  and  CD1_24 
REMARK   11  A    between atoms: CG_23  and  CD2_25 
REMARK   12  A    between atoms: N_26  and  CA_27 
REMARK   13  A    between atoms: CA_27  and  C_28 
REMARK   14  A    between atoms: CA_27  and  CB_30 
REMARK       I    between atoms: C_28  and  N_32 
REMARK   15  A    between atoms: CB_30  and  OG_31 
REMARK   16  A    between atoms: N_32  and  C1_33 
REMARK   17  A    between atoms: C1_33  and  C2_34 
REMARK   18  A    between atoms: C1_33  and  C9_41 
REMARK   19  A    between atoms: C2_34  and  C3_35 
REMARK   20  A    between atoms: C9_41  and  N2_42 
REMARK   21  A    between atoms: N2_42  and  C10_43 
REMARK   22  A    between atoms: C10_43  and  C11_44 
REMARK   23  A    between atoms: C10_43  and  C_48 
REMARK   24  A    between atoms: C11_44  and  C12_45 
REMARK   25  A    between atoms: C12_45  and  SD_46 
REMARK   26  A    between atoms: SD_46  and  C13_47 
REMARK       I    between atoms: C_48  and  N_50 
REMARK   27  A    between atoms: N_50  and  CA_51 
REMARK   28  A    between atoms: CA_51  and  C_52 
REMARK   29  A    between atoms: CA_51  and  CB_54 
REMARK       I    between atoms: C_52  and  N_55 
REMARK   30  A    between atoms: N_55  and  CA_56 
REMARK   31  A    between atoms: CA_56  and  C_57 
REMARK   32  A    between atoms: CA_56  and  CB_59 
REMARK   33  A    between atoms: CB_59  and  CG_60 
ROOT
ATOM      1  C   PRO d           5.795  28.872  21.335  0.00  0.00     0.242 C 
ATOM      2  O   PRO d           5.801  29.903  22.040  0.00  0.00    -0.271 OA
ATOM      3  N   PRO d           5.596  28.940  20.015  0.00  0.00    -0.353 N 
ATOM      4  H33 PRO d           5.506  28.090  19.495  0.00  0.00     0.163 HD
ENDROOT
BRANCH   3   5
ATOM      5  C1  PRO d           5.504  30.212  19.309  0.00  0.00     0.039 C 
ATOM      6  H34 PRO d           4.825  30.866  19.875  0.00  0.00     0.075 H 
BRANCH   5   7
ATOM      7  C2  PRO d           6.867  30.860  19.232  0.00  0.00    -0.021 C 
ATOM      8  H35 PRO d           7.612  30.050  19.211  0.00  0.00     0.043 H 
ATOM      9  H36 PRO d           6.997  31.454  20.148  0.00  0.00     0.043 H 
BRANCH   7  10
ATOM     10  C3  PRO d           7.162  31.779  18.050  0.00  0.00    -0.056 A 
ATOM     11  C4  PRO d           6.748  33.113  18.141  0.00  0.00    -0.077 A 
ATOM     12  C6  PRO d           7.013  33.995  17.095  0.00  0.00    -0.082 A 
ATOM     13  H37 PRO d           6.221  33.459  19.023  0.00  0.00     0.084 H 
ATOM     14  C8  PRO d           7.683  33.557  15.955  0.00  0.00    -0.083 A 
ATOM     15  H39 PRO d           6.697  35.029  17.169  0.00  0.00     0.083 H 
ATOM     16  C7  PRO d           8.086  32.229  15.861  0.00  0.00    -0.082 A 
ATOM     17  H41 PRO d           7.890  34.247  15.145  0.00  0.00     0.083 H 
ATOM     18  C5  PRO d           7.834  31.340  16.901  0.00  0.00    -0.077 A 
ATOM     19  H40 PRO d           8.600  31.884  14.970  0.00  0.00     0.083 H 
ATOM     20  H38 PRO d           8.158  30.309  16.823  0.00  0.00     0.084 H 
ENDBRANCH   7  10
ENDBRANCH   5   7
BRANCH   5  21
ATOM     21  C9  PRO d           4.969  30.081  17.883  0.00  0.00     0.101 C 
ATOM     22  H42 PRO d           5.249  29.092  17.491  0.00  0.00     0.079 H 
ATOM     23  H43 PRO d           5.428  30.865  17.263  0.00  0.00     0.079 H 
BRANCH  21  24
ATOM     24  N2  PRO d           3.536  30.217  17.813  0.00  0.00    -0.060 N 
ATOM     25  H44 PRO d           3.200  30.444  18.736  0.00  0.00     0.278 HD
ATOM     26  H45 PRO d           3.155  29.330  17.525  0.00  0.00     0.278 HD
BRANCH  24  27
ATOM     27  C10 PRO d           3.040  31.243  16.887  0.00  0.00     0.178 C 
ATOM     28  H46 PRO d           2.767  32.131  17.476  0.00  0.00     0.099 H 
BRANCH  27  29
ATOM     29  C11 PRO d           4.178  31.624  15.912  0.00  0.00    -0.022 C 
ATOM     30  H47 PRO d           4.242  30.823  15.161  0.00  0.00     0.037 H 
ATOM     31  H48 PRO d           5.108  31.654  16.498  0.00  0.00     0.037 H 
BRANCH  29  32
ATOM     32  C12 PRO d           4.084  32.954  15.147  0.00  0.00    -0.021 C 
ATOM     33  H49 PRO d           4.604  33.723  15.738  0.00  0.00     0.049 H 
ATOM     34  H50 PRO d           3.021  33.219  15.055  0.00  0.00     0.049 H 
BRANCH  32  35
ATOM     35  SD  PRO d           4.802  32.945  13.488  0.00  0.00    -0.173 SA
BRANCH  35  36
ATOM     36  C13 PRO d           4.836  34.685  13.196  0.00  0.00    -0.035 C 
ATOM     37  H51 PRO d           4.341  34.905  12.239  0.00  0.00     0.041 H 
ATOM     38  H52 PRO d           5.880  35.029  13.157  0.00  0.00     0.041 H 
ATOM     39  H53 PRO d           4.310  35.204  14.010  0.00  0.00     0.041 H 
ENDBRANCH  35  36
ENDBRANCH  32  35
ENDBRANCH  29  32
ENDBRANCH  27  29
BRANCH  27  40
ATOM     40  C   PRO d           1.781  30.793  16.092  0.00  0.00     0.249 C 
ATOM     41  O   PRO d           1.597  29.586  15.867  0.00  0.00    -0.271 OA
ATOM     42  N   PRO d           0.857  31.688  15.743  0.00  0.00    -0.346 N 
ATOM     43  H54 PRO d           0.918  32.628  16.078  0.00  0.00     0.163 HD
BRANCH  42  44
ATOM     44  CA  PRO d          -0.243  31.294  14.873  0.00  0.00     0.086 C 
ATOM     45  H55 PRO d          -0.273  30.215  14.664  0.00  0.00     0.086 H 
BRANCH  44  46
ATOM     46  C   PRO d           0.179  32.137  13.671  0.00  0.00     0.240 C 
ATOM     47  O   PRO d           0.980  31.701  12.830  0.00  0.00    -0.271 OA
ATOM     48  N   PRO d          -0.536  33.250  13.537  0.00  0.00    -0.344 N 
ATOM     49  H59 PRO d          -1.221  33.467  14.231  0.00  0.00     0.163 HD
BRANCH  48  50
ATOM     50  CA  PRO d          -0.359  34.167  12.419  0.00  0.00     0.101 C 
ATOM     51  H60 PRO d          -0.145  33.591  11.507  0.00  0.00     0.090 H 
BRANCH  50  52
ATOM     52  C   PRO d           0.811  35.107  12.684  0.00  0.00     0.197 C 
ATOM     53  O   PRO d           0.840  36.166  12.042  0.00  0.00    -0.646 OA
ATOM     54  OXT PRO d           1.596  34.795  13.586  0.00  0.00    -0.646 OA
ENDBRANCH  50  52
BRANCH  50  55
ATOM     55  CB  PRO d          -1.692  34.943  12.228  0.00  0.00     0.003 C 
ATOM     56  H61 PRO d          -2.475  34.198  12.027  0.00  0.00     0.046 H 
ATOM     57  H62 PRO d          -1.566  35.591  11.347  0.00  0.00     0.046 H 
BRANCH  55  58
ATOM     58  CG  PRO d          -2.194  35.831  13.374  0.00  0.00     0.030 A 
ATOM     59  ND1 PRO d          -1.804  37.058  13.718  0.00  0.00    -0.353 N 
ATOM     60  CE1 PRO d          -2.456  37.410  14.804  0.00  0.00     0.063 A 
ATOM     61  H63 PRO d          -1.110  37.633  13.219  0.00  0.00     0.166 HD
ATOM     62  NE2 PRO d          -3.267  36.419  15.162  0.00  0.00    -0.254 NA
ATOM     63  H65 PRO d          -2.350  38.360  15.326  0.00  0.00     0.143 H 
ATOM     64  CD2 PRO d          -3.141  35.434  14.311  0.00  0.00     0.025 A 
ATOM     65  H64 PRO d          -3.676  34.486  14.333  0.00  0.00     0.117 H 
ENDBRANCH  55  58
ENDBRANCH  50  55
ENDBRANCH  48  50
ENDBRANCH  44  46
BRANCH  44  66
ATOM     66  CB  PRO d          -1.574  31.767  15.430  0.00  0.00    -0.049 C 
ATOM     67  H56 PRO d          -2.394  31.309  14.857  0.00  0.00     0.030 H 
ATOM     68  H57 PRO d          -1.637  32.862  15.347  0.00  0.00     0.030 H 
ATOM     69  H58 PRO d          -1.655  31.473  16.486  0.00  0.00     0.030 H 
ENDBRANCH  44  66
ENDBRANCH  42  44
ENDBRANCH  27  40
ENDBRANCH  24  27
ENDBRANCH  21  24
ENDBRANCH   5  21
ENDBRANCH   3   5
BRANCH   1  70
ATOM     70  CA  PRO d           5.986  27.459  21.912  0.00  0.00     0.109 C 
ATOM     71  H29 PRO d           6.760  27.492  22.693  0.00  0.00     0.090 H 
BRANCH  70  72
ATOM     72  N   PRO d           4.733  26.976  22.515  0.00  0.00    -0.344 N 
ATOM     73  C   PRO d           4.343  27.230  23.769  0.00  0.00     0.241 C 
ATOM     74  O   PRO d           5.103  27.825  24.552  0.00  0.00    -0.271 OA
ATOM     75  H28 PRO d           4.130  26.417  21.946  0.00  0.00     0.163 HD
BRANCH  73  76
ATOM     76  CA  PRO d           3.018  26.626  24.242  0.00  0.00     0.089 C 
ATOM     77  H18 PRO d           2.641  27.279  25.042  0.00  0.00     0.087 H 
BRANCH  76  78
ATOM     78  N   PRO d           2.031  26.565  23.175  0.00  0.00    -0.346 N 
ATOM     79  C   PRO d           0.960  27.354  23.224  0.00  0.00     0.241 C 
ATOM     80  O   PRO d           0.839  28.194  24.121  0.00  0.00    -0.271 OA
ATOM     81  H17 PRO d           2.156  25.935  22.409  0.00  0.00     0.163 HD
BRANCH  79  82
ATOM     82  CA  PRO d          -0.180  27.268  22.226  0.00  0.00     0.094 C 
ATOM     83  H11 PRO d          -0.152  28.103  21.509  0.00  0.00     0.088 H 
BRANCH  82  84
ATOM     84  N   PRO d          -0.022  25.986  21.521  0.00  0.00    -0.346 N 
ATOM     85  C   PRO d          -0.033  25.805  20.181  0.00  0.00     0.249 C 
ATOM     86  O   PRO d          -0.100  26.743  19.366  0.00  0.00    -0.271 OA
ATOM     87  H10 PRO d           0.107  25.171  22.087  0.00  0.00     0.163 HD
BRANCH  85  88
ATOM     88  CA  PRO d           0.053  24.385  19.600  0.00  0.00     0.178 C 
ATOM     89  N   PRO d           1.328  24.312  18.896  0.00  0.00    -0.062 N 
ATOM     90  CD  PRO d           1.891  22.982  19.128  0.00  0.00     0.083 C 
ATOM     91  H1  PRO d           1.956  25.016  19.250  0.00  0.00     0.278 HD
ATOM     92  H2  PRO d           1.183  24.455  17.909  0.00  0.00     0.278 HD
ATOM     93  CG  PRO d           0.821  22.180  19.876  0.00  0.00    -0.040 C 
ATOM     94  H8  PRO d           2.805  23.057  19.735  0.00  0.00     0.075 H 
ATOM     95  H9  PRO d           2.128  22.497  18.169  0.00  0.00     0.075 H 
ATOM     96  CB  PRO d           0.101  23.281  20.649  0.00  0.00    -0.028 C 
ATOM     97  H6  PRO d           0.142  21.669  19.178  0.00  0.00     0.035 H 
ATOM     98  H7  PRO d           1.273  21.443  20.555  0.00  0.00     0.035 H 
ATOM     99  H4  PRO d          -0.908  22.967  20.953  0.00  0.00     0.036 H 
ATOM    100  H5  PRO d           0.671  23.591  21.538  0.00  0.00     0.036 H 
ATOM    101  H3  PRO d          -0.792  24.213  18.918  0.00  0.00     0.099 H 
ENDBRANCH  85  88
ENDBRANCH  82  84
BRANCH  82 102
ATOM    102  CB  PRO d          -1.461  27.316  23.043  0.00  0.00     0.002 C 
ATOM    103  H12 PRO d          -1.540  28.305  23.516  0.00  0.00     0.046 H 
ATOM    104  H13 PRO d          -1.413  26.540  23.821  0.00  0.00     0.046 H 
BRANCH 102 105
ATOM    105  CG  PRO d          -2.685  27.083  22.204  0.00  0.00     0.030 A 
ATOM    106  ND1 PRO d          -3.466  26.017  22.272  0.00  0.00    -0.353 N 
ATOM    107  CE1 PRO d          -4.365  26.181  21.345  0.00  0.00     0.063 A 
ATOM    108  H14 PRO d          -3.381  25.222  22.923  0.00  0.00     0.166 HD
ATOM    109  NE2 PRO d          -4.170  27.321  20.714  0.00  0.00    -0.254 NA
ATOM    110  H16 PRO d          -5.164  25.476  21.122  0.00  0.00     0.143 H 
ATOM    111  CD2 PRO d          -3.135  27.926  21.212  0.00  0.00     0.025 A 
ATOM    112  H15 PRO d          -2.716  28.886  20.913  0.00  0.00     0.117 H 
ENDBRANCH 102 105
ENDBRANCH  82 102
ENDBRANCH  79  82
ENDBRANCH  76  78
BRANCH  76 113
ATOM    113  CB  PRO d           3.087  25.168  24.796  0.00  0.00    -0.035 C 
ATOM    114  H19 PRO d           2.608  25.168  25.787  0.00  0.00     0.037 H 
ATOM    115  H20 PRO d           4.150  24.904  24.901  0.00  0.00     0.037 H 
BRANCH 113 116
ATOM    116  CG  PRO d           2.396  24.030  23.932  0.00  0.00    -0.059 C 
ATOM    117  H21 PRO d           1.714  24.493  23.205  0.00  0.00     0.038 H 
BRANCH 116 118
ATOM    118  CD1 PRO d           3.417  23.137  23.232  0.00  0.00    -0.073 C 
ATOM    119  H22 PRO d           3.281  22.096  23.562  0.00  0.00     0.028 H 
ATOM    120  H23 PRO d           4.432  23.472  23.486  0.00  0.00     0.028 H 
ATOM    121  H24 PRO d           3.272  23.198  22.143  0.00  0.00     0.028 H 
ENDBRANCH 116 118
BRANCH 116 122
ATOM    122  CD2 PRO d           1.664  23.031  24.814  0.00  0.00    -0.073 C 
ATOM    123  H25 PRO d           2.343  22.670  25.601  0.00  0.00     0.028 H 
ATOM    124  H26 PRO d           1.325  22.182  24.203  0.00  0.00     0.028 H 
ATOM    125  H27 PRO d           0.794  23.520  25.277  0.00  0.00     0.028 H 
ENDBRANCH 116 122
ENDBRANCH 113 116
ENDBRANCH  76 113
ENDBRANCH  73  76
ENDBRANCH  70  72
BRANCH  70 126
ATOM    126  CB  PRO d           6.466  26.510  20.767  0.00  0.00     0.044 C 
ATOM    127  H30 PRO d           5.729  26.569  19.952  0.00  0.00     0.077 H 
ATOM    128  H31 PRO d           6.488  25.486  21.168  0.00  0.00     0.077 H 
BRANCH 126 129
ATOM    129  OG  PRO d           7.756  26.786  20.208  0.00  0.00    -0.398 OA
ATOM    130  H32 PRO d           7.650  27.231  19.376  0.00  0.00     0.209 HD
ENDBRANCH 126 129
ENDBRANCH  70 126
ENDBRANCH   1  70
TORSDOF 33
ENDMDL
MODEL 8
REMARK VINA RESULT:      -6.1      3.079     10.546
REMARK WARNING: 32 MAX_TORS EXCEEDED!!!
REMARK  33 active torsions:
REMARK  status: ('A' for Active; 'I' for Inactive)
REMARK    1  A    between atoms: CA_2  and  C_3 
REMARK       I    between atoms: C_3  and  N_8 
REMARK    2  A    between atoms: N_8  and  CA_9 
REMARK    3  A    between atoms: CA_9  and  C_10 
REMARK    4  A    between atoms: CA_9  and  CB_12 
REMARK       I    between atoms: C_10  and  N_18 
REMARK    5  A    between atoms: CB_12  and  CG_13 
REMARK    6  A    between atoms: N_18  and  CA_19 
REMARK    7  A    between atoms: CA_19  and  C_20 
REMARK    8  A    between atoms: CA_19  and  CB_22 
REMARK       I    between atoms: C_20  and  N_26 
REMARK    9  A    between atoms: CB_22  and  CG_23 
REMARK   10  A    between atoms: CG_23  and  CD1_24 
REMARK   11  A    between atoms: CG_23  and  CD2_25 
REMARK   12  A    between atoms: N_26  and  CA_27 
REMARK   13  A    between atoms: CA_27  and  C_28 
REMARK   14  A    between atoms: CA_27  and  CB_30 
REMARK       I    between atoms: C_28  and  N_32 
REMARK   15  A    between atoms: CB_30  and  OG_31 
REMARK   16  A    between atoms: N_32  and  C1_33 
REMARK   17  A    between atoms: C1_33  and  C2_34 
REMARK   18  A    between atoms: C1_33  and  C9_41 
REMARK   19  A    between atoms: C2_34  and  C3_35 
REMARK   20  A    between atoms: C9_41  and  N2_42 
REMARK   21  A    between atoms: N2_42  and  C10_43 
REMARK   22  A    between atoms: C10_43  and  C11_44 
REMARK   23  A    between atoms: C10_43  and  C_48 
REMARK   24  A    between atoms: C11_44  and  C12_45 
REMARK   25  A    between atoms: C12_45  and  SD_46 
REMARK   26  A    between atoms: SD_46  and  C13_47 
REMARK       I    between atoms: C_48  and  N_50 
REMARK   27  A    between atoms: N_50  and  CA_51 
REMARK   28  A    between atoms: CA_51  and  C_52 
REMARK   29  A    between atoms: CA_51  and  CB_54 
REMARK       I    between atoms: C_52  and  N_55 
REMARK   30  A    between atoms: N_55  and  CA_56 
REMARK   31  A    between atoms: CA_56  and  C_57 
REMARK   32  A    between atoms: CA_56  and  CB_59 
REMARK   33  A    between atoms: CB_59  and  CG_60 
ROOT
ATOM      1  C   PRO d           1.107  29.409  18.159  0.00  0.00     0.242 C 
ATOM      2  O   PRO d           1.488  30.491  17.664  0.00  0.00    -0.271 OA
ATOM      3  N   PRO d           1.957  28.607  18.807  0.00  0.00    -0.353 N 
ATOM      4  H33 PRO d           1.640  27.708  19.109  0.00  0.00     0.163 HD
ENDROOT
BRANCH   3   5
ATOM      5  C1  PRO d           3.333  29.000  19.086  0.00  0.00     0.039 C 
ATOM      6  H34 PRO d           3.350  30.089  19.238  0.00  0.00     0.075 H 
BRANCH   5   7
ATOM      7  C2  PRO d           3.820  28.318  20.343  0.00  0.00    -0.021 C 
ATOM      8  H35 PRO d           4.350  27.404  20.034  0.00  0.00     0.043 H 
ATOM      9  H36 PRO d           2.932  28.045  20.931  0.00  0.00     0.043 H 
BRANCH   7  10
ATOM     10  C3  PRO d           4.755  29.094  21.268  0.00  0.00    -0.056 A 
ATOM     11  C4  PRO d           6.036  28.573  21.487  0.00  0.00    -0.077 A 
ATOM     12  C6  PRO d           6.932  29.256  22.306  0.00  0.00    -0.082 A 
ATOM     13  H37 PRO d           6.329  27.639  21.020  0.00  0.00     0.084 H 
ATOM     14  C8  PRO d           6.560  30.453  22.915  0.00  0.00    -0.083 A 
ATOM     15  H39 PRO d           7.925  28.854  22.471  0.00  0.00     0.083 H 
ATOM     16  C7  PRO d           5.284  30.965  22.705  0.00  0.00    -0.082 A 
ATOM     17  H41 PRO d           7.262  30.982  23.550  0.00  0.00     0.083 H 
ATOM     18  C5  PRO d           4.383  30.297  21.883  0.00  0.00    -0.077 A 
ATOM     19  H40 PRO d           4.990  31.892  23.185  0.00  0.00     0.083 H 
ATOM     20  H38 PRO d           3.393  30.707  21.718  0.00  0.00     0.084 H 
ENDBRANCH   7  10
ENDBRANCH   5   7
BRANCH   5  21
ATOM     21  C9  PRO d           4.307  28.654  17.961  0.00  0.00     0.101 C 
ATOM     22  H42 PRO d           3.888  27.822  17.376  0.00  0.00     0.079 H 
ATOM     23  H43 PRO d           5.263  28.342  18.407  0.00  0.00     0.079 H 
BRANCH  21  24
ATOM     24  N2  PRO d           4.551  29.765  17.075  0.00  0.00    -0.060 N 
ATOM     25  H44 PRO d           3.675  30.015  16.644  0.00  0.00     0.278 HD
ATOM     26  H45 PRO d           5.200  29.460  16.367  0.00  0.00     0.278 HD
BRANCH  24  27
ATOM     27  C10 PRO d           5.103  30.970  17.706  0.00  0.00     0.178 C 
ATOM     28  H46 PRO d           4.452  31.244  18.549  0.00  0.00     0.099 H 
BRANCH  27  29
ATOM     29  C11 PRO d           6.512  30.644  18.253  0.00  0.00    -0.022 C 
ATOM     30  H47 PRO d           7.200  30.643  17.393  0.00  0.00     0.037 H 
ATOM     31  H48 PRO d           6.465  29.633  18.685  0.00  0.00     0.037 H 
BRANCH  29  32
ATOM     32  C12 PRO d           7.125  31.563  19.321  0.00  0.00    -0.021 C 
ATOM     33  H49 PRO d           6.499  31.499  20.224  0.00  0.00     0.049 H 
ATOM     34  H50 PRO d           7.106  32.592  18.934  0.00  0.00     0.049 H 
BRANCH  32  35
ATOM     35  SD  PRO d           8.826  31.176  19.793  0.00  0.00    -0.173 SA
BRANCH  35  36
ATOM     36  C13 PRO d           8.990  29.621  18.974  0.00  0.00    -0.035 C 
ATOM     37  H51 PRO d           9.887  29.105  19.346  0.00  0.00     0.041 H 
ATOM     38  H52 PRO d           9.083  29.786  17.891  0.00  0.00     0.041 H 
ATOM     39  H53 PRO d           8.102  29.005  19.176  0.00  0.00     0.041 H 
ENDBRANCH  35  36
ENDBRANCH  32  35
ENDBRANCH  29  32
ENDBRANCH  27  29
BRANCH  27  40
ATOM     40  C   PRO d           5.172  32.190  16.742  0.00  0.00     0.249 C 
ATOM     41  O   PRO d           5.809  33.201  17.079  0.00  0.00    -0.271 OA
ATOM     42  N   PRO d           4.636  32.110  15.525  0.00  0.00    -0.346 N 
ATOM     43  H54 PRO d           4.280  31.237  15.191  0.00  0.00     0.163 HD
BRANCH  42  44
ATOM     44  CA  PRO d           4.569  33.296  14.682  0.00  0.00     0.086 C 
ATOM     45  H55 PRO d           4.976  34.199  15.161  0.00  0.00     0.086 H 
BRANCH  44  46
ATOM     46  C   PRO d           3.048  33.315  14.535  0.00  0.00     0.240 C 
ATOM     47  O   PRO d           2.308  32.959  15.464  0.00  0.00    -0.271 OA
ATOM     48  N   PRO d           2.639  33.923  13.425  0.00  0.00    -0.344 N 
ATOM     49  H59 PRO d           3.325  34.252  12.777  0.00  0.00     0.163 HD
BRANCH  48  50
ATOM     50  CA  PRO d           1.231  34.127  13.115  0.00  0.00     0.101 C 
ATOM     51  H60 PRO d           0.644  34.088  14.044  0.00  0.00     0.090 H 
BRANCH  50  52
ATOM     52  C   PRO d           0.730  33.032  12.179  0.00  0.00     0.197 C 
ATOM     53  O   PRO d           0.415  33.373  11.032  0.00  0.00    -0.646 OA
ATOM     54  OXT PRO d           0.764  31.870  12.598  0.00  0.00    -0.646 OA
ENDBRANCH  50  52
BRANCH  50  55
ATOM     55  CB  PRO d           1.085  35.538  12.482  0.00  0.00     0.003 C 
ATOM     56  H61 PRO d           1.270  35.431  11.403  0.00  0.00     0.046 H 
ATOM     57  H62 PRO d           1.863  36.176  12.926  0.00  0.00     0.046 H 
BRANCH  55  58
ATOM     58  CG  PRO d          -0.250  36.278  12.640  0.00  0.00     0.030 A 
ATOM     59  ND1 PRO d          -1.399  35.835  13.150  0.00  0.00    -0.353 N 
ATOM     60  CE1 PRO d          -2.300  36.785  13.025  0.00  0.00     0.063 A 
ATOM     61  H63 PRO d          -1.556  34.908  13.570  0.00  0.00     0.166 HD
ATOM     62  NE2 PRO d          -1.739  37.838  12.439  0.00  0.00    -0.254 NA
ATOM     63  H65 PRO d          -3.338  36.719  13.347  0.00  0.00     0.143 H 
ATOM     64  CD2 PRO d          -0.483  37.573  12.191  0.00  0.00     0.025 A 
ATOM     65  H64 PRO d           0.240  38.238  11.722  0.00  0.00     0.117 H 
ENDBRANCH  55  58
ENDBRANCH  50  55
ENDBRANCH  48  50
ENDBRANCH  44  46
BRANCH  44  66
ATOM     66  CB  PRO d           5.242  33.051  13.344  0.00  0.00    -0.049 C 
ATOM     67  H56 PRO d           4.695  32.271  12.795  0.00  0.00     0.030 H 
ATOM     68  H57 PRO d           6.279  32.724  13.509  0.00  0.00     0.030 H 
ATOM     69  H58 PRO d           5.240  33.982  12.757  0.00  0.00     0.030 H 
ENDBRANCH  44  66
ENDBRANCH  42  44
ENDBRANCH  27  40
ENDBRANCH  24  27
ENDBRANCH  21  24
ENDBRANCH   5  21
ENDBRANCH   3   5
BRANCH   1  70
ATOM     70  CA  PRO d          -0.341  28.898  18.046  0.00  0.00     0.109 C 
ATOM     71  H29 PRO d          -0.510  28.523  17.026  0.00  0.00     0.090 H 
BRANCH  70  72
ATOM     72  N   PRO d          -0.573  27.795  18.993  0.00  0.00    -0.344 N 
ATOM     73  C   PRO d          -1.771  27.268  19.272  0.00  0.00     0.241 C 
ATOM     74  O   PRO d          -2.802  27.778  18.803  0.00  0.00    -0.271 OA
ATOM     75  H28 PRO d           0.223  27.411  19.462  0.00  0.00     0.163 HD
BRANCH  73  76
ATOM     76  CA  PRO d          -1.832  26.140  20.304  0.00  0.00     0.089 C 
ATOM     77  H18 PRO d          -2.326  25.289  19.813  0.00  0.00     0.087 H 
BRANCH  76  78
ATOM     78  N   PRO d          -0.508  25.727  20.746  0.00  0.00    -0.346 N 
ATOM     79  C   PRO d          -0.013  24.560  20.342  0.00  0.00     0.241 C 
ATOM     80  O   PRO d          -0.631  23.863  19.531  0.00  0.00    -0.271 OA
ATOM     81  H17 PRO d           0.027  26.318  21.350  0.00  0.00     0.163 HD
BRANCH  79  82
ATOM     82  CA  PRO d           1.299  23.994  20.853  0.00  0.00     0.094 C 
ATOM     83  H11 PRO d           2.091  24.065  20.094  0.00  0.00     0.088 H 
BRANCH  82  84
ATOM     84  N   PRO d           1.659  24.783  22.042  0.00  0.00    -0.346 N 
ATOM     85  C   PRO d           2.911  25.129  22.421  0.00  0.00     0.249 C 
ATOM     86  O   PRO d           3.923  24.879  21.741  0.00  0.00    -0.271 OA
ATOM     87  H10 PRO d           0.907  25.094  22.624  0.00  0.00     0.163 HD
BRANCH  85  88
ATOM     88  CA  PRO d           3.129  25.880  23.743  0.00  0.00     0.178 C 
ATOM     89  N   PRO d           4.569  25.884  23.974  0.00  0.00    -0.062 N 
ATOM     90  CD  PRO d           4.929  27.184  24.538  0.00  0.00     0.083 C 
ATOM     91  H1  PRO d           5.056  25.741  23.103  0.00  0.00     0.278 HD
ATOM     92  H2  PRO d           4.814  25.151  24.621  0.00  0.00     0.278 HD
ATOM     93  CG  PRO d           3.613  27.926  24.796  0.00  0.00    -0.040 C 
ATOM     94  H8  PRO d           5.550  27.749  23.827  0.00  0.00     0.075 H 
ATOM     95  H9  PRO d           5.480  27.051  25.480  0.00  0.00     0.075 H 
ATOM     96  CB  PRO d           2.718  27.347  23.704  0.00  0.00    -0.028 C 
ATOM     97  H6  PRO d           3.218  27.705  25.799  0.00  0.00     0.035 H 
ATOM     98  H7  PRO d           3.734  29.013  24.681  0.00  0.00     0.035 H 
ATOM     99  H4  PRO d           1.652  27.475  23.945  0.00  0.00     0.036 H 
ATOM    100  H5  PRO d           2.929  27.802  22.725  0.00  0.00     0.036 H 
ATOM    101  H3  PRO d           2.594  25.366  24.553  0.00  0.00     0.099 H 
ENDBRANCH  85  88
ENDBRANCH  82  84
BRANCH  82 102
ATOM    102  CB  PRO d           1.025  22.538  21.196  0.00  0.00     0.002 C 
ATOM    103  H12 PRO d           1.967  21.976  21.126  0.00  0.00     0.046 H 
ATOM    104  H13 PRO d           0.303  22.135  20.472  0.00  0.00     0.046 H 
BRANCH 102 105
ATOM    105  CG  PRO d           0.465  22.371  22.580  0.00  0.00     0.030 A 
ATOM    106  ND1 PRO d           1.179  22.141  23.670  0.00  0.00    -0.353 N 
ATOM    107  CE1 PRO d           0.314  22.000  24.632  0.00  0.00     0.063 A 
ATOM    108  H14 PRO d           2.205  22.085  23.743  0.00  0.00     0.166 HD
ATOM    109  NE2 PRO d          -0.912  22.147  24.173  0.00  0.00    -0.254 NA
ATOM    110  H16 PRO d           0.568  21.791  25.670  0.00  0.00     0.143 H 
ATOM    111  CD2 PRO d          -0.875  22.383  22.896  0.00  0.00     0.025 A 
ATOM    112  H15 PRO d          -1.716  22.552  22.225  0.00  0.00     0.117 H 
ENDBRANCH 102 105
ENDBRANCH  82 102
ENDBRANCH  79  82
ENDBRANCH  76  78
BRANCH  76 113
ATOM    113  CB  PRO d          -2.605  26.456  21.623  0.00  0.00    -0.035 C 
ATOM    114  H19 PRO d          -2.855  25.495  22.098  0.00  0.00     0.037 H 
ATOM    115  H20 PRO d          -3.531  26.981  21.346  0.00  0.00     0.037 H 
BRANCH 113 116
ATOM    116  CG  PRO d          -1.860  27.344  22.707  0.00  0.00    -0.059 C 
ATOM    117  H21 PRO d          -0.878  27.644  22.314  0.00  0.00     0.038 H 
BRANCH 116 118
ATOM    118  CD1 PRO d          -2.680  28.563  23.118  0.00  0.00    -0.073 C 
ATOM    119  H22 PRO d          -2.602  28.709  24.205  0.00  0.00     0.028 H 
ATOM    120  H23 PRO d          -3.733  28.406  22.844  0.00  0.00     0.028 H 
ATOM    121  H24 PRO d          -2.296  29.455  22.600  0.00  0.00     0.028 H 
ENDBRANCH 116 118
BRANCH 116 122
ATOM    122  CD2 PRO d          -1.720  26.605  24.028  0.00  0.00    -0.073 C 
ATOM    123  H25 PRO d          -0.966  25.810  23.926  0.00  0.00     0.028 H 
ATOM    124  H26 PRO d          -2.688  26.160  24.303  0.00  0.00     0.028 H 
ATOM    125  H27 PRO d          -1.405  27.310  24.811  0.00  0.00     0.028 H 
ENDBRANCH 116 122
ENDBRANCH 113 116
ENDBRANCH  76 113
ENDBRANCH  73  76
ENDBRANCH  70  72
BRANCH  70 126
ATOM    126  CB  PRO d          -1.315  30.089  18.314  0.00  0.00     0.044 C 
ATOM    127  H30 PRO d          -2.321  29.777  17.995  0.00  0.00     0.077 H 
ATOM    128  H31 PRO d          -0.983  30.938  17.699  0.00  0.00     0.077 H 
BRANCH 126 129
ATOM    129  OG  PRO d          -1.410  30.543  19.669  0.00  0.00    -0.398 OA
ATOM    130  H32 PRO d          -2.230  30.246  20.045  0.00  0.00     0.209 HD
ENDBRANCH 126 129
ENDBRANCH  70 126
ENDBRANCH   1  70
TORSDOF 33
ENDMDL
MODEL 9
REMARK VINA RESULT:      -5.8      2.453      5.786
REMARK WARNING: 32 MAX_TORS EXCEEDED!!!
REMARK  33 active torsions:
REMARK  status: ('A' for Active; 'I' for Inactive)
REMARK    1  A    between atoms: CA_2  and  C_3 
REMARK       I    between atoms: C_3  and  N_8 
REMARK    2  A    between atoms: N_8  and  CA_9 
REMARK    3  A    between atoms: CA_9  and  C_10 
REMARK    4  A    between atoms: CA_9  and  CB_12 
REMARK       I    between atoms: C_10  and  N_18 
REMARK    5  A    between atoms: CB_12  and  CG_13 
REMARK    6  A    between atoms: N_18  and  CA_19 
REMARK    7  A    between atoms: CA_19  and  C_20 
REMARK    8  A    between atoms: CA_19  and  CB_22 
REMARK       I    between atoms: C_20  and  N_26 
REMARK    9  A    between atoms: CB_22  and  CG_23 
REMARK   10  A    between atoms: CG_23  and  CD1_24 
REMARK   11  A    between atoms: CG_23  and  CD2_25 
REMARK   12  A    between atoms: N_26  and  CA_27 
REMARK   13  A    between atoms: CA_27  and  C_28 
REMARK   14  A    between atoms: CA_27  and  CB_30 
REMARK       I    between atoms: C_28  and  N_32 
REMARK   15  A    between atoms: CB_30  and  OG_31 
REMARK   16  A    between atoms: N_32  and  C1_33 
REMARK   17  A    between atoms: C1_33  and  C2_34 
REMARK   18  A    between atoms: C1_33  and  C9_41 
REMARK   19  A    between atoms: C2_34  and  C3_35 
REMARK   20  A    between atoms: C9_41  and  N2_42 
REMARK   21  A    between atoms: N2_42  and  C10_43 
REMARK   22  A    between atoms: C10_43  and  C11_44 
REMARK   23  A    between atoms: C10_43  and  C_48 
REMARK   24  A    between atoms: C11_44  and  C12_45 
REMARK   25  A    between atoms: C12_45  and  SD_46 
REMARK   26  A    between atoms: SD_46  and  C13_47 
REMARK       I    between atoms: C_48  and  N_50 
REMARK   27  A    between atoms: N_50  and  CA_51 
REMARK   28  A    between atoms: CA_51  and  C_52 
REMARK   29  A    between atoms: CA_51  and  CB_54 
REMARK       I    between atoms: C_52  and  N_55 
REMARK   30  A    between atoms: N_55  and  CA_56 
REMARK   31  A    between atoms: CA_56  and  C_57 
REMARK   32  A    between atoms: CA_56  and  CB_59 
REMARK   33  A    between atoms: CB_59  and  CG_60 
ROOT
ATOM      1  C   PRO d           1.705  27.211  19.121  0.00  0.00     0.242 C 
ATOM      2  O   PRO d           1.808  28.025  20.063  0.00  0.00    -0.271 OA
ATOM      3  N   PRO d           2.504  26.142  19.042  0.00  0.00    -0.353 N 
ATOM      4  H33 PRO d           2.457  25.562  18.229  0.00  0.00     0.163 HD
ENDROOT
BRANCH   3   5
ATOM      5  C1  PRO d           3.442  25.795  20.103  0.00  0.00     0.039 C 
ATOM      6  H34 PRO d           3.264  26.476  20.948  0.00  0.00     0.075 H 
BRANCH   5   7
ATOM      7  C2  PRO d           3.208  24.373  20.555  0.00  0.00    -0.021 C 
ATOM      8  H35 PRO d           4.033  24.105  21.231  0.00  0.00     0.043 H 
ATOM      9  H36 PRO d           3.246  23.736  19.659  0.00  0.00     0.043 H 
BRANCH   7  10
ATOM     10  C3  PRO d           1.904  24.053  21.283  0.00  0.00    -0.056 A 
ATOM     11  C4  PRO d           1.311  22.808  21.043  0.00  0.00    -0.077 A 
ATOM     12  C6  PRO d           0.132  22.463  21.700  0.00  0.00    -0.082 A 
ATOM     13  H37 PRO d           1.768  22.114  20.347  0.00  0.00     0.084 H 
ATOM     14  C8  PRO d          -0.466  23.352  22.591  0.00  0.00    -0.083 A 
ATOM     15  H39 PRO d          -0.324  21.497  21.517  0.00  0.00     0.083 H 
ATOM     16  C7  PRO d           0.119  24.593  22.821  0.00  0.00    -0.082 A 
ATOM     17  H41 PRO d          -1.382  23.078  23.101  0.00  0.00     0.083 H 
ATOM     18  C5  PRO d           1.300  24.946  22.178  0.00  0.00    -0.077 A 
ATOM     19  H40 PRO d          -0.350  25.289  23.508  0.00  0.00     0.083 H 
ATOM     20  H38 PRO d           1.753  25.912  22.369  0.00  0.00     0.084 H 
ENDBRANCH   7  10
ENDBRANCH   5   7
BRANCH   5  21
ATOM     21  C9  PRO d           4.907  25.916  19.685  0.00  0.00     0.101 C 
ATOM     22  H42 PRO d           4.956  25.990  18.589  0.00  0.00     0.079 H 
ATOM     23  H43 PRO d           5.442  25.014  20.016  0.00  0.00     0.079 H 
BRANCH  21  24
ATOM     24  N2  PRO d           5.553  27.072  20.255  0.00  0.00    -0.060 N 
ATOM     25  H44 PRO d           4.837  27.670  20.637  0.00  0.00     0.278 HD
ATOM     26  H45 PRO d           6.034  27.556  19.513  0.00  0.00     0.278 HD
BRANCH  24  27
ATOM     27  C10 PRO d           6.526  26.796  21.318  0.00  0.00     0.178 C 
ATOM     28  H46 PRO d           7.106  25.907  21.028  0.00  0.00     0.099 H 
BRANCH  27  29
ATOM     29  C11 PRO d           7.490  27.999  21.436  0.00  0.00    -0.022 C 
ATOM     30  H47 PRO d           8.386  27.645  21.966  0.00  0.00     0.037 H 
ATOM     31  H48 PRO d           6.981  28.762  22.043  0.00  0.00     0.037 H 
BRANCH  29  32
ATOM     32  C12 PRO d           7.970  28.694  20.151  0.00  0.00    -0.021 C 
ATOM     33  H49 PRO d           7.500  28.186  19.295  0.00  0.00     0.049 H 
ATOM     34  H50 PRO d           9.062  28.578  20.091  0.00  0.00     0.049 H 
BRANCH  32  35
ATOM     35  SD  PRO d           7.588  30.456  20.034  0.00  0.00    -0.173 SA
BRANCH  35  36
ATOM     36  C13 PRO d           6.259  30.526  21.192  0.00  0.00    -0.035 C 
ATOM     37  H51 PRO d           6.429  31.354  21.895  0.00  0.00     0.041 H 
ATOM     38  H52 PRO d           6.207  29.577  21.747  0.00  0.00     0.041 H 
ATOM     39  H53 PRO d           5.313  30.688  20.656  0.00  0.00     0.041 H 
ENDBRANCH  35  36
ENDBRANCH  32  35
ENDBRANCH  29  32
ENDBRANCH  27  29
BRANCH  27  40
ATOM     40  C   PRO d           5.863  26.504  22.695  0.00  0.00     0.249 C 
ATOM     41  O   PRO d           6.484  25.847  23.547  0.00  0.00    -0.271 OA
ATOM     42  N   PRO d           4.680  27.039  22.994  0.00  0.00    -0.346 N 
ATOM     43  H54 PRO d           4.264  27.709  22.380  0.00  0.00     0.163 HD
BRANCH  42  44
ATOM     44  CA  PRO d           3.994  26.648  24.218  0.00  0.00     0.086 C 
ATOM     45  H55 PRO d           3.472  25.683  24.138  0.00  0.00     0.086 H 
BRANCH  44  46
ATOM     46  C   PRO d           3.052  27.849  24.277  0.00  0.00     0.240 C 
ATOM     47  O   PRO d           2.515  28.192  25.340  0.00  0.00    -0.271 OA
ATOM     48  N   PRO d           3.044  28.562  23.154  0.00  0.00    -0.344 N 
ATOM     49  H59 PRO d           3.584  28.240  22.378  0.00  0.00     0.163 HD
BRANCH  48  50
ATOM     50  CA  PRO d           2.278  29.792  23.011  0.00  0.00     0.101 C 
ATOM     51  H60 PRO d           2.115  29.997  21.942  0.00  0.00     0.090 H 
BRANCH  50  52
ATOM     52  C   PRO d           3.041  30.965  23.618  0.00  0.00     0.197 C 
ATOM     53  O   PRO d           2.407  32.013  23.803  0.00  0.00    -0.646 OA
ATOM     54  OXT PRO d           4.207  30.761  23.970  0.00  0.00    -0.646 OA
ENDBRANCH  50  52
BRANCH  50  55
ATOM     55  CB  PRO d           0.903  29.578  23.701  0.00  0.00     0.003 C 
ATOM     56  H61 PRO d           0.486  30.575  23.908  0.00  0.00     0.046 H 
ATOM     57  H62 PRO d           1.094  29.056  24.650  0.00  0.00     0.046 H 
BRANCH  55  58
ATOM     58  CG  PRO d          -0.176  28.782  22.956  0.00  0.00     0.030 A 
ATOM     59  ND1 PRO d          -0.433  28.738  21.648  0.00  0.00    -0.353 N 
ATOM     60  CE1 PRO d          -1.490  27.979  21.461  0.00  0.00     0.063 A 
ATOM     61  H63 PRO d           0.104  29.217  20.911  0.00  0.00     0.166 HD
ATOM     62  NE2 PRO d          -1.915  27.531  22.637  0.00  0.00    -0.254 NA
ATOM     63  H65 PRO d          -1.943  27.753  20.496  0.00  0.00     0.143 H 
ATOM     64  CD2 PRO d          -1.137  27.995  23.580  0.00  0.00     0.025 A 
ATOM     65  H64 PRO d          -1.225  27.802  24.648  0.00  0.00     0.117 H 
ENDBRANCH  55  58
ENDBRANCH  50  55
ENDBRANCH  48  50
ENDBRANCH  44  46
BRANCH  44  66
ATOM     66  CB  PRO d           4.947  26.644  25.399  0.00  0.00    -0.049 C 
ATOM     67  H56 PRO d           5.734  27.395  25.238  0.00  0.00     0.030 H 
ATOM     68  H57 PRO d           5.405  25.649  25.498  0.00  0.00     0.030 H 
ATOM     69  H58 PRO d           4.392  26.885  26.318  0.00  0.00     0.030 H 
ENDBRANCH  44  66
ENDBRANCH  42  44
ENDBRANCH  27  40
ENDBRANCH  24  27
ENDBRANCH  21  24
ENDBRANCH   5  21
ENDBRANCH   3   5
BRANCH   1  70
ATOM     70  CA  PRO d           0.690  27.374  17.976  0.00  0.00     0.109 C 
ATOM     71  H29 PRO d          -0.323  27.201  18.367  0.00  0.00     0.090 H 
BRANCH  70  72
ATOM     72  N   PRO d           0.751  28.739  17.426  0.00  0.00    -0.344 N 
ATOM     73  C   PRO d           1.728  29.200  16.636  0.00  0.00     0.241 C 
ATOM     74  O   PRO d           2.727  28.500  16.406  0.00  0.00    -0.271 OA
ATOM     75  H28 PRO d           0.008  29.366  17.659  0.00  0.00     0.163 HD
BRANCH  73  76
ATOM     76  CA  PRO d           1.645  30.657  16.175  0.00  0.00     0.089 C 
ATOM     77  H18 PRO d           1.383  31.254  17.060  0.00  0.00     0.087 H 
BRANCH  76  78
ATOM     78  N   PRO d           2.910  31.136  15.637  0.00  0.00    -0.346 N 
ATOM     79  C   PRO d           3.351  32.346  15.972  0.00  0.00     0.241 C 
ATOM     80  O   PRO d           2.739  33.032  16.796  0.00  0.00    -0.271 OA
ATOM     81  H17 PRO d           3.445  30.558  15.021  0.00  0.00     0.163 HD
BRANCH  79  82
ATOM     82  CA  PRO d           4.590  32.975  15.361  0.00  0.00     0.094 C 
ATOM     83  H11 PRO d           5.148  32.252  14.747  0.00  0.00     0.088 H 
BRANCH  82  84
ATOM     84  N   PRO d           4.123  34.096  14.531  0.00  0.00    -0.346 N 
ATOM     85  C   PRO d           4.380  34.276  13.215  0.00  0.00     0.249 C 
ATOM     86  O   PRO d           4.991  33.445  12.519  0.00  0.00    -0.271 OA
ATOM     87  H10 PRO d           3.562  34.790  14.982  0.00  0.00     0.163 HD
BRANCH  85  88
ATOM     88  CA  PRO d           3.895  35.551  12.508  0.00  0.00     0.178 C 
ATOM     89  N   PRO d           2.925  35.118  11.510  0.00  0.00    -0.062 N 
ATOM     90  CD  PRO d           1.844  36.103  11.478  0.00  0.00     0.083 C 
ATOM     91  H1  PRO d           2.558  34.213  11.759  0.00  0.00     0.278 HD
ATOM     92  H2  PRO d           3.366  35.064  10.605  0.00  0.00     0.278 HD
ATOM     93  CG  PRO d           2.277  37.253  12.393  0.00  0.00    -0.040 C 
ATOM     94  H8  PRO d           0.911  35.654  11.847  0.00  0.00     0.075 H 
ATOM     95  H9  PRO d           1.694  36.469  10.452  0.00  0.00     0.075 H 
ATOM     96  CB  PRO d           3.145  36.521  13.413  0.00  0.00    -0.028 C 
ATOM     97  H6  PRO d           2.856  38.008  11.841  0.00  0.00     0.035 H 
ATOM     98  H7  PRO d           1.411  37.732  12.873  0.00  0.00     0.035 H 
ATOM     99  H4  PRO d           3.832  37.210  13.927  0.00  0.00     0.036 H 
ATOM    100  H5  PRO d           2.534  35.990  14.158  0.00  0.00     0.036 H 
ATOM    101  H3  PRO d           4.750  36.063  12.043  0.00  0.00     0.099 H 
ENDBRANCH  85  88
ENDBRANCH  82  84
BRANCH  82 102
ATOM    102  CB  PRO d           5.443  33.445  16.528  0.00  0.00     0.002 C 
ATOM    103  H12 PRO d           4.990  33.085  17.464  0.00  0.00     0.046 H 
ATOM    104  H13 PRO d           5.464  34.544  16.530  0.00  0.00     0.046 H 
BRANCH 102 105
ATOM    105  CG  PRO d           6.854  32.936  16.448  0.00  0.00     0.030 A 
ATOM    106  ND1 PRO d           7.409  32.387  15.379  0.00  0.00    -0.353 N 
ATOM    107  CE1 PRO d           8.606  32.033  15.749  0.00  0.00     0.063 A 
ATOM    108  H14 PRO d           6.983  32.266  14.449  0.00  0.00     0.166 HD
ATOM    109  NE2 PRO d           8.812  32.355  17.009  0.00  0.00    -0.254 NA
ATOM    110  H16 PRO d           9.334  31.539  15.107  0.00  0.00     0.143 H 
ATOM    111  CD2 PRO d           7.750  32.925  17.494  0.00  0.00     0.025 A 
ATOM    112  H15 PRO d           7.601  33.308  18.503  0.00  0.00     0.117 H 
ENDBRANCH 102 105
ENDBRANCH  82 102
ENDBRANCH  79  82
ENDBRANCH  76  78
BRANCH  76 113
ATOM    113  CB  PRO d           0.601  30.965  15.055  0.00  0.00    -0.035 C 
ATOM    114  H19 PRO d           0.146  30.009  14.756  0.00  0.00     0.037 H 
ATOM    115  H20 PRO d           1.149  31.394  14.202  0.00  0.00     0.037 H 
BRANCH 113 116
ATOM    116  CG  PRO d          -0.578  31.964  15.416  0.00  0.00    -0.059 C 
ATOM    117  H21 PRO d          -0.196  32.743  16.092  0.00  0.00     0.038 H 
BRANCH 116 118
ATOM    118  CD1 PRO d          -1.213  32.581  14.174  0.00  0.00    -0.073 C 
ATOM    119  H22 PRO d          -0.532  33.333  13.749  0.00  0.00     0.028 H 
ATOM    120  H23 PRO d          -2.164  33.060  14.448  0.00  0.00     0.028 H 
ATOM    121  H24 PRO d          -1.401  31.793  13.428  0.00  0.00     0.028 H 
ENDBRANCH 116 118
BRANCH 116 122
ATOM    122  CD2 PRO d          -1.757  31.229  16.035  0.00  0.00    -0.073 C 
ATOM    123  H25 PRO d          -2.321  31.919  16.680  0.00  0.00     0.028 H 
ATOM    124  H26 PRO d          -1.387  30.384  16.635  0.00  0.00     0.028 H 
ATOM    125  H27 PRO d          -2.414  30.853  15.237  0.00  0.00     0.028 H 
ENDBRANCH 116 122
ENDBRANCH 113 116
ENDBRANCH  76 113
ENDBRANCH  73  76
ENDBRANCH  70  72
BRANCH  70 126
ATOM    126  CB  PRO d           0.996  26.307  16.878  0.00  0.00     0.044 C 
ATOM    127  H30 PRO d           2.072  26.359  16.650  0.00  0.00     0.077 H 
ATOM    128  H31 PRO d           0.419  26.574  15.981  0.00  0.00     0.077 H 
BRANCH 126 129
ATOM    129  OG  PRO d           0.686  24.948  17.206  0.00  0.00    -0.398 OA
ATOM    130  H32 PRO d           0.197  24.555  16.492  0.00  0.00     0.209 HD
ENDBRANCH 126 129
ENDBRANCH  70 126
ENDBRANCH   1  70
TORSDOF 33
ENDMDL
MODEL 10
REMARK VINA RESULT:      -5.2      3.745      7.398
REMARK WARNING: 32 MAX_TORS EXCEEDED!!!
REMARK  33 active torsions:
REMARK  status: ('A' for Active; 'I' for Inactive)
REMARK    1  A    between atoms: CA_2  and  C_3 
REMARK       I    between atoms: C_3  and  N_8 
REMARK    2  A    between atoms: N_8  and  CA_9 
REMARK    3  A    between atoms: CA_9  and  C_10 
REMARK    4  A    between atoms: CA_9  and  CB_12 
REMARK       I    between atoms: C_10  and  N_18 
REMARK    5  A    between atoms: CB_12  and  CG_13 
REMARK    6  A    between atoms: N_18  and  CA_19 
REMARK    7  A    between atoms: CA_19  and  C_20 
REMARK    8  A    between atoms: CA_19  and  CB_22 
REMARK       I    between atoms: C_20  and  N_26 
REMARK    9  A    between atoms: CB_22  and  CG_23 
REMARK   10  A    between atoms: CG_23  and  CD1_24 
REMARK   11  A    between atoms: CG_23  and  CD2_25 
REMARK   12  A    between atoms: N_26  and  CA_27 
REMARK   13  A    between atoms: CA_27  and  C_28 
REMARK   14  A    between atoms: CA_27  and  CB_30 
REMARK       I    between atoms: C_28  and  N_32 
REMARK   15  A    between atoms: CB_30  and  OG_31 
REMARK   16  A    between atoms: N_32  and  C1_33 
REMARK   17  A    between atoms: C1_33  and  C2_34 
REMARK   18  A    between atoms: C1_33  and  C9_41 
REMARK   19  A    between atoms: C2_34  and  C3_35 
REMARK   20  A    between atoms: C9_41  and  N2_42 
REMARK   21  A    between atoms: N2_42  and  C10_43 
REMARK   22  A    between atoms: C10_43  and  C11_44 
REMARK   23  A    between atoms: C10_43  and  C_48 
REMARK   24  A    between atoms: C11_44  and  C12_45 
REMARK   25  A    between atoms: C12_45  and  SD_46 
REMARK   26  A    between atoms: SD_46  and  C13_47 
REMARK       I    between atoms: C_48  and  N_50 
REMARK   27  A    between atoms: N_50  and  CA_51 
REMARK   28  A    between atoms: CA_51  and  C_52 
REMARK   29  A    between atoms: CA_51  and  CB_54 
REMARK       I    between atoms: C_52  and  N_55 
REMARK   30  A    between atoms: N_55  and  CA_56 
REMARK   31  A    between atoms: CA_56  and  C_57 
REMARK   32  A    between atoms: CA_56  and  CB_59 
REMARK   33  A    between atoms: CB_59  and  CG_60 
ROOT
ATOM      1  C   PRO d          -0.052  32.370  14.478  0.00  0.00     0.242 C 
ATOM      2  O   PRO d          -1.116  32.347  15.132  0.00  0.00    -0.271 OA
ATOM      3  N   PRO d           0.993  31.616  14.832  0.00  0.00    -0.353 N 
ATOM      4  H33 PRO d           1.858  31.727  14.343  0.00  0.00     0.163 HD
ENDROOT
BRANCH   3   5
ATOM      5  C1  PRO d           0.913  30.637  15.908  0.00  0.00     0.039 C 
ATOM      6  H34 PRO d           0.740  31.180  16.849  0.00  0.00     0.075 H 
BRANCH   5   7
ATOM      7  C2  PRO d          -0.241  29.693  15.663  0.00  0.00    -0.021 C 
ATOM      8  H35 PRO d           0.180  28.766  15.245  0.00  0.00     0.043 H 
ATOM      9  H36 PRO d          -0.897  30.167  14.918  0.00  0.00     0.043 H 
BRANCH   7  10
ATOM     10  C3  PRO d          -1.115  29.299  16.851  0.00  0.00    -0.056 A 
ATOM     11  C4  PRO d          -2.493  29.519  16.749  0.00  0.00    -0.077 A 
ATOM     12  C6  PRO d          -3.334  29.157  17.799  0.00  0.00    -0.082 A 
ATOM     13  H37 PRO d          -2.906  29.971  15.854  0.00  0.00     0.084 H 
ATOM     14  C8  PRO d          -2.811  28.582  18.956  0.00  0.00    -0.083 A 
ATOM     15  H39 PRO d          -4.402  29.324  17.717  0.00  0.00     0.083 H 
ATOM     16  C7  PRO d          -1.440  28.373  19.061  0.00  0.00    -0.082 A 
ATOM     17  H41 PRO d          -3.469  28.300  19.769  0.00  0.00     0.083 H 
ATOM     18  C5  PRO d          -0.591  28.722  18.016  0.00  0.00    -0.077 A 
ATOM     19  H40 PRO d          -1.030  27.933  19.964  0.00  0.00     0.083 H 
ATOM     20  H38 PRO d           0.475  28.549  18.104  0.00  0.00     0.084 H 
ENDBRANCH   7  10
ENDBRANCH   5   7
BRANCH   5  21
ATOM     21  C9  PRO d           2.179  29.795  16.064  0.00  0.00     0.101 C 
ATOM     22  H42 PRO d           2.860  30.028  15.232  0.00  0.00     0.079 H 
ATOM     23  H43 PRO d           1.901  28.732  16.023  0.00  0.00     0.079 H 
BRANCH  21  24
ATOM     24  N2  PRO d           2.864  30.046  17.306  0.00  0.00    -0.060 N 
ATOM     25  H44 PRO d           2.178  30.047  18.044  0.00  0.00     0.278 HD
ATOM     26  H45 PRO d           3.294  30.956  17.245  0.00  0.00     0.278 HD
BRANCH  24  27
ATOM     27  C10 PRO d           3.908  29.078  17.663  0.00  0.00     0.178 C 
ATOM     28  H46 PRO d           4.391  28.739  16.734  0.00  0.00     0.099 H 
BRANCH  27  29
ATOM     29  C11 PRO d           4.965  29.786  18.542  0.00  0.00    -0.022 C 
ATOM     30  H47 PRO d           4.767  29.493  19.584  0.00  0.00     0.037 H 
ATOM     31  H48 PRO d           4.806  30.868  18.429  0.00  0.00     0.037 H 
BRANCH  29  32
ATOM     32  C12 PRO d           6.454  29.518  18.273  0.00  0.00    -0.021 C 
ATOM     33  H49 PRO d           6.541  29.050  17.281  0.00  0.00     0.049 H 
ATOM     34  H50 PRO d           6.817  28.819  19.041  0.00  0.00     0.049 H 
BRANCH  32  35
ATOM     35  SD  PRO d           7.520  30.977  18.297  0.00  0.00    -0.173 SA
BRANCH  35  36
ATOM     36  C13 PRO d           8.936  30.268  19.077  0.00  0.00    -0.035 C 
ATOM     37  H51 PRO d           9.393  29.529  18.404  0.00  0.00     0.041 H 
ATOM     38  H52 PRO d           8.631  29.774  20.011  0.00  0.00     0.041 H 
ATOM     39  H53 PRO d           9.665  31.060  19.302  0.00  0.00     0.041 H 
ENDBRANCH  35  36
ENDBRANCH  32  35
ENDBRANCH  29  32
ENDBRANCH  27  29
BRANCH  27  40
ATOM     40  C   PRO d           3.355  27.822  18.396  0.00  0.00     0.249 C 
ATOM     41  O   PRO d           2.714  26.972  17.757  0.00  0.00    -0.271 OA
ATOM     42  N   PRO d           3.652  27.612  19.678  0.00  0.00    -0.346 N 
ATOM     43  H54 PRO d           4.312  28.203  20.142  0.00  0.00     0.163 HD
BRANCH  42  44
ATOM     44  CA  PRO d           3.015  26.521  20.402  0.00  0.00     0.086 C 
ATOM     45  H55 PRO d           2.011  26.273  20.028  0.00  0.00     0.086 H 
BRANCH  44  46
ATOM     46  C   PRO d           3.005  27.205  21.768  0.00  0.00     0.240 C 
ATOM     47  O   PRO d           2.029  27.111  22.527  0.00  0.00    -0.271 OA
ATOM     48  N   PRO d           4.188  27.711  22.107  0.00  0.00    -0.344 N 
ATOM     49  H59 PRO d           4.939  27.657  21.450  0.00  0.00     0.163 HD
BRANCH  48  50
ATOM     50  CA  PRO d           4.432  28.340  23.397  0.00  0.00     0.101 C 
ATOM     51  H60 PRO d           3.556  28.193  24.046  0.00  0.00     0.090 H 
BRANCH  50  52
ATOM     52  C   PRO d           4.658  29.838  23.222  0.00  0.00     0.197 C 
ATOM     53  O   PRO d           4.311  30.573  24.156  0.00  0.00    -0.646 OA
ATOM     54  OXT PRO d           5.257  30.205  22.206  0.00  0.00    -0.646 OA
ENDBRANCH  50  52
BRANCH  50  55
ATOM     55  CB  PRO d           5.662  27.642  24.041  0.00  0.00     0.003 C 
ATOM     56  H61 PRO d           5.372  26.602  24.250  0.00  0.00     0.046 H 
ATOM     57  H62 PRO d           5.872  28.162  24.987  0.00  0.00     0.046 H 
BRANCH  55  58
ATOM     58  CG  PRO d           6.975  27.595  23.250  0.00  0.00     0.030 A 
ATOM     59  ND1 PRO d           7.172  27.750  21.940  0.00  0.00    -0.353 N 
ATOM     60  CE1 PRO d           8.449  27.563  21.690  0.00  0.00     0.063 A 
ATOM     61  H63 PRO d           6.448  27.976  21.244  0.00  0.00     0.166 HD
ATOM     62  NE2 PRO d           9.078  27.291  22.828  0.00  0.00    -0.254 NA
ATOM     63  H65 PRO d           8.916  27.621  20.707  0.00  0.00     0.143 H 
ATOM     64  CD2 PRO d           8.214  27.305  23.810  0.00  0.00     0.025 A 
ATOM     65  H64 PRO d           8.425  27.124  24.863  0.00  0.00     0.117 H 
ENDBRANCH  55  58
ENDBRANCH  50  55
ENDBRANCH  48  50
ENDBRANCH  44  46
BRANCH  44  66
ATOM     66  CB  PRO d           3.900  25.287  20.417  0.00  0.00    -0.049 C 
ATOM     67  H56 PRO d           4.648  25.382  21.218  0.00  0.00     0.030 H 
ATOM     68  H57 PRO d           4.410  25.191  19.448  0.00  0.00     0.030 H 
ATOM     69  H58 PRO d           3.282  24.395  20.597  0.00  0.00     0.030 H 
ENDBRANCH  44  66
ENDBRANCH  42  44
ENDBRANCH  27  40
ENDBRANCH  24  27
ENDBRANCH  21  24
ENDBRANCH   5  21
ENDBRANCH   3   5
BRANCH   1  70
ATOM     70  CA  PRO d           0.159  33.271  13.248  0.00  0.00     0.109 C 
ATOM     71  H29 PRO d          -0.638  34.029  13.218  0.00  0.00     0.090 H 
BRANCH  70  72
ATOM     72  N   PRO d           1.456  33.961  13.331  0.00  0.00    -0.344 N 
ATOM     73  C   PRO d           2.129  34.450  12.283  0.00  0.00     0.241 C 
ATOM     74  O   PRO d           1.723  34.243  11.128  0.00  0.00    -0.271 OA
ATOM     75  H28 PRO d           1.865  34.073  14.237  0.00  0.00     0.163 HD
BRANCH  73  76
ATOM     76  CA  PRO d           3.480  35.118  12.550  0.00  0.00     0.089 C 
ATOM     77  H18 PRO d           4.215  34.611  11.907  0.00  0.00     0.087 H 
BRANCH  76  78
ATOM     78  N   PRO d           3.466  36.536  12.225  0.00  0.00    -0.346 N 
ATOM     79  C   PRO d           2.474  37.303  12.669  0.00  0.00     0.241 C 
ATOM     80  O   PRO d           1.611  36.841  13.422  0.00  0.00    -0.271 OA
ATOM     81  H17 PRO d           4.198  36.932  11.671  0.00  0.00     0.163 HD
BRANCH  79  82
ATOM     82  CA  PRO d           2.311  38.760  12.273  0.00  0.00     0.094 C 
ATOM     83  H11 PRO d           2.427  38.898  11.188  0.00  0.00     0.088 H 
BRANCH  82  84
ATOM     84  N   PRO d           0.959  39.158  12.697  0.00  0.00    -0.346 N 
ATOM     85  C   PRO d          -0.021  39.634  11.895  0.00  0.00     0.249 C 
ATOM     86  O   PRO d           0.088  39.713  10.658  0.00  0.00    -0.271 OA
ATOM     87  H10 PRO d           0.745  39.068  13.670  0.00  0.00     0.163 HD
BRANCH  85  88
ATOM     88  CA  PRO d          -1.353  40.094  12.506  0.00  0.00     0.178 C 
ATOM     89  N   PRO d          -2.014  40.894  11.482  0.00  0.00    -0.062 N 
ATOM     90  CD  PRO d          -3.445  40.597  11.535  0.00  0.00     0.083 C 
ATOM     91  H1  PRO d          -1.648  40.658  10.573  0.00  0.00     0.278 HD
ATOM     92  H2  PRO d          -1.862  41.874  11.662  0.00  0.00     0.278 HD
ATOM     93  CG  PRO d          -3.657  39.693  12.754  0.00  0.00    -0.040 C 
ATOM     94  H8  PRO d          -3.760  40.078  10.618  0.00  0.00     0.075 H 
ATOM     95  H9  PRO d          -4.023  41.526  11.646  0.00  0.00     0.075 H 
ATOM     96  CB  PRO d          -2.320  38.960  12.826  0.00  0.00    -0.028 C 
ATOM     97  H6  PRO d          -3.841  40.283  13.664  0.00  0.00     0.035 H 
ATOM     98  H7  PRO d          -4.490  38.993  12.596  0.00  0.00     0.035 H 
ATOM     99  H4  PRO d          -2.140  38.545  13.828  0.00  0.00     0.036 H 
ATOM    100  H5  PRO d          -2.260  38.154  12.080  0.00  0.00     0.036 H 
ATOM    101  H3  PRO d          -1.159  40.683  13.413  0.00  0.00     0.099 H 
ENDBRANCH  85  88
ENDBRANCH  82  84
BRANCH  82 102
ATOM    102  CB  PRO d           3.392  39.524  13.021  0.00  0.00     0.002 C 
ATOM    103  H12 PRO d           3.758  38.898  13.848  0.00  0.00     0.046 H 
ATOM    104  H13 PRO d           2.956  40.448  13.425  0.00  0.00     0.046 H 
BRANCH 102 105
ATOM    105  CG  PRO d           4.553  39.884  12.139  0.00  0.00     0.030 A 
ATOM    106  ND1 PRO d           5.698  40.401  12.556  0.00  0.00    -0.353 N 
ATOM    107  CE1 PRO d           6.397  40.618  11.480  0.00  0.00     0.063 A 
ATOM    108  H14 PRO d           5.978  40.591  13.529  0.00  0.00     0.166 HD
ATOM    109  NE2 PRO d           5.725  40.241  10.412  0.00  0.00    -0.254 NA
ATOM    110  H16 PRO d           7.397  41.050  11.465  0.00  0.00     0.143 H 
ATOM    111  CD2 PRO d           4.567  39.773  10.766  0.00  0.00     0.025 A 
ATOM    112  H15 PRO d           3.781  39.380  10.122  0.00  0.00     0.117 H 
ENDBRANCH 102 105
ENDBRANCH  82 102
ENDBRANCH  79  82
ENDBRANCH  76  78
BRANCH  76 113
ATOM    113  CB  PRO d           3.998  35.058  14.021  0.00  0.00    -0.035 C 
ATOM    114  H19 PRO d           3.159  35.332  14.678  0.00  0.00     0.037 H 
ATOM    115  H20 PRO d           4.800  35.804  14.120  0.00  0.00     0.037 H 
BRANCH 113 116
ATOM    116  CG  PRO d           4.572  33.670  14.533  0.00  0.00    -0.059 C 
ATOM    117  H21 PRO d           3.864  33.229  15.249  0.00  0.00     0.038 H 
BRANCH 116 118
ATOM    118  CD1 PRO d           4.861  32.706  13.386  0.00  0.00    -0.073 C 
ATOM    119  H22 PRO d           5.322  33.256  12.552  0.00  0.00     0.028 H 
ATOM    120  H23 PRO d           3.921  32.247  13.047  0.00  0.00     0.028 H 
ATOM    121  H24 PRO d           5.549  31.920  13.732  0.00  0.00     0.028 H 
ENDBRANCH 116 118
BRANCH 116 122
ATOM    122  CD2 PRO d           5.950  33.834  15.154  0.00  0.00    -0.073 C 
ATOM    123  H25 PRO d           5.844  34.072  16.224  0.00  0.00     0.028 H 
ATOM    124  H26 PRO d           6.485  34.652  14.648  0.00  0.00     0.028 H 
ATOM    125  H27 PRO d           6.517  32.899  15.042  0.00  0.00     0.028 H 
ENDBRANCH 116 122
ENDBRANCH 113 116
ENDBRANCH  76 113
ENDBRANCH  73  76
ENDBRANCH  70  72
BRANCH  70 126
ATOM    126  CB  PRO d           0.067  32.391  11.960  0.00  0.00     0.044 C 
ATOM    127  H30 PRO d           0.337  33.025  11.102  0.00  0.00     0.077 H 
ATOM    128  H31 PRO d          -0.976  32.058  11.855  0.00  0.00     0.077 H 
BRANCH 126 129
ATOM    129  OG  PRO d           0.902  31.228  11.922  0.00  0.00    -0.398 OA
ATOM    130  H32 PRO d           1.685  31.385  12.437  0.00  0.00     0.209 HD
ENDBRANCH 126 129
ENDBRANCH  70 126
ENDBRANCH   1  70
TORSDOF 33
ENDMDL
