MODEL 1
REMARK VINA RESULT:     -10.5      0.000      0.000
REMARK  8 active torsions:
REMARK  status: ('A' for Active; 'I' for Inactive)
REMARK    1  A    between atoms: C4_4  and  N17_5 
REMARK    2  A    between atoms: C10_8  and  C18_9 
REMARK    3  A    between atoms: C18_9  and  C19_10 
REMARK    4  A    between atoms: C19_10  and  N20_11 
REMARK    5  A    between atoms: N20_11  and  C21_12 
REMARK    6  A    between atoms: C21_12  and  C22_13 
REMARK    7  A    between atoms: C12_20  and  N14_21 
REMARK    8  A    between atoms: N14_21  and  C15_22 
ROOT
ATOM      1  C2  AFQ d          18.077  17.107  23.052  0.00  0.00     0.272 C 
ATOM      2  O16 AFQ d          19.197  17.415  23.416  0.00  0.00    -0.267 OA
ATOM      3  N3  AFQ d          17.024  16.926  23.893  0.00  0.00    -0.156 N 
ATOM      4  C4  AFQ d          15.839  16.500  23.362  0.00  0.00     0.679 C 
ATOM      5  N5  AFQ d          15.626  16.397  22.099  0.00  0.00    -0.190 N 
ATOM      6  C6  AFQ d          16.555  16.641  21.128  0.00  0.00     0.073 A 
ATOM      7  C10 AFQ d          16.218  16.520  19.759  0.00  0.00     0.004 A 
ATOM      8  C9  AFQ d          17.259  16.815  18.877  0.00  0.00     0.111 A 
ATOM      9  N11 AFQ d          17.351  16.905  17.529  0.00  0.00    -0.062 NA
ATOM     10  C12 AFQ d          18.537  17.202  17.159  0.00  0.00     0.701 A 
ATOM     11  N13 AFQ d          19.341  17.394  18.223  0.00  0.00    -0.188 N 
ATOM     12  C8  AFQ d          18.503  17.167  19.331  0.00  0.00     0.080 A 
ATOM     13  C7  AFQ d          18.884  17.276  20.667  0.00  0.00    -0.037 A 
ATOM     14  C1  AFQ d          17.848  16.974  21.566  0.00  0.00     0.062 A 
ATOM     15  H1  AFQ d          17.113  17.101  24.873  0.00  0.00     0.187 HD
ATOM     16  H4  AFQ d          14.684  16.111  21.796  0.00  0.00     0.184 HD
ATOM     17  H26 AFQ d          20.339  17.648  18.224  0.00  0.00     0.184 HD
ATOM     18  H27 AFQ d          19.880  17.565  20.980  0.00  0.00     0.088 H 
ENDROOT
BRANCH   7  19
ATOM     19  C18 AFQ d          14.934  15.934  19.202  0.00  0.00    -0.014 C 
ATOM     20  H5  AFQ d          14.663  16.503  18.301  0.00  0.00     0.042 H 
ATOM     21  H6  AFQ d          14.147  16.053  19.961  0.00  0.00     0.042 H 
BRANCH  19  22
ATOM     22  C19 AFQ d          15.007  14.416  18.813  0.00  0.00     0.085 C 
ATOM     23  H7  AFQ d          14.986  13.785  19.713  0.00  0.00     0.076 H 
ATOM     24  H8  AFQ d          15.923  14.207  18.241  0.00  0.00     0.076 H 
BRANCH  22  25
ATOM     25  N20 AFQ d          13.800  14.173  17.974  0.00  0.00    -0.074 N 
ATOM     26  H9  AFQ d          13.048  13.908  18.591  0.00  0.00     0.277 HD
ATOM     27  H10 AFQ d          14.009  13.408  17.352  0.00  0.00     0.277 HD
BRANCH  25  28
ATOM     28  C21 AFQ d          13.320  15.318  17.140  0.00  0.00     0.085 C 
ATOM     29  H11 AFQ d          13.671  15.196  16.105  0.00  0.00     0.076 H 
ATOM     30  H12 AFQ d          13.707  16.263  17.549  0.00  0.00     0.076 H 
BRANCH  28  31
ATOM     31  C22 AFQ d          11.762  15.329  17.170  0.00  0.00    -0.031 C 
ATOM     32  C26 AFQ d          11.190  15.727  18.542  0.00  0.00    -0.060 C 
ATOM     33  C25 AFQ d           9.806  15.033  18.596  0.00  0.00    -0.065 C 
ATOM     34  H14 AFQ d          11.080  16.819  18.617  0.00  0.00     0.033 H 
ATOM     35  H15 AFQ d          11.838  15.367  19.354  0.00  0.00     0.033 H 
ATOM     36  C24 AFQ d          10.018  13.672  17.851  0.00  0.00    -0.065 C 
ATOM     37  H16 AFQ d           9.046  15.641  18.086  0.00  0.00     0.033 H 
ATOM     38  H17 AFQ d           9.499  14.861  19.638  0.00  0.00     0.033 H 
ATOM     39  C23 AFQ d          11.195  13.918  16.888  0.00  0.00    -0.060 C 
ATOM     40  H18 AFQ d           9.113  13.393  17.291  0.00  0.00     0.033 H 
ATOM     41  H19 AFQ d          10.266  12.874  18.567  0.00  0.00     0.033 H 
ATOM     42  H20 AFQ d          11.976  13.162  17.054  0.00  0.00     0.033 H 
ATOM     43  H21 AFQ d          10.843  13.859  15.848  0.00  0.00     0.033 H 
ATOM     44  H13 AFQ d          11.406  16.036  16.406  0.00  0.00     0.042 H 
ENDBRANCH  28  31
ENDBRANCH  25  28
ENDBRANCH  22  25
ENDBRANCH  19  22
ENDBRANCH   7  19
BRANCH   4  45
ATOM     45  N17 AFQ d          14.831  16.245  24.237  0.00  0.00    -0.234 N 
ATOM     46  H2  AFQ d          14.262  17.020  24.607  0.00  0.00     0.174 HD
ATOM     47  H3  AFQ d          14.636  15.277  24.530  0.00  0.00     0.174 HD
ENDBRANCH   4  45
BRANCH  10  48
ATOM     48  N14 AFQ d          19.108  17.354  15.962  0.00  0.00    -0.229 N 
ATOM     49  H22 AFQ d          20.079  17.023  15.865  0.00  0.00     0.177 HD
BRANCH  48  50
ATOM     50  C15 AFQ d          18.498  17.939  14.785  0.00  0.00    -0.005 C 
ATOM     51  H23 AFQ d          19.063  18.834  14.485  0.00  0.00     0.057 H 
ATOM     52  H24 AFQ d          17.459  18.221  15.012  0.00  0.00     0.057 H 
ATOM     53  H25 AFQ d          18.508  17.207  13.965  0.00  0.00     0.057 H 
ENDBRANCH  48  50
ENDBRANCH  10  48
TORSDOF 8
ENDMDL
MODEL 2
REMARK VINA RESULT:      -8.8      1.095      1.275
REMARK  8 active torsions:
REMARK  status: ('A' for Active; 'I' for Inactive)
REMARK    1  A    between atoms: C4_4  and  N17_5 
REMARK    2  A    between atoms: C10_8  and  C18_9 
REMARK    3  A    between atoms: C18_9  and  C19_10 
REMARK    4  A    between atoms: C19_10  and  N20_11 
REMARK    5  A    between atoms: N20_11  and  C21_12 
REMARK    6  A    between atoms: C21_12  and  C22_13 
REMARK    7  A    between atoms: C12_20  and  N14_21 
REMARK    8  A    between atoms: N14_21  and  C15_22 
ROOT
ATOM      1  C2  AFQ d          18.336  17.008  21.584  0.00  0.00     0.272 C 
ATOM      2  O16 AFQ d          19.518  17.278  21.700  0.00  0.00    -0.267 OA
ATOM      3  N3  AFQ d          17.488  16.832  22.633  0.00  0.00    -0.156 N 
ATOM      4  C4  AFQ d          16.203  16.450  22.367  0.00  0.00     0.679 C 
ATOM      5  N5  AFQ d          15.715  16.386  21.180  0.00  0.00    -0.190 N 
ATOM      6  C6  AFQ d          16.416  16.632  20.033  0.00  0.00     0.073 A 
ATOM      7  C10 AFQ d          15.784  16.556  18.771  0.00  0.00     0.004 A 
ATOM      8  C9  AFQ d          16.615  16.848  17.687  0.00  0.00     0.111 A 
ATOM      9  N11 AFQ d          16.412  16.971  16.353  0.00  0.00    -0.062 NA
ATOM     10  C12 AFQ d          17.496  17.247  15.738  0.00  0.00     0.701 A 
ATOM     11  N13 AFQ d          18.519  17.391  16.602  0.00  0.00    -0.188 N 
ATOM     12  C8  AFQ d          17.938  17.157  17.863  0.00  0.00     0.080 A 
ATOM     13  C7  AFQ d          18.605  17.220  19.084  0.00  0.00    -0.037 A 
ATOM     14  C1  AFQ d          17.784  16.921  20.183  0.00  0.00     0.062 A 
ATOM     15  H1  AFQ d          17.796  16.979  23.572  0.00  0.00     0.187 HD
ATOM     16  H4  AFQ d          14.722  16.132  21.085  0.00  0.00     0.184 HD
ATOM     17  H26 AFQ d          19.500  17.620  16.390  0.00  0.00     0.184 HD
ATOM     18  H27 AFQ d          19.655  17.476  19.177  0.00  0.00     0.088 H 
ENDROOT
BRANCH   7  19
ATOM     19  C18 AFQ d          14.392  16.017  18.497  0.00  0.00    -0.014 C 
ATOM     20  H5  AFQ d          14.044  16.441  17.544  0.00  0.00     0.042 H 
ATOM     21  H6  AFQ d          13.731  16.352  19.310  0.00  0.00     0.042 H 
BRANCH  19  22
ATOM     22  C19 AFQ d          14.288  14.454  18.401  0.00  0.00     0.085 C 
ATOM     23  H7  AFQ d          13.935  14.031  19.352  0.00  0.00     0.076 H 
ATOM     24  H8  AFQ d          15.264  14.017  18.145  0.00  0.00     0.076 H 
BRANCH  22  25
ATOM     25  N20 AFQ d          13.299  14.199  17.315  0.00  0.00    -0.074 N 
ATOM     26  H9  AFQ d          12.591  13.586  17.686  0.00  0.00     0.277 HD
ATOM     27  H10 AFQ d          13.785  13.736  16.563  0.00  0.00     0.277 HD
BRANCH  25  28
ATOM     28  C21 AFQ d          12.609  15.395  16.741  0.00  0.00     0.085 C 
ATOM     29  H11 AFQ d          12.766  15.427  15.652  0.00  0.00     0.076 H 
ATOM     30  H12 AFQ d          13.013  16.312  17.196  0.00  0.00     0.076 H 
BRANCH  28  31
ATOM     31  C22 AFQ d          11.086  15.280  17.051  0.00  0.00    -0.031 C 
ATOM     32  C26 AFQ d          10.730  15.707  18.486  0.00  0.00    -0.060 C 
ATOM     33  C25 AFQ d           9.447  14.905  18.817  0.00  0.00    -0.065 C 
ATOM     34  H14 AFQ d          10.535  16.789  18.533  0.00  0.00     0.033 H 
ATOM     35  H15 AFQ d          11.541  15.449  19.182  0.00  0.00     0.033 H 
ATOM     36  C24 AFQ d           9.648  13.525  18.103  0.00  0.00    -0.065 C 
ATOM     37  H16 AFQ d           8.556  15.417  18.427  0.00  0.00     0.033 H 
ATOM     38  H17 AFQ d           9.344  14.768  19.904  0.00  0.00     0.033 H 
ATOM     39  C23 AFQ d          10.609  13.812  16.935  0.00  0.00    -0.060 C 
ATOM     40  H18 AFQ d           8.688  13.141  17.728  0.00  0.00     0.033 H 
ATOM     41  H19 AFQ d          10.090  12.793  18.796  0.00  0.00     0.033 H 
ATOM     42  H20 AFQ d          11.474  13.135  16.989  0.00  0.00     0.033 H 
ATOM     43  H21 AFQ d          10.087  13.665  15.979  0.00  0.00     0.033 H 
ATOM     44  H13 AFQ d          10.538  15.909  16.335  0.00  0.00     0.042 H 
ENDBRANCH  28  31
ENDBRANCH  25  28
ENDBRANCH  22  25
ENDBRANCH  19  22
ENDBRANCH   7  19
BRANCH   4  45
ATOM     45  N17 AFQ d          15.405  16.198  23.437  0.00  0.00    -0.234 N 
ATOM     46  H2  AFQ d          14.839  16.954  23.848  0.00  0.00     0.174 HD
ATOM     47  H3  AFQ d          15.365  15.249  23.838  0.00  0.00     0.174 HD
ENDBRANCH   4  45
BRANCH  10  48
ATOM     48  N14 AFQ d          17.794  17.417  14.448  0.00  0.00    -0.229 N 
ATOM     49  H22 AFQ d          18.679  17.004  14.119  0.00  0.00     0.177 HD
BRANCH  48  50
ATOM     50  C15 AFQ d          16.999  18.124  13.465  0.00  0.00    -0.005 C 
ATOM     51  H23 AFQ d          17.323  19.174  13.417  0.00  0.00     0.057 H 
ATOM     52  H24 AFQ d          15.938  18.080  13.753  0.00  0.00     0.057 H 
ATOM     53  H25 AFQ d          17.131  17.654  12.480  0.00  0.00     0.057 H 
ENDBRANCH  48  50
ENDBRANCH  10  48
TORSDOF 8
ENDMDL
MODEL 3
REMARK VINA RESULT:      -8.2      1.564      2.423
REMARK  8 active torsions:
REMARK  status: ('A' for Active; 'I' for Inactive)
REMARK    1  A    between atoms: C4_4  and  N17_5 
REMARK    2  A    between atoms: C10_8  and  C18_9 
REMARK    3  A    between atoms: C18_9  and  C19_10 
REMARK    4  A    between atoms: C19_10  and  N20_11 
REMARK    5  A    between atoms: N20_11  and  C21_12 
REMARK    6  A    between atoms: C21_12  and  C22_13 
REMARK    7  A    between atoms: C12_20  and  N14_21 
REMARK    8  A    between atoms: N14_21  and  C15_22 
ROOT
ATOM      1  C2  AFQ d          18.752  17.117  20.603  0.00  0.00     0.272 C 
ATOM      2  O16 AFQ d          19.934  17.388  20.717  0.00  0.00    -0.267 OA
ATOM      3  N3  AFQ d          17.913  16.908  21.651  0.00  0.00    -0.156 N 
ATOM      4  C4  AFQ d          16.628  16.528  21.384  0.00  0.00     0.679 C 
ATOM      5  N5  AFQ d          16.131  16.498  20.199  0.00  0.00    -0.190 N 
ATOM      6  C6  AFQ d          16.823  16.779  19.055  0.00  0.00     0.073 A 
ATOM      7  C10 AFQ d          16.181  16.737  17.795  0.00  0.00     0.004 A 
ATOM      8  C9  AFQ d          17.003  17.064  16.715  0.00  0.00     0.111 A 
ATOM      9  N11 AFQ d          16.790  17.225  15.387  0.00  0.00    -0.062 NA
ATOM     10  C12 AFQ d          17.869  17.523  14.771  0.00  0.00     0.701 A 
ATOM     11  N13 AFQ d          18.897  17.645  15.633  0.00  0.00    -0.188 N 
ATOM     12  C8  AFQ d          18.327  17.372  16.890  0.00  0.00     0.080 A 
ATOM     13  C7  AFQ d          19.003  17.403  18.108  0.00  0.00    -0.037 A 
ATOM     14  C1  AFQ d          18.190  17.068  19.203  0.00  0.00     0.062 A 
ATOM     15  H1  AFQ d          18.227  17.028  22.593  0.00  0.00     0.187 HD
ATOM     16  H4  AFQ d          15.138  16.242  20.104  0.00  0.00     0.184 HD
ATOM     17  H26 AFQ d          19.876  17.883  15.419  0.00  0.00     0.184 HD
ATOM     18  H27 AFQ d          20.052  17.659  18.200  0.00  0.00     0.088 H 
ENDROOT
BRANCH   7  19
ATOM     19  C18 AFQ d          14.789  16.202  17.516  0.00  0.00    -0.014 C 
ATOM     20  H5  AFQ d          14.697  16.039  16.433  0.00  0.00     0.042 H 
ATOM     21  H6  AFQ d          14.062  16.963  17.835  0.00  0.00     0.042 H 
BRANCH  19  22
ATOM     22  C19 AFQ d          14.433  14.857  18.242  0.00  0.00     0.085 C 
ATOM     23  H7  AFQ d          15.131  14.669  19.071  0.00  0.00     0.076 H 
ATOM     24  H8  AFQ d          14.470  14.015  17.534  0.00  0.00     0.076 H 
BRANCH  22  25
ATOM     25  N20 AFQ d          13.048  15.049  18.756  0.00  0.00    -0.074 N 
ATOM     26  H9  AFQ d          12.736  15.960  18.459  0.00  0.00     0.277 HD
ATOM     27  H10 AFQ d          13.089  15.019  19.762  0.00  0.00     0.277 HD
BRANCH  25  28
ATOM     28  C21 AFQ d          12.024  14.052  18.314  0.00  0.00     0.085 C 
ATOM     29  H11 AFQ d          11.314  13.862  19.133  0.00  0.00     0.076 H 
ATOM     30  H12 AFQ d          12.519  13.111  18.032  0.00  0.00     0.076 H 
BRANCH  28  31
ATOM     31  C22 AFQ d          11.266  14.638  17.086  0.00  0.00    -0.031 C 
ATOM     32  C26 AFQ d          12.053  14.500  15.770  0.00  0.00    -0.060 C 
ATOM     33  C25 AFQ d          11.544  15.672  14.894  0.00  0.00    -0.065 C 
ATOM     34  H14 AFQ d          11.841  13.534  15.289  0.00  0.00     0.033 H 
ATOM     35  H15 AFQ d          13.134  14.591  15.952  0.00  0.00     0.033 H 
ATOM     36  C24 AFQ d          11.297  16.843  15.905  0.00  0.00    -0.065 C 
ATOM     37  H16 AFQ d          10.611  15.398  14.382  0.00  0.00     0.033 H 
ATOM     38  H17 AFQ d          12.302  15.957  14.149  0.00  0.00     0.033 H 
ATOM     39  C23 AFQ d          11.027  16.157  17.258  0.00  0.00    -0.060 C 
ATOM     40  H18 AFQ d          10.428  17.442  15.596  0.00  0.00     0.033 H 
ATOM     41  H19 AFQ d          12.184  17.490  15.971  0.00  0.00     0.033 H 
ATOM     42  H20 AFQ d          11.711  16.557  18.020  0.00  0.00     0.033 H 
ATOM     43  H21 AFQ d           9.987  16.338  17.566  0.00  0.00     0.033 H 
ATOM     44  H13 AFQ d          10.302  14.117  16.992  0.00  0.00     0.042 H 
ENDBRANCH  28  31
ENDBRANCH  25  28
ENDBRANCH  22  25
ENDBRANCH  19  22
ENDBRANCH   7  19
BRANCH   4  45
ATOM     45  N17 AFQ d          15.837  16.242  22.452  0.00  0.00    -0.234 N 
ATOM     46  H2  AFQ d          15.608  15.263  22.675  0.00  0.00     0.174 HD
ATOM     47  H3  AFQ d          15.467  17.005  23.037  0.00  0.00     0.174 HD
ENDBRANCH   4  45
BRANCH  10  48
ATOM     48  N14 AFQ d          18.157  17.731  13.486  0.00  0.00    -0.229 N 
ATOM     49  H22 AFQ d          17.404  17.551  12.806  0.00  0.00     0.177 HD
BRANCH  48  50
ATOM     50  C15 AFQ d          19.424  18.185  12.949  0.00  0.00    -0.005 C 
ATOM     51  H23 AFQ d          19.496  19.278  13.053  0.00  0.00     0.057 H 
ATOM     52  H24 AFQ d          19.491  17.913  11.886  0.00  0.00     0.057 H 
ATOM     53  H25 AFQ d          20.248  17.710  13.502  0.00  0.00     0.057 H 
ENDBRANCH  48  50
ENDBRANCH  10  48
TORSDOF 8
ENDMDL
MODEL 4
REMARK VINA RESULT:      -8.2      2.448      5.144
REMARK  8 active torsions:
REMARK  status: ('A' for Active; 'I' for Inactive)
REMARK    1  A    between atoms: C4_4  and  N17_5 
REMARK    2  A    between atoms: C10_8  and  C18_9 
REMARK    3  A    between atoms: C18_9  and  C19_10 
REMARK    4  A    between atoms: C19_10  and  N20_11 
REMARK    5  A    between atoms: N20_11  and  C21_12 
REMARK    6  A    between atoms: C21_12  and  C22_13 
REMARK    7  A    between atoms: C12_20  and  N14_21 
REMARK    8  A    between atoms: N14_21  and  C15_22 
ROOT
ATOM      1  C2  AFQ d          18.065  17.653  14.761  0.00  0.00     0.272 C 
ATOM      2  O16 AFQ d          19.152  18.121  14.475  0.00  0.00    -0.267 OA
ATOM      3  N3  AFQ d          17.114  17.319  13.848  0.00  0.00    -0.156 N 
ATOM      4  C4  AFQ d          15.904  16.882  14.308  0.00  0.00     0.679 C 
ATOM      5  N5  AFQ d          15.664  16.633  15.546  0.00  0.00    -0.190 N 
ATOM      6  C6  AFQ d          16.553  16.824  16.566  0.00  0.00     0.073 A 
ATOM      7  C10 AFQ d          16.202  16.501  17.898  0.00  0.00     0.004 A 
ATOM      8  C9  AFQ d          17.211  16.730  18.835  0.00  0.00     0.111 A 
ATOM      9  N11 AFQ d          17.331  16.493  20.164  0.00  0.00    -0.062 NA
ATOM     10  C12 AFQ d          18.461  16.889  20.610  0.00  0.00     0.701 A 
ATOM     11  N13 AFQ d          19.228  17.377  19.616  0.00  0.00    -0.188 N 
ATOM     12  C8  AFQ d          18.425  17.249  18.468  0.00  0.00     0.080 A 
ATOM     13  C7  AFQ d          18.803  17.602  17.174  0.00  0.00    -0.037 A 
ATOM     14  C1  AFQ d          17.794  17.384  16.221  0.00  0.00     0.062 A 
ATOM     15  H1  AFQ d          17.295  17.392  12.868  0.00  0.00     0.187 HD
ATOM     16  H4  AFQ d          14.734  16.263  15.787  0.00  0.00     0.184 HD
ATOM     17  H26 AFQ d          20.183  17.757  19.682  0.00  0.00     0.184 HD
ATOM     18  H27 AFQ d          19.779  18.004  16.927  0.00  0.00     0.088 H 
ENDROOT
BRANCH   7  19
ATOM     19  C18 AFQ d          14.817  16.128  18.394  0.00  0.00    -0.014 C 
ATOM     20  H5  AFQ d          14.085  16.466  17.646  0.00  0.00     0.042 H 
ATOM     21  H6  AFQ d          14.642  16.656  19.343  0.00  0.00     0.042 H 
BRANCH  19  22
ATOM     22  C19 AFQ d          14.587  14.596  18.641  0.00  0.00     0.085 C 
ATOM     23  H7  AFQ d          14.378  14.404  19.704  0.00  0.00     0.076 H 
ATOM     24  H8  AFQ d          15.470  14.018  18.331  0.00  0.00     0.076 H 
BRANCH  22  25
ATOM     25  N20 AFQ d          13.408  14.241  17.802  0.00  0.00    -0.074 N 
ATOM     26  H9  AFQ d          12.687  13.900  18.418  0.00  0.00     0.277 HD
ATOM     27  H10 AFQ d          13.690  13.505  17.175  0.00  0.00     0.277 HD
BRANCH  25  28
ATOM     28  C21 AFQ d          12.817  15.339  16.976  0.00  0.00     0.085 C 
ATOM     29  H11 AFQ d          13.055  15.175  15.915  0.00  0.00     0.076 H 
ATOM     30  H12 AFQ d          13.228  16.308  17.298  0.00  0.00     0.076 H 
BRANCH  28  31
ATOM     31  C22 AFQ d          11.272  15.329  17.178  0.00  0.00    -0.031 C 
ATOM     32  C26 AFQ d          10.853  15.594  18.635  0.00  0.00    -0.060 C 
ATOM     33  C25 AFQ d           9.485  14.881  18.777  0.00  0.00    -0.065 C 
ATOM     34  H14 AFQ d          10.750  16.674  18.820  0.00  0.00     0.033 H 
ATOM     35  H15 AFQ d          11.588  15.171  19.335  0.00  0.00     0.033 H 
ATOM     36  C24 AFQ d           9.618  13.595  17.892  0.00  0.00    -0.065 C 
ATOM     37  H16 AFQ d           8.672  15.523  18.409  0.00  0.00     0.033 H 
ATOM     38  H17 AFQ d           9.295  14.612  19.826  0.00  0.00     0.033 H 
ATOM     39  C23 AFQ d          10.680  13.942  16.832  0.00  0.00    -0.060 C 
ATOM     40  H18 AFQ d           8.657  13.357  17.411  0.00  0.00     0.033 H 
ATOM     41  H19 AFQ d           9.945  12.739  18.501  0.00  0.00     0.033 H 
ATOM     42  H20 AFQ d          11.477  13.184  16.843  0.00  0.00     0.033 H 
ATOM     43  H21 AFQ d          10.216  13.972  15.836  0.00  0.00     0.033 H 
ATOM     44  H13 AFQ d          10.832  16.096  16.524  0.00  0.00     0.042 H 
ENDBRANCH  28  31
ENDBRANCH  25  28
ENDBRANCH  22  25
ENDBRANCH  19  22
ENDBRANCH   7  19
BRANCH   4  45
ATOM     45  N17 AFQ d          14.945  16.638  13.376  0.00  0.00    -0.234 N 
ATOM     46  H2  AFQ d          14.922  15.733  12.884  0.00  0.00     0.174 HD
ATOM     47  H3  AFQ d          14.242  17.360  13.160  0.00  0.00     0.174 HD
ENDBRANCH   4  45
BRANCH  10  48
ATOM     48  N14 AFQ d          19.004  16.906  21.828  0.00  0.00    -0.229 N 
ATOM     49  H22 AFQ d          20.031  16.841  21.879  0.00  0.00     0.177 HD
BRANCH  48  50
ATOM     50  C15 AFQ d          18.294  17.007  23.087  0.00  0.00    -0.005 C 
ATOM     51  H23 AFQ d          18.372  16.053  23.629  0.00  0.00     0.057 H 
ATOM     52  H24 AFQ d          17.236  17.234  22.894  0.00  0.00     0.057 H 
ATOM     53  H25 AFQ d          18.736  17.810  23.694  0.00  0.00     0.057 H 
ENDBRANCH  48  50
ENDBRANCH  10  48
TORSDOF 8
ENDMDL
MODEL 5
REMARK VINA RESULT:      -7.5      3.338      7.092
REMARK  8 active torsions:
REMARK  status: ('A' for Active; 'I' for Inactive)
REMARK    1  A    between atoms: C4_4  and  N17_5 
REMARK    2  A    between atoms: C10_8  and  C18_9 
REMARK    3  A    between atoms: C18_9  and  C19_10 
REMARK    4  A    between atoms: C19_10  and  N20_11 
REMARK    5  A    between atoms: N20_11  and  C21_12 
REMARK    6  A    between atoms: C21_12  and  C22_13 
REMARK    7  A    between atoms: C12_20  and  N14_21 
REMARK    8  A    between atoms: N14_21  and  C15_22 
ROOT
ATOM      1  C2  AFQ d          10.101  15.949  15.784  0.00  0.00     0.272 C 
ATOM      2  O16 AFQ d           9.468  16.639  15.005  0.00  0.00    -0.267 OA
ATOM      3  N3  AFQ d           9.566  14.932  16.511  0.00  0.00    -0.156 N 
ATOM      4  C4  AFQ d          10.369  14.291  17.412  0.00  0.00     0.679 C 
ATOM      5  N5  AFQ d          11.633  14.499  17.507  0.00  0.00    -0.190 N 
ATOM      6  C6  AFQ d          12.331  15.417  16.774  0.00  0.00     0.073 A 
ATOM      7  C10 AFQ d          13.728  15.559  16.937  0.00  0.00     0.004 A 
ATOM      8  C9  AFQ d          14.314  16.521  16.112  0.00  0.00     0.111 A 
ATOM      9  N11 AFQ d          15.590  16.915  15.886  0.00  0.00    -0.062 NA
ATOM     10  C12 AFQ d          15.644  17.861  15.029  0.00  0.00     0.701 A 
ATOM     11  N13 AFQ d          14.417  18.155  14.557  0.00  0.00    -0.188 N 
ATOM     12  C8  AFQ d          13.565  17.269  15.242  0.00  0.00     0.080 A 
ATOM     13  C7  AFQ d          12.185  17.178  15.066  0.00  0.00    -0.037 A 
ATOM     14  C1  AFQ d          11.581  16.219  15.896  0.00  0.00     0.062 A 
ATOM     15  H1  AFQ d           8.612  14.661  16.390  0.00  0.00     0.187 HD
ATOM     16  H4  AFQ d          12.160  13.932  18.186  0.00  0.00     0.184 HD
ATOM     17  H26 AFQ d          14.163  18.866  13.856  0.00  0.00     0.184 HD
ATOM     18  H27 AFQ d          11.633  17.787  14.359  0.00  0.00     0.088 H 
ENDROOT
BRANCH   7  19
ATOM     19  C18 AFQ d          14.573  14.918  18.022  0.00  0.00    -0.014 C 
ATOM     20  H5  AFQ d          15.408  14.392  17.538  0.00  0.00     0.042 H 
ATOM     21  H6  AFQ d          13.945  14.192  18.559  0.00  0.00     0.042 H 
BRANCH  19  22
ATOM     22  C19 AFQ d          15.173  15.914  19.076  0.00  0.00     0.085 C 
ATOM     23  H7  AFQ d          14.842  15.647  20.091  0.00  0.00     0.076 H 
ATOM     24  H8  AFQ d          14.867  16.946  18.850  0.00  0.00     0.076 H 
BRANCH  22  25
ATOM     25  N20 AFQ d          16.650  15.766  18.951  0.00  0.00    -0.074 N 
ATOM     26  H9  AFQ d          16.884  15.851  17.975  0.00  0.00     0.277 HD
ATOM     27  H10 AFQ d          16.893  14.843  19.276  0.00  0.00     0.277 HD
BRANCH  25  28
ATOM     28  C21 AFQ d          17.490  16.747  19.706  0.00  0.00     0.085 C 
ATOM     29  H11 AFQ d          17.059  17.754  19.612  0.00  0.00     0.076 H 
ATOM     30  H12 AFQ d          18.513  16.747  19.303  0.00  0.00     0.076 H 
BRANCH  28  31
ATOM     31  C22 AFQ d          17.514  16.322  21.205  0.00  0.00    -0.031 C 
ATOM     32  C26 AFQ d          16.187  16.603  21.932  0.00  0.00    -0.060 C 
ATOM     33  C25 AFQ d          16.595  16.796  23.414  0.00  0.00    -0.065 C 
ATOM     34  H14 AFQ d          15.497  15.753  21.826  0.00  0.00     0.033 H 
ATOM     35  H15 AFQ d          15.712  17.513  21.538  0.00  0.00     0.033 H 
ATOM     36  C24 AFQ d          17.984  17.518  23.350  0.00  0.00    -0.065 C 
ATOM     37  H16 AFQ d          16.686  15.825  23.922  0.00  0.00     0.033 H 
ATOM     38  H17 AFQ d          15.858  17.419  23.942  0.00  0.00     0.033 H 
ATOM     39  C23 AFQ d          18.582  17.122  21.988  0.00  0.00    -0.060 C 
ATOM     40  H18 AFQ d          18.633  17.178  24.171  0.00  0.00     0.033 H 
ATOM     41  H19 AFQ d          17.854  18.609  23.413  0.00  0.00     0.033 H 
ATOM     42  H20 AFQ d          18.857  18.025  21.425  0.00  0.00     0.033 H 
ATOM     43  H21 AFQ d          19.476  16.499  22.141  0.00  0.00     0.033 H 
ATOM     44  H13 AFQ d          17.739  15.247  21.257  0.00  0.00     0.042 H 
ENDBRANCH  28  31
ENDBRANCH  25  28
ENDBRANCH  22  25
ENDBRANCH  19  22
ENDBRANCH   7  19
BRANCH   4  45
ATOM     45  N17 AFQ d           9.784  13.338  18.185  0.00  0.00    -0.234 N 
ATOM     46  H2  AFQ d           9.030  12.752  17.798  0.00  0.00     0.174 HD
ATOM     47  H3  AFQ d          10.094  13.203  19.158  0.00  0.00     0.174 HD
ENDBRANCH   4  45
BRANCH  10  48
ATOM     48  N14 AFQ d          16.649  18.583  14.531  0.00  0.00    -0.229 N 
ATOM     49  H22 AFQ d          16.412  19.514  14.159  0.00  0.00     0.177 HD
BRANCH  48  50
ATOM     50  C15 AFQ d          18.042  18.189  14.461  0.00  0.00    -0.005 C 
ATOM     51  H23 AFQ d          18.112  17.091  14.453  0.00  0.00     0.057 H 
ATOM     52  H24 AFQ d          18.579  18.584  15.335  0.00  0.00     0.057 H 
ATOM     53  H25 AFQ d          18.491  18.591  13.542  0.00  0.00     0.057 H 
ENDBRANCH  48  50
ENDBRANCH  10  48
TORSDOF 8
ENDMDL
