REMARK  16 active torsions:
REMARK  status: ('A' for Active; 'I' for Inactive)
REMARK    1  A    between atoms: C1_1  and  C2_4 
REMARK    2  A    between atoms: C2_4  and  O2_16 
REMARK    3  A    between atoms: C4_6  and  O4_7 
REMARK    4  A    between atoms: C5_8  and  O5_9 
REMARK    5  A    between atoms: C6_10  and  C7_12 
REMARK    6  A    between atoms: C7_12  and  O7_13 
REMARK    7  A    between atoms: C7_12  and  C8_14 
REMARK    8  A    between atoms: C8_14  and  O8_15 
REMARK    9  A    between atoms: O8_15  and  C2_20 
REMARK   10  A    between atoms: O2_16  and  C9_17 
REMARK   11  A    between atoms: C10_18  and  C11_19 
REMARK   12  A    between atoms: C2_20  and  C1_21 
REMARK   13  A    between atoms: C6_27  and  C7_29 
REMARK   14  A    between atoms: C7_29  and  O7_30 
REMARK   15  A    between atoms: C7_29  and  C8_31 
REMARK   16  A    between atoms: C8_31  and  O8_32 
ROOT
ATOM      1  C7  KDA d          29.346  -4.860   1.659  0.00  0.00     0.083 C 
ATOM      2  H8  KDA d          30.104  -5.237   0.956  0.00  0.00     0.090 H 
ENDROOT
BRANCH   1   3
ATOM      3  C6  KDA d          28.794  -3.531   1.158  0.00  0.00     0.096 C 
ATOM      4  C5  KDA d          27.946  -3.603  -0.129  0.00  0.00     0.088 C 
ATOM      5  C4  KDA d          27.538  -2.179  -0.561  0.00  0.00     0.068 C 
ATOM      6  H5  KDA d          27.036  -4.193   0.053  0.00  0.00     0.091 H 
ATOM      7  C3  KDA d          28.711  -1.179  -0.635  0.00  0.00     0.024 C 
ATOM      8  H3  KDA d          26.816  -1.804   0.179  0.00  0.00     0.087 H 
ATOM      9  C2  KDA d          29.615  -1.315   0.613  0.00  0.00     0.262 C 
ATOM     10  H1  KDA d          29.306  -1.384  -1.537  0.00  0.00     0.045 H 
ATOM     11  H2  KDA d          28.312  -0.155  -0.684  0.00  0.00     0.045 H 
ATOM     12  O6  KDA d          29.940  -2.673   0.905  0.00  0.00    -0.335 OA
ATOM     13  H7  KDA d          28.170  -3.095   1.952  0.00  0.00     0.091 H 
BRANCH   4  14
ATOM     14  O5  KDA d          28.766  -4.273  -1.132  0.00  0.00    -0.390 OA
ATOM     15  H6  KDA d          29.559  -3.771  -1.278  0.00  0.00     0.210 HD
ENDBRANCH   4  14
BRANCH   5  16
ATOM     16  O4  KDA d          26.913  -2.199  -1.845  0.00  0.00    -0.393 OA
ATOM     17  H4  KDA d          27.545  -2.474  -2.499  0.00  0.00     0.210 HD
ENDBRANCH   5  16
BRANCH   9  18
ATOM     18  C1  KDA d          30.890  -0.503   0.301  0.00  0.00     0.239 C 
ATOM     19  O1A KDA d          31.925  -1.134  -0.019  0.00  0.00    -0.644 OA
ATOM     20  O1B KDA d          30.785   0.746   0.400  0.00  0.00    -0.644 OA
ENDBRANCH   9  18
BRANCH   9  21
ATOM     21  O2  KDA d          28.919  -0.720   1.757  0.00  0.00    -0.317 OA
BRANCH  21  22
ATOM     22  C9  KDA d          29.780  -0.775   2.833  0.00  0.00     0.013 C 
ATOM     23  C10 KDA d          29.719   0.060   3.943  0.00  0.00    -0.086 C 
ATOM     24  H13 KDA d          30.477  -0.039   4.719  0.00  0.00     0.079 H 
ATOM     25  H12 KDA d          30.566  -1.528   2.812  0.00  0.00     0.122 H 
BRANCH  23  26
ATOM     26  C11 KDA d          28.733   1.007   4.093  0.00  0.00    -0.058 C 
ATOM     27  H14 KDA d          28.884   1.546   5.040  0.00  0.00     0.032 H 
ATOM     28  H15 KDA d          27.750   0.514   4.104  0.00  0.00     0.032 H 
ATOM     29  H16 KDA d          28.777   1.718   3.255  0.00  0.00     0.032 H 
ENDBRANCH  23  26
ENDBRANCH  21  22
ENDBRANCH   9  21
ENDBRANCH   1   3
BRANCH   1  30
ATOM     30  O7  KDA d          28.264  -5.793   1.767  0.00  0.00    -0.391 OA
ATOM     31  H9  KDA d          27.619  -5.459   2.379  0.00  0.00     0.210 HD
ENDBRANCH   1  30
BRANCH   1  32
ATOM     32  C8  KDA d          29.966  -4.683   3.046  0.00  0.00     0.050 C 
ATOM     33  H10 KDA d          30.841  -4.018   3.006  0.00  0.00     0.078 H 
ATOM     34  H11 KDA d          30.262  -5.652   3.473  0.00  0.00     0.078 H 
BRANCH  32  35
ATOM     35  O8  KDA d          28.881  -4.078   3.819  0.00  0.00    -0.341 OA
BRANCH  35  36
ATOM     36  C2  KDA d          28.774  -4.562   5.200  0.00  0.00     0.276 C 
ATOM     37  C3  KDA d          27.811  -3.840   5.907  0.00  0.00    -0.036 C 
ATOM     38  C4  KDA d          28.090  -2.944   6.963  0.00  0.00    -0.099 C 
ATOM     39  H17 KDA d          26.768  -3.978   5.624  0.00  0.00     0.085 H 
ATOM     40  C5  KDA d          29.393  -2.677   7.402  0.00  0.00    -0.023 C 
ATOM     41  H18 KDA d          27.259  -2.441   7.455  0.00  0.00     0.076 H 
ATOM     42  C6  KDA d          30.435  -3.174   6.400  0.00  0.00     0.072 C 
ATOM     43  H19 KDA d          29.556  -3.181   8.366  0.00  0.00     0.042 H 
ATOM     44  H20 KDA d          29.511  -1.591   7.531  0.00  0.00     0.042 H 
ATOM     45  O6  KDA d          30.058  -4.470   5.864  0.00  0.00    -0.335 OA
ATOM     46  H21 KDA d          30.505  -2.428   5.595  0.00  0.00     0.088 H 
BRANCH  36  47
ATOM     47  C1  KDA d          28.362  -6.039   5.178  0.00  0.00     0.243 C 
ATOM     48  O1B KDA d          27.424  -6.339   4.448  0.00  0.00    -0.644 OA
ATOM     49  O1A KDA d          29.009  -6.825   5.897  0.00  0.00    -0.644 OA
ENDBRANCH  36  47
BRANCH  42  50
ATOM     50  C7  KDA d          31.844  -3.463   6.952  0.00  0.00     0.081 C 
ATOM     51  H22 KDA d          32.453  -3.880   6.136  0.00  0.00     0.090 H 
BRANCH  50  52
ATOM     52  O7  KDA d          31.740  -4.424   7.991  0.00  0.00    -0.391 OA
ATOM     53  H23 KDA d          31.359  -5.223   7.645  0.00  0.00     0.210 HD
ENDBRANCH  50  52
BRANCH  50  54
ATOM     54  C8  KDA d          32.553  -2.228   7.489  0.00  0.00     0.043 C 
ATOM     55  H24 KDA d          33.630  -2.437   7.566  0.00  0.00     0.078 H 
ATOM     56  H25 KDA d          32.154  -1.989   8.486  0.00  0.00     0.078 H 
BRANCH  54  57
ATOM     57  O8  KDA d          32.354  -1.100   6.621  0.00  0.00    -0.398 OA
ATOM     58  H26 KDA d          32.805  -0.344   6.978  0.00  0.00     0.209 HD
ENDBRANCH  54  57
ENDBRANCH  50  54
ENDBRANCH  42  50
ENDBRANCH  35  36
ENDBRANCH  32  35
ENDBRANCH   1  32
TORSDOF 16
