MODEL 1
REMARK VINA RESULT:      -5.4      0.000      0.000
REMARK  16 active torsions:
REMARK  status: ('A' for Active; 'I' for Inactive)
REMARK    1  A    between atoms: C1_1  and  C2_4 
REMARK    2  A    between atoms: C2_4  and  O2_16 
REMARK    3  A    between atoms: C4_6  and  O4_7 
REMARK    4  A    between atoms: C5_8  and  O5_9 
REMARK    5  A    between atoms: C6_10  and  C7_12 
REMARK    6  A    between atoms: C7_12  and  O7_13 
REMARK    7  A    between atoms: C7_12  and  C8_14 
REMARK    8  A    between atoms: C8_14  and  O8_15 
REMARK    9  A    between atoms: O8_15  and  C2_20 
REMARK   10  A    between atoms: O2_16  and  C9_17 
REMARK   11  A    between atoms: C10_18  and  C11_19 
REMARK   12  A    between atoms: C2_20  and  C1_21 
REMARK   13  A    between atoms: C6_27  and  C7_29 
REMARK   14  A    between atoms: C7_29  and  O7_30 
REMARK   15  A    between atoms: C7_29  and  C8_31 
REMARK   16  A    between atoms: C8_31  and  O8_32 
ROOT
ATOM      1  C7  KDA d          29.562  -5.313   1.807  0.00  0.00     0.083 C 
ATOM      2  H8  KDA d          30.364  -5.678   1.148  0.00  0.00     0.090 H 
ENDROOT
BRANCH   1   3
ATOM      3  C6  KDA d          29.003  -4.004   1.261  0.00  0.00     0.096 C 
ATOM      4  C5  KDA d          28.178  -4.121  -0.037  0.00  0.00     0.088 C 
ATOM      5  C4  KDA d          27.760  -2.714  -0.514  0.00  0.00     0.068 C 
ATOM      6  H5  KDA d          27.271  -4.717   0.146  0.00  0.00     0.091 H 
ATOM      7  C3  KDA d          28.923  -1.703  -0.596  0.00  0.00     0.024 C 
ATOM      8  H3  KDA d          27.022  -2.328   0.203  0.00  0.00     0.087 H 
ATOM      9  C2  KDA d          29.807  -1.794   0.670  0.00  0.00     0.262 C 
ATOM     10  H1  KDA d          29.535  -1.925  -1.482  0.00  0.00     0.045 H 
ATOM     11  H2  KDA d          28.513  -0.685  -0.679  0.00  0.00     0.045 H 
ATOM     12  O6  KDA d          30.143  -3.140   1.004  0.00  0.00    -0.335 OA
ATOM     13  H7  KDA d          28.361  -3.555   2.033  0.00  0.00     0.091 H 
BRANCH   4  14
ATOM     14  O5  KDA d          29.022  -4.808  -1.008  0.00  0.00    -0.390 OA
ATOM     15  H6  KDA d          29.811  -4.301  -1.155  0.00  0.00     0.210 HD
ENDBRANCH   4  14
BRANCH   5  16
ATOM     16  O4  KDA d          27.157  -2.776  -1.807  0.00  0.00    -0.393 OA
ATOM     17  H4  KDA d          27.803  -3.061  -2.443  0.00  0.00     0.210 HD
ENDBRANCH   5  16
BRANCH   9  18
ATOM     18  C1  KDA d          31.078  -0.976   0.357  0.00  0.00     0.239 C 
ATOM     19  O1A KDA d          32.187  -1.552   0.452  0.00  0.00    -0.644 OA
ATOM     20  O1B KDA d          30.893   0.225   0.032  0.00  0.00    -0.644 OA
ENDBRANCH   9  18
BRANCH   9  21
ATOM     21  O2  KDA d          29.086  -1.177   1.786  0.00  0.00    -0.317 OA
BRANCH  21  22
ATOM     22  C9  KDA d          29.969  -1.080   2.840  0.00  0.00     0.013 C 
ATOM     23  C10 KDA d          29.770  -0.301   3.975  0.00  0.00    -0.086 C 
ATOM     24  H13 KDA d          30.553  -0.261   4.731  0.00  0.00     0.079 H 
ATOM     25  H12 KDA d          30.891  -1.655   2.780  0.00  0.00     0.122 H 
BRANCH  23  26
ATOM     26  C11 KDA d          28.616   0.421   4.174  0.00  0.00    -0.058 C 
ATOM     27  H14 KDA d          28.680   0.957   5.132  0.00  0.00     0.032 H 
ATOM     28  H15 KDA d          27.755  -0.263   4.192  0.00  0.00     0.032 H 
ATOM     29  H16 KDA d          28.491   1.145   3.355  0.00  0.00     0.032 H 
ENDBRANCH  23  26
ENDBRANCH  21  22
ENDBRANCH   9  21
ENDBRANCH   1   3
BRANCH   1  30
ATOM     30  O7  KDA d          28.500  -6.272   1.872  0.00  0.00    -0.391 OA
ATOM     31  H9  KDA d          27.816  -5.947   2.446  0.00  0.00     0.210 HD
ENDBRANCH   1  30
BRANCH   1  32
ATOM     32  C8  KDA d          30.106  -5.103   3.221  0.00  0.00     0.050 C 
ATOM     33  H10 KDA d          31.089  -4.612   3.198  0.00  0.00     0.078 H 
ATOM     34  H11 KDA d          30.187  -6.059   3.759  0.00  0.00     0.078 H 
BRANCH  32  35
ATOM     35  O8  KDA d          29.100  -4.238   3.838  0.00  0.00    -0.341 OA
BRANCH  35  36
ATOM     36  C2  KDA d          28.822  -4.536   5.247  0.00  0.00     0.276 C 
ATOM     37  C3  KDA d          27.994  -3.562   5.808  0.00  0.00    -0.036 C 
ATOM     38  C4  KDA d          28.396  -2.630   6.790  0.00  0.00    -0.099 C 
ATOM     39  H17 KDA d          26.961  -3.517   5.463  0.00  0.00     0.085 H 
ATOM     40  C5  KDA d          29.701  -2.584   7.297  0.00  0.00    -0.023 C 
ATOM     41  H18 KDA d          27.663  -1.919   7.168  0.00  0.00     0.076 H 
ATOM     42  C6  KDA d          30.669  -3.387   6.428  0.00  0.00     0.072 C 
ATOM     43  H19 KDA d          29.705  -3.001   8.315  0.00  0.00     0.042 H 
ATOM     44  H20 KDA d          30.035  -1.536   7.329  0.00  0.00     0.042 H 
ATOM     45  O6  KDA d          30.060  -4.632   5.993  0.00  0.00    -0.335 OA
ATOM     46  H21 KDA d          30.935  -2.763   5.562  0.00  0.00     0.088 H 
BRANCH  36  47
ATOM     47  C1  KDA d          28.114  -5.893   5.337  0.00  0.00     0.243 C 
ATOM     48  O1B KDA d          27.077  -6.018   4.695  0.00  0.00    -0.644 OA
ATOM     49  O1A KDA d          28.641  -6.768   6.050  0.00  0.00    -0.644 OA
ENDBRANCH  36  47
BRANCH  42  50
ATOM     50  C7  KDA d          31.956  -3.891   7.109  0.00  0.00     0.081 C 
ATOM     51  H22 KDA d          32.436  -4.619   6.437  0.00  0.00     0.090 H 
BRANCH  50  52
ATOM     52  O7  KDA d          31.608  -4.539   8.322  0.00  0.00    -0.391 OA
ATOM     53  H23 KDA d          31.033  -5.273   8.135  0.00  0.00     0.210 HD
ENDBRANCH  50  52
BRANCH  50  54
ATOM     54  C8  KDA d          32.960  -2.787   7.407  0.00  0.00     0.043 C 
ATOM     55  H24 KDA d          33.922  -3.242   7.683  0.00  0.00     0.078 H 
ATOM     56  H25 KDA d          32.588  -2.179   8.246  0.00  0.00     0.078 H 
BRANCH  54  57
ATOM     57  O8  KDA d          33.151  -1.940   6.262  0.00  0.00    -0.398 OA
ATOM     58  H26 KDA d          33.780  -1.260   6.474  0.00  0.00     0.209 HD
ENDBRANCH  54  57
ENDBRANCH  50  54
ENDBRANCH  42  50
ENDBRANCH  35  36
ENDBRANCH  32  35
ENDBRANCH   1  32
TORSDOF 16
ENDMDL
