MODEL 1
REMARK VINA RESULT:      -6.0      0.000      0.000
REMARK  16 active torsions:
REMARK  status: ('A' for Active; 'I' for Inactive)
REMARK    1  A    between atoms: C1_1  and  C2_4 
REMARK    2  A    between atoms: C2_4  and  O2_16 
REMARK    3  A    between atoms: C4_6  and  O4_7 
REMARK    4  A    between atoms: C5_8  and  O5_9 
REMARK    5  A    between atoms: C6_10  and  C7_12 
REMARK    6  A    between atoms: C7_12  and  O7_13 
REMARK    7  A    between atoms: C7_12  and  C8_14 
REMARK    8  A    between atoms: C8_14  and  O8_15 
REMARK    9  A    between atoms: O8_15  and  C2_20 
REMARK   10  A    between atoms: O2_16  and  C9_17 
REMARK   11  A    between atoms: C10_18  and  C11_19 
REMARK   12  A    between atoms: C2_20  and  C1_21 
REMARK   13  A    between atoms: C6_27  and  C7_29 
REMARK   14  A    between atoms: C7_29  and  O7_30 
REMARK   15  A    between atoms: C7_29  and  C8_31 
REMARK   16  A    between atoms: C8_31  and  O8_32 
ROOT
ATOM      1  C7  KDA d          30.861   0.578   3.510  0.00  0.00     0.083 C 
ATOM      2  H8  KDA d          31.055   1.074   4.473  0.00  0.00     0.090 H 
ENDROOT
BRANCH   1   3
ATOM      3  C6  KDA d          29.416   0.095   3.461  0.00  0.00     0.096 C 
ATOM      4  C5  KDA d          28.352   1.128   3.885  0.00  0.00     0.088 C 
ATOM      5  C4  KDA d          26.957   0.470   3.873  0.00  0.00     0.068 C 
ATOM      6  H5  KDA d          28.351   1.975   3.184  0.00  0.00     0.091 H 
ATOM      7  C3  KDA d          26.880  -0.866   4.643  0.00  0.00     0.024 C 
ATOM      8  H3  KDA d          26.693   0.274   2.824  0.00  0.00     0.087 H 
ATOM      9  C2  KDA d          28.094  -1.759   4.296  0.00  0.00     0.262 C 
ATOM     10  H1  KDA d          26.878  -0.661   5.724  0.00  0.00     0.045 H 
ATOM     11  H2  KDA d          25.953  -1.390   4.368  0.00  0.00     0.045 H 
ATOM     12  O6  KDA d          29.329  -1.048   4.356  0.00  0.00    -0.335 OA
ATOM     13  H7  KDA d          29.192  -0.221   2.431  0.00  0.00     0.091 H 
BRANCH   4  14
ATOM     14  O5  KDA d          28.732   1.598   5.213  0.00  0.00    -0.390 OA
ATOM     15  H6  KDA d          28.619   2.540   5.259  0.00  0.00     0.210 HD
ENDBRANCH   4  14
BRANCH   5  16
ATOM     16  O4  KDA d          25.979   1.344   4.438  0.00  0.00    -0.393 OA
ATOM     17  H4  KDA d          25.384   1.633   3.756  0.00  0.00     0.210 HD
ENDBRANCH   5  16
BRANCH   9  18
ATOM     18  C1  KDA d          28.077  -2.912   5.322  0.00  0.00     0.239 C 
ATOM     19  O1A KDA d          27.123  -2.962   6.134  0.00  0.00    -0.644 OA
ATOM     20  O1B KDA d          29.041  -3.717   5.261  0.00  0.00    -0.644 OA
ENDBRANCH   9  18
BRANCH   9  21
ATOM     21  O2  KDA d          27.903  -2.297   2.946  0.00  0.00    -0.317 OA
BRANCH  21  22
ATOM     22  C9  KDA d          26.642  -2.854   2.903  0.00  0.00     0.013 C 
ATOM     23  C10 KDA d          26.370  -4.182   2.596  0.00  0.00    -0.086 C 
ATOM     24  H13 KDA d          25.332  -4.510   2.546  0.00  0.00     0.079 H 
ATOM     25  H12 KDA d          25.796  -2.205   3.126  0.00  0.00     0.122 H 
BRANCH  23  26
ATOM     26  C11 KDA d          27.369  -5.096   2.353  0.00  0.00    -0.058 C 
ATOM     27  H14 KDA d          27.091  -5.721   1.491  0.00  0.00     0.032 H 
ATOM     28  H15 KDA d          27.506  -5.733   3.239  0.00  0.00     0.032 H 
ATOM     29  H16 KDA d          28.307  -4.565   2.134  0.00  0.00     0.032 H 
ENDBRANCH  23  26
ENDBRANCH  21  22
ENDBRANCH   9  21
ENDBRANCH   1   3
BRANCH   1  30
ATOM     30  O7  KDA d          31.073   1.495   2.429  0.00  0.00    -0.391 OA
ATOM     31  H9  KDA d          31.045   2.385   2.760  0.00  0.00     0.210 HD
ENDBRANCH   1  30
BRANCH   1  32
ATOM     32  C8  KDA d          31.817  -0.602   3.331  0.00  0.00     0.050 C 
ATOM     33  H10 KDA d          31.354  -1.541   3.668  0.00  0.00     0.078 H 
ATOM     34  H11 KDA d          32.754  -0.439   3.882  0.00  0.00     0.078 H 
BRANCH  32  35
ATOM     35  O8  KDA d          32.053  -0.622   1.887  0.00  0.00    -0.341 OA
BRANCH  35  36
ATOM     36  C2  KDA d          31.699  -1.884   1.229  0.00  0.00     0.276 C 
ATOM     37  C3  KDA d          32.565  -2.152   0.167  0.00  0.00    -0.036 C 
ATOM     38  C4  KDA d          32.200  -2.126  -1.197  0.00  0.00    -0.099 C 
ATOM     39  H17 KDA d          33.598  -2.399   0.409  0.00  0.00     0.085 H 
ATOM     40  C5  KDA d          30.905  -1.807  -1.626  0.00  0.00    -0.023 C 
ATOM     41  H18 KDA d          32.955  -2.364  -1.945  0.00  0.00     0.076 H 
ATOM     42  C6  KDA d          30.085  -1.168  -0.505  0.00  0.00     0.072 C 
ATOM     43  H19 KDA d          30.401  -2.727  -1.957  0.00  0.00     0.042 H 
ATOM     44  H20 KDA d          30.971  -1.102  -2.467  0.00  0.00     0.042 H 
ATOM     45  O6  KDA d          30.329  -1.838   0.760  0.00  0.00    -0.335 OA
ATOM     46  H21 KDA d          30.375  -0.109  -0.444  0.00  0.00     0.088 H 
BRANCH  36  47
ATOM     47  C1  KDA d          31.807  -3.024   2.250  0.00  0.00     0.243 C 
ATOM     48  O1B KDA d          32.925  -3.267   2.688  0.00  0.00    -0.644 OA
ATOM     49  O1A KDA d          30.755  -3.615   2.562  0.00  0.00    -0.644 OA
ENDBRANCH  36  47
BRANCH  42  50
ATOM     50  C7  KDA d          28.553  -1.272  -0.623  0.00  0.00     0.081 C 
ATOM     51  H22 KDA d          28.248  -0.802  -1.570  0.00  0.00     0.090 H 
BRANCH  50  52
ATOM     52  O7  KDA d          27.962  -0.565   0.457  0.00  0.00    -0.391 OA
ATOM     53  H23 KDA d          28.297  -0.907   1.278  0.00  0.00     0.210 HD
ENDBRANCH  50  52
BRANCH  50  54
ATOM     54  C8  KDA d          28.037  -2.704  -0.617  0.00  0.00     0.043 C 
ATOM     55  H24 KDA d          27.440  -2.868   0.292  0.00  0.00     0.078 H 
ATOM     56  H25 KDA d          28.894  -3.395  -0.622  0.00  0.00     0.078 H 
BRANCH  54  57
ATOM     57  O8  KDA d          27.219  -2.963  -1.770  0.00  0.00    -0.398 OA
ATOM     58  H26 KDA d          26.304  -2.870  -1.534  0.00  0.00     0.209 HD
ENDBRANCH  54  57
ENDBRANCH  50  54
ENDBRANCH  42  50
ENDBRANCH  35  36
ENDBRANCH  32  35
ENDBRANCH   1  32
TORSDOF 16
ENDMDL
MODEL 2
REMARK VINA RESULT:      -5.6      1.872      5.655
REMARK  16 active torsions:
REMARK  status: ('A' for Active; 'I' for Inactive)
REMARK    1  A    between atoms: C1_1  and  C2_4 
REMARK    2  A    between atoms: C2_4  and  O2_16 
REMARK    3  A    between atoms: C4_6  and  O4_7 
REMARK    4  A    between atoms: C5_8  and  O5_9 
REMARK    5  A    between atoms: C6_10  and  C7_12 
REMARK    6  A    between atoms: C7_12  and  O7_13 
REMARK    7  A    between atoms: C7_12  and  C8_14 
REMARK    8  A    between atoms: C8_14  and  O8_15 
REMARK    9  A    between atoms: O8_15  and  C2_20 
REMARK   10  A    between atoms: O2_16  and  C9_17 
REMARK   11  A    between atoms: C10_18  and  C11_19 
REMARK   12  A    between atoms: C2_20  and  C1_21 
REMARK   13  A    between atoms: C6_27  and  C7_29 
REMARK   14  A    between atoms: C7_29  and  O7_30 
REMARK   15  A    between atoms: C7_29  and  C8_31 
REMARK   16  A    between atoms: C8_31  and  O8_32 
ROOT
ATOM      1  C7  KDA d          30.355  -0.704   1.374  0.00  0.00     0.083 C 
ATOM      2  H8  KDA d          29.631   0.111   1.224  0.00  0.00     0.090 H 
ENDROOT
BRANCH   1   3
ATOM      3  C6  KDA d          29.858  -1.969   0.684  0.00  0.00     0.096 C 
ATOM      4  C5  KDA d          28.798  -1.756  -0.416  0.00  0.00     0.088 C 
ATOM      5  C4  KDA d          28.327  -3.123  -0.954  0.00  0.00     0.068 C 
ATOM      6  H5  KDA d          29.229  -1.177  -1.246  0.00  0.00     0.091 H 
ATOM      7  C3  KDA d          27.905  -4.124   0.142  0.00  0.00     0.024 C 
ATOM      8  H3  KDA d          29.166  -3.564  -1.514  0.00  0.00     0.087 H 
ATOM      9  C2  KDA d          28.935  -4.127   1.296  0.00  0.00     0.262 C 
ATOM     10  H1  KDA d          26.920  -3.834   0.537  0.00  0.00     0.045 H 
ATOM     11  H2  KDA d          27.844  -5.133  -0.292  0.00  0.00     0.045 H 
ATOM     12  O6  KDA d          29.281  -2.809   1.720  0.00  0.00    -0.335 OA
ATOM     13  H7  KDA d          30.722  -2.477   0.230  0.00  0.00     0.091 H 
BRANCH   4  14
ATOM     14  O5  KDA d          27.712  -0.996   0.192  0.00  0.00    -0.390 OA
ATOM     15  H6  KDA d          27.635  -0.154  -0.240  0.00  0.00     0.210 HD
ENDBRANCH   4  14
BRANCH   5  16
ATOM     16  O4  KDA d          27.217  -2.965  -1.838  0.00  0.00    -0.393 OA
ATOM     17  H4  KDA d          27.351  -3.500  -2.612  0.00  0.00     0.210 HD
ENDBRANCH   5  16
BRANCH   9  18
ATOM     18  C1  KDA d          28.278  -4.917   2.447  0.00  0.00     0.239 C 
ATOM     19  O1A KDA d          28.025  -6.130   2.257  0.00  0.00    -0.644 OA
ATOM     20  O1B KDA d          28.042  -4.267   3.496  0.00  0.00    -0.644 OA
ENDBRANCH   9  18
BRANCH   9  21
ATOM     21  O2  KDA d          30.139  -4.828   0.841  0.00  0.00    -0.317 OA
BRANCH  21  22
ATOM     22  C9  KDA d          31.049  -4.792   1.876  0.00  0.00     0.013 C 
ATOM     23  C10 KDA d          32.357  -5.258   1.802  0.00  0.00    -0.086 C 
ATOM     24  H13 KDA d          32.980  -5.223   2.694  0.00  0.00     0.079 H 
ATOM     25  H12 KDA d          30.719  -4.368   2.823  0.00  0.00     0.122 H 
BRANCH  23  26
ATOM     26  C11 KDA d          32.889  -5.761   0.638  0.00  0.00    -0.058 C 
ATOM     27  H14 KDA d          32.273  -6.602   0.287  0.00  0.00     0.032 H 
ATOM     28  H15 KDA d          33.915  -6.110   0.824  0.00  0.00     0.032 H 
ATOM     29  H16 KDA d          32.904  -4.973  -0.129  0.00  0.00     0.032 H 
ENDBRANCH  23  26
ENDBRANCH  21  22
ENDBRANCH   9  21
ENDBRANCH   1   3
BRANCH   1  30
ATOM     30  O7  KDA d          31.625  -0.347   0.815  0.00  0.00    -0.391 OA
ATOM     31  H9  KDA d          32.126  -1.135   0.641  0.00  0.00     0.210 HD
ENDBRANCH   1  30
BRANCH   1  32
ATOM     32  C8  KDA d          30.546  -0.962   2.870  0.00  0.00     0.050 C 
ATOM     33  H10 KDA d          31.606  -1.130   3.110  0.00  0.00     0.078 H 
ATOM     34  H11 KDA d          29.954  -1.827   3.201  0.00  0.00     0.078 H 
BRANCH  32  35
ATOM     35  O8  KDA d          30.057   0.274   3.483  0.00  0.00    -0.341 OA
BRANCH  35  36
ATOM     36  C2  KDA d          28.871   0.106   4.330  0.00  0.00     0.276 C 
ATOM     37  C3  KDA d          28.776   1.138   5.264  0.00  0.00    -0.036 C 
ATOM     38  C4  KDA d          28.954   0.984   6.657  0.00  0.00    -0.099 C 
ATOM     39  H17 KDA d          28.548   2.137   4.892  0.00  0.00     0.085 H 
ATOM     40  C5  KDA d          29.265  -0.248   7.247  0.00  0.00    -0.023 C 
ATOM     41  H18 KDA d          28.845   1.858   7.298  0.00  0.00     0.076 H 
ATOM     42  C6  KDA d          29.723  -1.268   6.204  0.00  0.00     0.072 C 
ATOM     43  H19 KDA d          28.371  -0.636   7.757  0.00  0.00     0.042 H 
ATOM     44  H20 KDA d          30.071  -0.100   7.980  0.00  0.00     0.042 H 
ATOM     45  O6  KDA d          28.913  -1.177   5.002  0.00  0.00    -0.335 OA
ATOM     46  H21 KDA d          30.779  -1.060   5.976  0.00  0.00     0.088 H 
BRANCH  36  47
ATOM     47  C1  KDA d          27.620   0.129   3.443  0.00  0.00     0.243 C 
ATOM     48  O1B KDA d          27.075  -0.947   3.231  0.00  0.00    -0.644 OA
ATOM     49  O1A KDA d          27.248   1.236   3.007  0.00  0.00    -0.644 OA
ENDBRANCH  36  47
BRANCH  42  50
ATOM     50  C7  KDA d          29.565  -2.755   6.574  0.00  0.00     0.081 C 
ATOM     51  H22 KDA d          30.276  -2.985   7.382  0.00  0.00     0.090 H 
BRANCH  50  52
ATOM     52  O7  KDA d          29.882  -3.545   5.439  0.00  0.00    -0.391 OA
ATOM     53  H23 KDA d          29.148  -3.538   4.835  0.00  0.00     0.210 HD
ENDBRANCH  50  52
BRANCH  50  54
ATOM     54  C8  KDA d          28.168  -3.118   7.056  0.00  0.00     0.043 C 
ATOM     55  H24 KDA d          27.822  -2.352   7.765  0.00  0.00     0.078 H 
ATOM     56  H25 KDA d          28.203  -4.095   7.560  0.00  0.00     0.078 H 
BRANCH  54  57
ATOM     57  O8  KDA d          27.245  -3.190   5.956  0.00  0.00    -0.398 OA
ATOM     58  H26 KDA d          27.491  -2.553   5.296  0.00  0.00     0.209 HD
ENDBRANCH  54  57
ENDBRANCH  50  54
ENDBRANCH  42  50
ENDBRANCH  35  36
ENDBRANCH  32  35
ENDBRANCH   1  32
TORSDOF 16
ENDMDL
MODEL 3
REMARK VINA RESULT:      -5.6      1.803      5.580
REMARK  16 active torsions:
REMARK  status: ('A' for Active; 'I' for Inactive)
REMARK    1  A    between atoms: C1_1  and  C2_4 
REMARK    2  A    between atoms: C2_4  and  O2_16 
REMARK    3  A    between atoms: C4_6  and  O4_7 
REMARK    4  A    between atoms: C5_8  and  O5_9 
REMARK    5  A    between atoms: C6_10  and  C7_12 
REMARK    6  A    between atoms: C7_12  and  O7_13 
REMARK    7  A    between atoms: C7_12  and  C8_14 
REMARK    8  A    between atoms: C8_14  and  O8_15 
REMARK    9  A    between atoms: O8_15  and  C2_20 
REMARK   10  A    between atoms: O2_16  and  C9_17 
REMARK   11  A    between atoms: C10_18  and  C11_19 
REMARK   12  A    between atoms: C2_20  and  C1_21 
REMARK   13  A    between atoms: C6_27  and  C7_29 
REMARK   14  A    between atoms: C7_29  and  O7_30 
REMARK   15  A    between atoms: C7_29  and  C8_31 
REMARK   16  A    between atoms: C8_31  and  O8_32 
ROOT
ATOM      1  C7  KDA d          28.141   0.238   3.809  0.00  0.00     0.083 C 
ATOM      2  H8  KDA d          27.105  -0.094   3.643  0.00  0.00     0.090 H 
ENDROOT
BRANCH   1   3
ATOM      3  C6  KDA d          29.091  -0.593   2.955  0.00  0.00     0.096 C 
ATOM      4  C5  KDA d          30.570  -0.153   2.981  0.00  0.00     0.088 C 
ATOM      5  C4  KDA d          31.387  -1.024   2.004  0.00  0.00     0.068 C 
ATOM      6  H5  KDA d          30.981  -0.274   3.994  0.00  0.00     0.091 H 
ATOM      7  C3  KDA d          30.784  -1.124   0.587  0.00  0.00     0.024 C 
ATOM      8  H3  KDA d          31.433  -2.038   2.427  0.00  0.00     0.087 H 
ATOM      9  C2  KDA d          29.260  -1.377   0.667  0.00  0.00     0.262 C 
ATOM     10  H1  KDA d          30.967  -0.182   0.049  0.00  0.00     0.045 H 
ATOM     11  H2  KDA d          31.262  -1.954   0.047  0.00  0.00     0.045 H 
ATOM     12  O6  KDA d          28.609  -0.503   1.587  0.00  0.00    -0.335 OA
ATOM     13  H7  KDA d          29.042  -1.636   3.300  0.00  0.00     0.091 H 
BRANCH   4  14
ATOM     14  O5  KDA d          30.591   1.259   2.615  0.00  0.00    -0.390 OA
ATOM     15  H6  KDA d          31.482   1.519   2.411  0.00  0.00     0.210 HD
ENDBRANCH   4  14
BRANCH   5  16
ATOM     16  O4  KDA d          32.716  -0.521   1.868  0.00  0.00    -0.393 OA
ATOM     17  H4  KDA d          32.728   0.164   1.210  0.00  0.00     0.210 HD
ENDBRANCH   5  16
BRANCH   9  18
ATOM     18  C1  KDA d          28.722  -1.163  -0.764  0.00  0.00     0.239 C 
ATOM     19  O1A KDA d          29.553  -0.965  -1.681  0.00  0.00    -0.644 OA
ATOM     20  O1B KDA d          27.472  -1.201  -0.893  0.00  0.00    -0.644 OA
ENDBRANCH   9  18
BRANCH   9  21
ATOM     21  O2  KDA d          29.041  -2.768   1.073  0.00  0.00    -0.317 OA
BRANCH  21  22
ATOM     22  C9  KDA d          29.691  -3.568   0.157  0.00  0.00     0.013 C 
ATOM     23  C10 KDA d          30.518  -4.638   0.482  0.00  0.00    -0.086 C 
ATOM     24  H13 KDA d          31.019  -5.179  -0.320  0.00  0.00     0.079 H 
ATOM     25  H12 KDA d          29.547  -3.346  -0.899  0.00  0.00     0.122 H 
BRANCH  23  26
ATOM     26  C11 KDA d          30.723  -5.036   1.782  0.00  0.00    -0.058 C 
ATOM     27  H14 KDA d          30.925  -6.117   1.807  0.00  0.00     0.032 H 
ATOM     28  H15 KDA d          29.825  -4.817   2.378  0.00  0.00     0.032 H 
ATOM     29  H16 KDA d          31.583  -4.492   2.200  0.00  0.00     0.032 H 
ENDBRANCH  23  26
ENDBRANCH  21  22
ENDBRANCH   9  21
ENDBRANCH   1   3
BRANCH   1  30
ATOM     30  O7  KDA d          28.284   1.616   3.442  0.00  0.00    -0.391 OA
ATOM     31  H9  KDA d          28.146   2.162   4.207  0.00  0.00     0.210 HD
ENDBRANCH   1  30
BRANCH   1  32
ATOM     32  C8  KDA d          28.502   0.096   5.288  0.00  0.00     0.050 C 
ATOM     33  H10 KDA d          28.581   1.081   5.772  0.00  0.00     0.078 H 
ATOM     34  H11 KDA d          29.447  -0.451   5.414  0.00  0.00     0.078 H 
BRANCH  32  35
ATOM     35  O8  KDA d          27.378  -0.667   5.832  0.00  0.00    -0.341 OA
BRANCH  35  36
ATOM     36  C2  KDA d          27.750  -1.948   6.442  0.00  0.00     0.276 C 
ATOM     37  C3  KDA d          29.134  -2.126   6.419  0.00  0.00    -0.036 C 
ATOM     38  C4  KDA d          29.811  -3.082   5.629  0.00  0.00    -0.099 C 
ATOM     39  H17 KDA d          29.737  -1.481   7.058  0.00  0.00     0.085 H 
ATOM     40  C5  KDA d          29.141  -3.954   4.761  0.00  0.00    -0.023 C 
ATOM     41  H18 KDA d          30.896  -3.144   5.698  0.00  0.00     0.076 H 
ATOM     42  C6  KDA d          27.699  -3.508   4.522  0.00  0.00     0.072 C 
ATOM     43  H19 KDA d          29.134  -4.962   5.202  0.00  0.00     0.042 H 
ATOM     44  H20 KDA d          29.672  -3.978   3.799  0.00  0.00     0.042 H 
ATOM     45  O6  KDA d          27.092  -3.040   5.755  0.00  0.00    -0.335 OA
ATOM     46  H21 KDA d          27.719  -2.704   3.771  0.00  0.00     0.088 H 
BRANCH  36  47
ATOM     47  C1  KDA d          27.278  -1.959   7.901  0.00  0.00     0.243 C 
ATOM     48  O1B KDA d          26.758  -0.931   8.320  0.00  0.00    -0.644 OA
ATOM     49  O1A KDA d          27.452  -3.007   8.552  0.00  0.00    -0.644 OA
ENDBRANCH  36  47
BRANCH  42  50
ATOM     50  C7  KDA d          26.702  -4.596   4.078  0.00  0.00     0.081 C 
ATOM     51  H22 KDA d          25.692  -4.279   4.379  0.00  0.00     0.090 H 
BRANCH  50  52
ATOM     52  O7  KDA d          27.024  -5.809   4.739  0.00  0.00    -0.391 OA
ATOM     53  H23 KDA d          27.715  -5.650   5.373  0.00  0.00     0.210 HD
ENDBRANCH  50  52
BRANCH  50  54
ATOM     54  C8  KDA d          26.695  -4.838   2.575  0.00  0.00     0.043 C 
ATOM     55  H24 KDA d          25.971  -5.633   2.343  0.00  0.00     0.078 H 
ATOM     56  H25 KDA d          27.699  -5.154   2.256  0.00  0.00     0.078 H 
BRANCH  54  57
ATOM     57  O8  KDA d          26.328  -3.646   1.861  0.00  0.00    -0.398 OA
ATOM     58  H26 KDA d          26.510  -2.886   2.402  0.00  0.00     0.209 HD
ENDBRANCH  54  57
ENDBRANCH  50  54
ENDBRANCH  42  50
ENDBRANCH  35  36
ENDBRANCH  32  35
ENDBRANCH   1  32
TORSDOF 16
ENDMDL
MODEL 4
REMARK VINA RESULT:      -5.4      1.687      6.148
REMARK  16 active torsions:
REMARK  status: ('A' for Active; 'I' for Inactive)
REMARK    1  A    between atoms: C1_1  and  C2_4 
REMARK    2  A    between atoms: C2_4  and  O2_16 
REMARK    3  A    between atoms: C4_6  and  O4_7 
REMARK    4  A    between atoms: C5_8  and  O5_9 
REMARK    5  A    between atoms: C6_10  and  C7_12 
REMARK    6  A    between atoms: C7_12  and  O7_13 
REMARK    7  A    between atoms: C7_12  and  C8_14 
REMARK    8  A    between atoms: C8_14  and  O8_15 
REMARK    9  A    between atoms: O8_15  and  C2_20 
REMARK   10  A    between atoms: O2_16  and  C9_17 
REMARK   11  A    between atoms: C10_18  and  C11_19 
REMARK   12  A    between atoms: C2_20  and  C1_21 
REMARK   13  A    between atoms: C6_27  and  C7_29 
REMARK   14  A    between atoms: C7_29  and  O7_30 
REMARK   15  A    between atoms: C7_29  and  C8_31 
REMARK   16  A    between atoms: C8_31  and  O8_32 
ROOT
ATOM      1  C7  KDA d          28.876  -4.739   2.116  0.00  0.00     0.083 C 
ATOM      2  H8  KDA d          29.329  -5.555   1.533  0.00  0.00     0.090 H 
ENDROOT
BRANCH   1   3
ATOM      3  C6  KDA d          28.957  -3.436   1.330  0.00  0.00     0.096 C 
ATOM      4  C5  KDA d          27.729  -3.107   0.456  0.00  0.00     0.088 C 
ATOM      5  C4  KDA d          27.995  -1.815  -0.345  0.00  0.00     0.068 C 
ATOM      6  H5  KDA d          26.845  -2.954   1.092  0.00  0.00     0.091 H 
ATOM      7  C3  KDA d          29.334  -1.810  -1.113  0.00  0.00     0.024 C 
ATOM      8  H3  KDA d          28.009  -0.980   0.370  0.00  0.00     0.087 H 
ATOM      9  C2  KDA d          30.475  -2.338  -0.211  0.00  0.00     0.262 C 
ATOM     10  H1  KDA d          29.246  -2.454  -2.000  0.00  0.00     0.045 H 
ATOM     11  H2  KDA d          29.568  -0.782  -1.428  0.00  0.00     0.045 H 
ATOM     12  O6  KDA d          30.121  -3.544   0.465  0.00  0.00    -0.335 OA
ATOM     13  H7  KDA d          29.098  -2.611   2.043  0.00  0.00     0.091 H 
BRANCH   4  14
ATOM     14  O5  KDA d          27.512  -4.261  -0.409  0.00  0.00    -0.390 OA
ATOM     15  H6  KDA d          27.747  -4.035  -1.301  0.00  0.00     0.210 HD
ENDBRANCH   4  14
BRANCH   5  16
ATOM     16  O4  KDA d          26.957  -1.588  -1.299  0.00  0.00    -0.393 OA
ATOM     17  H4  KDA d          26.968  -2.280  -1.949  0.00  0.00     0.210 HD
ENDBRANCH   5  16
BRANCH   9  18
ATOM     18  C1  KDA d          31.680  -2.570  -1.146  0.00  0.00     0.239 C 
ATOM     19  O1A KDA d          32.341  -1.569  -1.512  0.00  0.00    -0.644 OA
ATOM     20  O1B KDA d          31.901  -3.763  -1.474  0.00  0.00    -0.644 OA
ENDBRANCH   9  18
BRANCH   9  21
ATOM     21  O2  KDA d          30.806  -1.303   0.773  0.00  0.00    -0.317 OA
BRANCH  21  22
ATOM     22  C9  KDA d          31.909  -1.743   1.473  0.00  0.00     0.013 C 
ATOM     23  C10 KDA d          32.609  -0.989   2.409  0.00  0.00    -0.086 C 
ATOM     24  H13 KDA d          33.496  -1.417   2.874  0.00  0.00     0.079 H 
ATOM     25  H12 KDA d          32.259  -2.755   1.279  0.00  0.00     0.122 H 
BRANCH  23  26
ATOM     26  C11 KDA d          32.217   0.280   2.766  0.00  0.00    -0.058 C 
ATOM     27  H14 KDA d          31.373   0.594   2.135  0.00  0.00     0.032 H 
ATOM     28  H15 KDA d          33.058   0.976   2.628  0.00  0.00     0.032 H 
ATOM     29  H16 KDA d          31.908   0.285   3.822  0.00  0.00     0.032 H 
ENDBRANCH  23  26
ENDBRANCH  21  22
ENDBRANCH   9  21
ENDBRANCH   1   3
BRANCH   1  30
ATOM     30  O7  KDA d          27.498  -5.027   2.383  0.00  0.00    -0.391 OA
ATOM     31  H9  KDA d          27.108  -4.298   2.850  0.00  0.00     0.210 HD
ENDBRANCH   1  30
BRANCH   1  32
ATOM     32  C8  KDA d          29.602  -4.592   3.455  0.00  0.00     0.050 C 
ATOM     33  H10 KDA d          30.397  -3.834   3.392  0.00  0.00     0.078 H 
ATOM     34  H11 KDA d          30.035  -5.550   3.777  0.00  0.00     0.078 H 
BRANCH  32  35
ATOM     35  O8  KDA d          28.538  -4.165   4.364  0.00  0.00    -0.341 OA
BRANCH  35  36
ATOM     36  C2  KDA d          28.875  -3.000   5.190  0.00  0.00     0.276 C 
ATOM     37  C3  KDA d          28.067  -2.947   6.327  0.00  0.00    -0.036 C 
ATOM     38  C4  KDA d          27.071  -1.973   6.563  0.00  0.00    -0.099 C 
ATOM     39  H17 KDA d          28.215  -3.712   7.088  0.00  0.00     0.085 H 
ATOM     40  C5  KDA d          26.783  -0.951   5.649  0.00  0.00    -0.023 C 
ATOM     41  H18 KDA d          26.505  -2.018   7.493  0.00  0.00     0.076 H 
ATOM     42  C6  KDA d          27.399  -1.234   4.279  0.00  0.00     0.072 C 
ATOM     43  H19 KDA d          27.187  -0.003   6.034  0.00  0.00     0.042 H 
ATOM     44  H20 KDA d          25.691  -0.867   5.540  0.00  0.00     0.042 H 
ATOM     45  O6  KDA d          28.736  -1.782   4.419  0.00  0.00    -0.335 OA
ATOM     46  H21 KDA d          26.741  -1.946   3.760  0.00  0.00     0.088 H 
BRANCH  36  47
ATOM     47  C1  KDA d          30.339  -3.111   5.633  0.00  0.00     0.243 C 
ATOM     48  O1B KDA d          30.611  -4.015   6.414  0.00  0.00    -0.644 OA
ATOM     49  O1A KDA d          31.143  -2.281   5.166  0.00  0.00    -0.644 OA
ENDBRANCH  36  47
BRANCH  42  50
ATOM     50  C7  KDA d          27.653  -0.017   3.370  0.00  0.00     0.081 C 
ATOM     51  H22 KDA d          26.783   0.104   2.708  0.00  0.00     0.090 H 
BRANCH  50  52
ATOM     52  O7  KDA d          28.805  -0.269   2.580  0.00  0.00    -0.391 OA
ATOM     53  H23 KDA d          29.581  -0.008   3.061  0.00  0.00     0.210 HD
ENDBRANCH  50  52
BRANCH  50  54
ATOM     54  C8  KDA d          27.852   1.284   4.134  0.00  0.00     0.043 C 
ATOM     55  H24 KDA d          27.105   1.346   4.939  0.00  0.00     0.078 H 
ATOM     56  H25 KDA d          27.719   2.131   3.445  0.00  0.00     0.078 H 
BRANCH  54  57
ATOM     57  O8  KDA d          29.168   1.349   4.708  0.00  0.00    -0.398 OA
ATOM     58  H26 KDA d          29.719   0.685   4.311  0.00  0.00     0.209 HD
ENDBRANCH  54  57
ENDBRANCH  50  54
ENDBRANCH  42  50
ENDBRANCH  35  36
ENDBRANCH  32  35
ENDBRANCH   1  32
TORSDOF 16
ENDMDL
MODEL 5
REMARK VINA RESULT:      -5.3      2.326      6.273
REMARK  16 active torsions:
REMARK  status: ('A' for Active; 'I' for Inactive)
REMARK    1  A    between atoms: C1_1  and  C2_4 
REMARK    2  A    between atoms: C2_4  and  O2_16 
REMARK    3  A    between atoms: C4_6  and  O4_7 
REMARK    4  A    between atoms: C5_8  and  O5_9 
REMARK    5  A    between atoms: C6_10  and  C7_12 
REMARK    6  A    between atoms: C7_12  and  O7_13 
REMARK    7  A    between atoms: C7_12  and  C8_14 
REMARK    8  A    between atoms: C8_14  and  O8_15 
REMARK    9  A    between atoms: O8_15  and  C2_20 
REMARK   10  A    between atoms: O2_16  and  C9_17 
REMARK   11  A    between atoms: C10_18  and  C11_19 
REMARK   12  A    between atoms: C2_20  and  C1_21 
REMARK   13  A    between atoms: C6_27  and  C7_29 
REMARK   14  A    between atoms: C7_29  and  O7_30 
REMARK   15  A    between atoms: C7_29  and  C8_31 
REMARK   16  A    between atoms: C8_31  and  O8_32 
ROOT
ATOM      1  C7  KDA d          28.272  -5.744   1.624  0.00  0.00     0.083 C 
ATOM      2  H8  KDA d          27.825  -6.283   0.775  0.00  0.00     0.090 H 
ENDROOT
BRANCH   1   3
ATOM      3  C6  KDA d          28.615  -4.319   1.207  0.00  0.00     0.096 C 
ATOM      4  C5  KDA d          27.536  -3.587   0.383  0.00  0.00     0.088 C 
ATOM      5  C4  KDA d          28.061  -2.200  -0.041  0.00  0.00     0.068 C 
ATOM      6  H5  KDA d          26.627  -3.453   0.988  0.00  0.00     0.091 H 
ATOM      7  C3  KDA d          29.452  -2.225  -0.708  0.00  0.00     0.024 C 
ATOM      8  H3  KDA d          28.128  -1.581   0.866  0.00  0.00     0.087 H 
ATOM      9  C2  KDA d          30.414  -3.139   0.087  0.00  0.00     0.262 C 
ATOM     10  H1  KDA d          29.356  -2.607  -1.735  0.00  0.00     0.045 H 
ATOM     11  H2  KDA d          29.861  -1.204  -0.733  0.00  0.00     0.045 H 
ATOM     12  O6  KDA d          29.827  -4.399   0.408  0.00  0.00    -0.335 OA
ATOM     13  H7  KDA d          28.806  -3.730   2.116  0.00  0.00     0.091 H 
BRANCH   4  14
ATOM     14  O5  KDA d          27.235  -4.440  -0.762  0.00  0.00    -0.390 OA
ATOM     15  H6  KDA d          26.905  -3.906  -1.475  0.00  0.00     0.210 HD
ENDBRANCH   4  14
BRANCH   5  16
ATOM     16  O4  KDA d          27.160  -1.576  -0.958  0.00  0.00    -0.393 OA
ATOM     17  H4  KDA d          26.806  -2.232  -1.547  0.00  0.00     0.210 HD
ENDBRANCH   5  16
BRANCH   9  18
ATOM     18  C1  KDA d          31.656  -3.328  -0.810  0.00  0.00     0.239 C 
ATOM     19  O1A KDA d          31.611  -2.873  -1.977  0.00  0.00    -0.644 OA
ATOM     20  O1B KDA d          32.624  -3.936  -0.289  0.00  0.00    -0.644 OA
ENDBRANCH   9  18
BRANCH   9  21
ATOM     21  O2  KDA d          30.797  -2.448   1.321  0.00  0.00    -0.317 OA
BRANCH  21  22
ATOM     22  C9  KDA d          31.122  -1.152   0.980  0.00  0.00     0.013 C 
ATOM     23  C10 KDA d          31.215  -0.094   1.877  0.00  0.00    -0.086 C 
ATOM     24  H13 KDA d          31.435   0.903   1.495  0.00  0.00     0.079 H 
ATOM     25  H12 KDA d          31.319  -0.941  -0.070  0.00  0.00     0.122 H 
BRANCH  23  26
ATOM     26  C11 KDA d          31.039  -0.264   3.230  0.00  0.00    -0.058 C 
ATOM     27  H14 KDA d          32.006  -0.149   3.742  0.00  0.00     0.032 H 
ATOM     28  H15 KDA d          30.638  -1.269   3.424  0.00  0.00     0.032 H 
ATOM     29  H16 KDA d          30.333   0.491   3.606  0.00  0.00     0.032 H 
ENDBRANCH  23  26
ENDBRANCH  21  22
ENDBRANCH   9  21
ENDBRANCH   1   3
BRANCH   1  30
ATOM     30  O7  KDA d          27.349  -5.691   2.718  0.00  0.00    -0.391 OA
ATOM     31  H9  KDA d          27.526  -4.920   3.244  0.00  0.00     0.210 HD
ENDBRANCH   1  30
BRANCH   1  32
ATOM     32  C8  KDA d          29.532  -6.472   2.096  0.00  0.00     0.050 C 
ATOM     33  H10 KDA d          30.430  -5.860   1.924  0.00  0.00     0.078 H 
ATOM     34  H11 KDA d          29.645  -7.439   1.585  0.00  0.00     0.078 H 
BRANCH  32  35
ATOM     35  O8  KDA d          29.290  -6.659   3.527  0.00  0.00    -0.341 OA
BRANCH  35  36
ATOM     36  C2  KDA d          30.170  -5.876   4.401  0.00  0.00     0.276 C 
ATOM     37  C3  KDA d          30.170  -6.392   5.698  0.00  0.00    -0.036 C 
ATOM     38  C4  KDA d          29.609  -5.746   6.822  0.00  0.00    -0.099 C 
ATOM     39  H17 KDA d          30.637  -7.364   5.855  0.00  0.00     0.085 H 
ATOM     40  C5  KDA d          28.971  -4.502   6.737  0.00  0.00    -0.023 C 
ATOM     41  H18 KDA d          29.676  -6.234   7.793  0.00  0.00     0.076 H 
ATOM     42  C6  KDA d          28.655  -4.132   5.288  0.00  0.00     0.072 C 
ATOM     43  H19 KDA d          29.628  -3.732   7.168  0.00  0.00     0.042 H 
ATOM     44  H20 KDA d          28.031  -4.543   7.308  0.00  0.00     0.042 H 
ATOM     45  O6  KDA d          29.758  -4.488   4.413  0.00  0.00    -0.335 OA
ATOM     46  H21 KDA d          27.742  -4.671   4.998  0.00  0.00     0.088 H 
BRANCH  36  47
ATOM     47  C1  KDA d          31.600  -5.936   3.849  0.00  0.00     0.243 C 
ATOM     48  O1B KDA d          32.025  -4.922   3.307  0.00  0.00    -0.644 OA
ATOM     49  O1A KDA d          32.225  -7.005   3.993  0.00  0.00    -0.644 OA
ENDBRANCH  36  47
BRANCH  42  50
ATOM     50  C7  KDA d          28.483  -2.633   4.978  0.00  0.00     0.081 C 
ATOM     51  H22 KDA d          29.357  -2.299   4.399  0.00  0.00     0.090 H 
BRANCH  50  52
ATOM     52  O7  KDA d          28.436  -1.915   6.202  0.00  0.00    -0.391 OA
ATOM     53  H23 KDA d          27.574  -2.009   6.590  0.00  0.00     0.210 HD
ENDBRANCH  50  52
BRANCH  50  54
ATOM     54  C8  KDA d          27.232  -2.317   4.171  0.00  0.00     0.043 C 
ATOM     55  H24 KDA d          27.516  -2.132   3.125  0.00  0.00     0.078 H 
ATOM     56  H25 KDA d          26.753  -1.417   4.586  0.00  0.00     0.078 H 
BRANCH  54  57
ATOM     57  O8  KDA d          26.298  -3.409   4.219  0.00  0.00    -0.398 OA
ATOM     58  H26 KDA d          25.438  -3.100   3.960  0.00  0.00     0.209 HD
ENDBRANCH  54  57
ENDBRANCH  50  54
ENDBRANCH  42  50
ENDBRANCH  35  36
ENDBRANCH  32  35
ENDBRANCH   1  32
TORSDOF 16
ENDMDL
MODEL 6
REMARK VINA RESULT:      -5.2      2.069      4.395
REMARK  16 active torsions:
REMARK  status: ('A' for Active; 'I' for Inactive)
REMARK    1  A    between atoms: C1_1  and  C2_4 
REMARK    2  A    between atoms: C2_4  and  O2_16 
REMARK    3  A    between atoms: C4_6  and  O4_7 
REMARK    4  A    between atoms: C5_8  and  O5_9 
REMARK    5  A    between atoms: C6_10  and  C7_12 
REMARK    6  A    between atoms: C7_12  and  O7_13 
REMARK    7  A    between atoms: C7_12  and  C8_14 
REMARK    8  A    between atoms: C8_14  and  O8_15 
REMARK    9  A    between atoms: O8_15  and  C2_20 
REMARK   10  A    between atoms: O2_16  and  C9_17 
REMARK   11  A    between atoms: C10_18  and  C11_19 
REMARK   12  A    between atoms: C2_20  and  C1_21 
REMARK   13  A    between atoms: C6_27  and  C7_29 
REMARK   14  A    between atoms: C7_29  and  O7_30 
REMARK   15  A    between atoms: C7_29  and  C8_31 
REMARK   16  A    between atoms: C8_31  and  O8_32 
ROOT
ATOM      1  C7  KDA d          31.275  -0.709   1.722  0.00  0.00     0.083 C 
ATOM      2  H8  KDA d          32.357  -0.885   1.823  0.00  0.00     0.090 H 
ENDROOT
BRANCH   1   3
ATOM      3  C6  KDA d          30.609  -0.791   3.090  0.00  0.00     0.096 C 
ATOM      4  C5  KDA d          30.266   0.563   3.747  0.00  0.00     0.088 C 
ATOM      5  C4  KDA d          29.686   0.322   5.157  0.00  0.00     0.068 C 
ATOM      6  H5  KDA d          29.517   1.095   3.142  0.00  0.00     0.091 H 
ATOM      7  C3  KDA d          30.541  -0.609   6.042  0.00  0.00     0.024 C 
ATOM      8  H3  KDA d          28.696  -0.140   5.032  0.00  0.00     0.087 H 
ATOM      9  C2  KDA d          30.999  -1.848   5.238  0.00  0.00     0.262 C 
ATOM     10  H1  KDA d          31.426  -0.060   6.397  0.00  0.00     0.045 H 
ATOM     11  H2  KDA d          29.943  -0.938   6.905  0.00  0.00     0.045 H 
ATOM     12  O6  KDA d          31.531  -1.502   3.960  0.00  0.00    -0.335 OA
ATOM     13  H7  KDA d          29.677  -1.364   2.986  0.00  0.00     0.091 H 
BRANCH   4  14
ATOM     14  O5  KDA d          31.502   1.336   3.780  0.00  0.00    -0.390 OA
ATOM     15  H6  KDA d          31.354   2.148   4.251  0.00  0.00     0.210 HD
ENDBRANCH   4  14
BRANCH   5  16
ATOM     16  O4  KDA d          29.533   1.556   5.859  0.00  0.00    -0.393 OA
ATOM     17  H4  KDA d          28.627   1.655   6.129  0.00  0.00     0.210 HD
ENDBRANCH   5  16
BRANCH   9  18
ATOM     18  C1  KDA d          32.069  -2.543   6.106  0.00  0.00     0.239 C 
ATOM     19  O1A KDA d          32.417  -1.982   7.171  0.00  0.00    -0.644 OA
ATOM     20  O1B KDA d          32.515  -3.632   5.663  0.00  0.00    -0.644 OA
ENDBRANCH   9  18
BRANCH   9  21
ATOM     21  O2  KDA d          29.849  -2.740   5.064  0.00  0.00    -0.317 OA
BRANCH  21  22
ATOM     22  C9  KDA d          29.252  -2.882   6.300  0.00  0.00     0.013 C 
ATOM     23  C10 KDA d          28.811  -4.087   6.835  0.00  0.00    -0.086 C 
ATOM     24  H13 KDA d          28.312  -4.082   7.804  0.00  0.00     0.079 H 
ATOM     25  H12 KDA d          29.116  -1.984   6.900  0.00  0.00     0.122 H 
BRANCH  23  26
ATOM     26  C11 KDA d          28.985  -5.285   6.183  0.00  0.00    -0.058 C 
ATOM     27  H14 KDA d          29.013  -5.110   5.097  0.00  0.00     0.032 H 
ATOM     28  H15 KDA d          28.150  -5.958   6.425  0.00  0.00     0.032 H 
ATOM     29  H16 KDA d          29.931  -5.744   6.505  0.00  0.00     0.032 H 
ENDBRANCH  23  26
ENDBRANCH  21  22
ENDBRANCH   9  21
ENDBRANCH   1   3
BRANCH   1  30
ATOM     30  O7  KDA d          31.035   0.593   1.173  0.00  0.00    -0.391 OA
ATOM     31  H9  KDA d          30.337   0.541   0.532  0.00  0.00     0.210 HD
ENDBRANCH   1  30
BRANCH   1  32
ATOM     32  C8  KDA d          30.667  -1.747   0.778  0.00  0.00     0.050 C 
ATOM     33  H10 KDA d          31.148  -2.727   0.904  0.00  0.00     0.078 H 
ATOM     34  H11 KDA d          30.756  -1.427  -0.271  0.00  0.00     0.078 H 
BRANCH  32  35
ATOM     35  O8  KDA d          29.265  -1.792   1.195  0.00  0.00    -0.341 OA
BRANCH  35  36
ATOM     36  C2  KDA d          28.504  -2.921   0.649  0.00  0.00     0.276 C 
ATOM     37  C3  KDA d          27.202  -2.935   1.154  0.00  0.00    -0.036 C 
ATOM     38  C4  KDA d          26.694  -3.904   2.047  0.00  0.00    -0.099 C 
ATOM     39  H17 KDA d          26.529  -2.139   0.836  0.00  0.00     0.085 H 
ATOM     40  C5  KDA d          27.472  -4.963   2.534  0.00  0.00    -0.023 C 
ATOM     41  H18 KDA d          25.657  -3.826   2.369  0.00  0.00     0.076 H 
ATOM     42  C6  KDA d          28.960  -4.730   2.275  0.00  0.00     0.072 C 
ATOM     43  H19 KDA d          27.164  -5.893   2.034  0.00  0.00     0.042 H 
ATOM     44  H20 KDA d          27.308  -5.057   3.618  0.00  0.00     0.042 H 
ATOM     45  O6  KDA d          29.172  -4.170   0.953  0.00  0.00    -0.335 OA
ATOM     46  H21 KDA d          29.330  -4.043   3.050  0.00  0.00     0.088 H 
BRANCH  36  47
ATOM     47  C1  KDA d          28.436  -2.784  -0.877  0.00  0.00     0.243 C 
ATOM     48  O1B KDA d          27.593  -2.016  -1.325  0.00  0.00    -0.644 OA
ATOM     49  O1A KDA d          29.242  -3.457  -1.549  0.00  0.00    -0.644 OA
ENDBRANCH  36  47
BRANCH  42  50
ATOM     50  C7  KDA d          29.859  -5.981   2.232  0.00  0.00     0.081 C 
ATOM     51  H22 KDA d          29.839  -6.382   1.208  0.00  0.00     0.090 H 
BRANCH  50  52
ATOM     52  O7  KDA d          29.334  -6.953   3.122  0.00  0.00    -0.391 OA
ATOM     53  H23 KDA d          29.976  -7.144   3.796  0.00  0.00     0.210 HD
ENDBRANCH  50  52
BRANCH  50  54
ATOM     54  C8  KDA d          31.309  -5.702   2.603  0.00  0.00     0.043 C 
ATOM     55  H24 KDA d          31.946  -5.887   1.725  0.00  0.00     0.078 H 
ATOM     56  H25 KDA d          31.607  -6.375   3.420  0.00  0.00     0.078 H 
BRANCH  54  57
ATOM     57  O8  KDA d          31.480  -4.340   3.030  0.00  0.00    -0.398 OA
ATOM     58  H26 KDA d          31.126  -3.756   2.369  0.00  0.00     0.209 HD
ENDBRANCH  54  57
ENDBRANCH  50  54
ENDBRANCH  42  50
ENDBRANCH  35  36
ENDBRANCH  32  35
ENDBRANCH   1  32
TORSDOF 16
ENDMDL
MODEL 7
REMARK VINA RESULT:      -5.1      2.164      5.356
REMARK  16 active torsions:
REMARK  status: ('A' for Active; 'I' for Inactive)
REMARK    1  A    between atoms: C1_1  and  C2_4 
REMARK    2  A    between atoms: C2_4  and  O2_16 
REMARK    3  A    between atoms: C4_6  and  O4_7 
REMARK    4  A    between atoms: C5_8  and  O5_9 
REMARK    5  A    between atoms: C6_10  and  C7_12 
REMARK    6  A    between atoms: C7_12  and  O7_13 
REMARK    7  A    between atoms: C7_12  and  C8_14 
REMARK    8  A    between atoms: C8_14  and  O8_15 
REMARK    9  A    between atoms: O8_15  and  C2_20 
REMARK   10  A    between atoms: O2_16  and  C9_17 
REMARK   11  A    between atoms: C10_18  and  C11_19 
REMARK   12  A    between atoms: C2_20  and  C1_21 
REMARK   13  A    between atoms: C6_27  and  C7_29 
REMARK   14  A    between atoms: C7_29  and  O7_30 
REMARK   15  A    between atoms: C7_29  and  C8_31 
REMARK   16  A    between atoms: C8_31  and  O8_32 
ROOT
ATOM      1  C7  KDA d          27.926  -4.620   2.681  0.00  0.00     0.083 C 
ATOM      2  H8  KDA d          26.939  -4.144   2.779  0.00  0.00     0.090 H 
ENDROOT
BRANCH   1   3
ATOM      3  C6  KDA d          28.667  -4.551   4.011  0.00  0.00     0.096 C 
ATOM      4  C5  KDA d          28.668  -5.851   4.842  0.00  0.00     0.088 C 
ATOM      5  C4  KDA d          29.371  -5.601   6.193  0.00  0.00     0.068 C 
ATOM      6  H5  KDA d          29.208  -6.642   4.302  0.00  0.00     0.091 H 
ATOM      7  C3  KDA d          28.853  -4.365   6.957  0.00  0.00     0.024 C 
ATOM      8  H3  KDA d          30.440  -5.450   5.985  0.00  0.00     0.087 H 
ATOM      9  C2  KDA d          28.702  -3.161   5.998  0.00  0.00     0.262 C 
ATOM     10  H1  KDA d          27.874  -4.597   7.402  0.00  0.00     0.045 H 
ATOM     11  H2  KDA d          29.565  -4.106   7.754  0.00  0.00     0.045 H 
ATOM     12  O6  KDA d          28.023  -3.507   4.792  0.00  0.00    -0.335 OA
ATOM     13  H7  KDA d          29.712  -4.275   3.810  0.00  0.00     0.091 H 
BRANCH   4  14
ATOM     14  O5  KDA d          27.272  -6.242   5.007  0.00  0.00    -0.390 OA
ATOM     15  H6  KDA d          26.756  -5.478   5.237  0.00  0.00     0.210 HD
ENDBRANCH   4  14
BRANCH   5  16
ATOM     16  O4  KDA d          29.224  -6.729   7.056  0.00  0.00    -0.393 OA
ATOM     17  H4  KDA d          29.780  -6.617   7.818  0.00  0.00     0.210 HD
ENDBRANCH   5  16
BRANCH   9  18
ATOM     18  C1  KDA d          27.912  -2.092   6.782  0.00  0.00     0.239 C 
ATOM     19  O1A KDA d          28.061  -0.891   6.452  0.00  0.00    -0.644 OA
ATOM     20  O1B KDA d          27.175  -2.520   7.706  0.00  0.00    -0.644 OA
ENDBRANCH   9  18
BRANCH   9  21
ATOM     21  O2  KDA d          30.039  -2.651   5.679  0.00  0.00    -0.317 OA
BRANCH  21  22
ATOM     22  C9  KDA d          30.752  -2.612   6.859  0.00  0.00     0.013 C 
ATOM     23  C10 KDA d          31.572  -1.561   7.257  0.00  0.00    -0.086 C 
ATOM     24  H13 KDA d          32.127  -1.651   8.190  0.00  0.00     0.079 H 
ATOM     25  H12 KDA d          30.668  -3.466   7.528  0.00  0.00     0.122 H 
BRANCH  23  26
ATOM     26  C11 KDA d          31.705  -0.414   6.511  0.00  0.00    -0.058 C 
ATOM     27  H14 KDA d          31.306  -0.586   5.500  0.00  0.00     0.032 H 
ATOM     28  H15 KDA d          32.768  -0.142   6.443  0.00  0.00     0.032 H 
ATOM     29  H16 KDA d          31.147   0.403   6.992  0.00  0.00     0.032 H 
ENDBRANCH  23  26
ENDBRANCH  21  22
ENDBRANCH   9  21
ENDBRANCH   1   3
BRANCH   1  30
ATOM     30  O7  KDA d          27.777  -5.996   2.311  0.00  0.00    -0.391 OA
ATOM     31  H9  KDA d          27.001  -6.096   1.773  0.00  0.00     0.210 HD
ENDBRANCH   1  30
BRANCH   1  32
ATOM     32  C8  KDA d          28.736  -3.916   1.590  0.00  0.00     0.050 C 
ATOM     33  H10 KDA d          28.894  -4.577   0.726  0.00  0.00     0.078 H 
ATOM     34  H11 KDA d          29.708  -3.578   1.976  0.00  0.00     0.078 H 
BRANCH  32  35
ATOM     35  O8  KDA d          27.889  -2.777   1.232  0.00  0.00    -0.341 OA
BRANCH  35  36
ATOM     36  C2  KDA d          28.622  -1.535   0.963  0.00  0.00     0.276 C 
ATOM     37  C3  KDA d          29.971  -1.671   1.295  0.00  0.00    -0.036 C 
ATOM     38  C4  KDA d          30.606  -1.012   2.371  0.00  0.00    -0.099 C 
ATOM     39  H17 KDA d          30.578  -2.333   0.679  0.00  0.00     0.085 H 
ATOM     40  C5  KDA d          29.923  -0.149   3.237  0.00  0.00    -0.023 C 
ATOM     41  H18 KDA d          31.670  -1.181   2.533  0.00  0.00     0.076 H 
ATOM     42  C6  KDA d          28.408  -0.297   3.095  0.00  0.00     0.072 C 
ATOM     43  H19 KDA d          30.204   0.889   3.004  0.00  0.00     0.042 H 
ATOM     44  H20 KDA d          30.209  -0.383   4.273  0.00  0.00     0.042 H 
ATOM     45  O6  KDA d          28.032  -0.436   1.699  0.00  0.00    -0.335 OA
ATOM     46  H21 KDA d          28.105  -1.185   3.668  0.00  0.00     0.088 H 
BRANCH  36  47
ATOM     47  C1  KDA d          28.515  -1.209  -0.532  0.00  0.00     0.243 C 
ATOM     48  O1B KDA d          29.535  -0.815  -1.085  0.00  0.00    -0.644 OA
ATOM     49  O1A KDA d          27.405  -1.372  -1.075  0.00  0.00    -0.644 OA
ENDBRANCH  36  47
BRANCH  42  50
ATOM     50  C7  KDA d          27.551   0.908   3.530  0.00  0.00     0.081 C 
ATOM     51  H22 KDA d          27.418   1.566   2.658  0.00  0.00     0.090 H 
BRANCH  50  52
ATOM     52  O7  KDA d          28.241   1.617   4.547  0.00  0.00    -0.391 OA
ATOM     53  H23 KDA d          28.509   2.466   4.213  0.00  0.00     0.210 HD
ENDBRANCH  50  52
BRANCH  50  54
ATOM     54  C8  KDA d          26.172   0.520   4.045  0.00  0.00     0.043 C 
ATOM     55  H24 KDA d          25.409   0.912   3.357  0.00  0.00     0.078 H 
ATOM     56  H25 KDA d          26.025   0.958   5.043  0.00  0.00     0.078 H 
BRANCH  54  57
ATOM     57  O8  KDA d          26.037  -0.908   4.134  0.00  0.00    -0.398 OA
ATOM     58  H26 KDA d          26.838  -1.320   3.832  0.00  0.00     0.209 HD
ENDBRANCH  54  57
ENDBRANCH  50  54
ENDBRANCH  42  50
ENDBRANCH  35  36
ENDBRANCH  32  35
ENDBRANCH   1  32
TORSDOF 16
ENDMDL
MODEL 8
REMARK VINA RESULT:      -5.0      1.675      3.522
REMARK  16 active torsions:
REMARK  status: ('A' for Active; 'I' for Inactive)
REMARK    1  A    between atoms: C1_1  and  C2_4 
REMARK    2  A    between atoms: C2_4  and  O2_16 
REMARK    3  A    between atoms: C4_6  and  O4_7 
REMARK    4  A    between atoms: C5_8  and  O5_9 
REMARK    5  A    between atoms: C6_10  and  C7_12 
REMARK    6  A    between atoms: C7_12  and  O7_13 
REMARK    7  A    between atoms: C7_12  and  C8_14 
REMARK    8  A    between atoms: C8_14  and  O8_15 
REMARK    9  A    between atoms: O8_15  and  C2_20 
REMARK   10  A    between atoms: O2_16  and  C9_17 
REMARK   11  A    between atoms: C10_18  and  C11_19 
REMARK   12  A    between atoms: C2_20  and  C1_21 
REMARK   13  A    between atoms: C6_27  and  C7_29 
REMARK   14  A    between atoms: C7_29  and  O7_30 
REMARK   15  A    between atoms: C7_29  and  C8_31 
REMARK   16  A    between atoms: C8_31  and  O8_32 
ROOT
ATOM      1  C7  KDA d          30.863  -1.563   3.651  0.00  0.00     0.083 C 
ATOM      2  H8  KDA d          31.649  -1.138   4.293  0.00  0.00     0.090 H 
ENDROOT
BRANCH   1   3
ATOM      3  C6  KDA d          29.538  -1.584   4.404  0.00  0.00     0.096 C 
ATOM      4  C5  KDA d          28.630  -2.800   4.124  0.00  0.00     0.088 C 
ATOM      5  C4  KDA d          27.296  -2.635   4.880  0.00  0.00     0.068 C 
ATOM      6  H5  KDA d          29.121  -3.722   4.467  0.00  0.00     0.091 H 
ATOM      7  C3  KDA d          26.607  -1.271   4.660  0.00  0.00     0.024 C 
ATOM      8  H3  KDA d          27.510  -2.740   5.954  0.00  0.00     0.087 H 
ATOM      9  C2  KDA d          27.638  -0.123   4.772  0.00  0.00     0.262 C 
ATOM     10  H1  KDA d          26.151  -1.252   3.659  0.00  0.00     0.045 H 
ATOM     11  H2  KDA d          25.826  -1.132   5.422  0.00  0.00     0.045 H 
ATOM     12  O6  KDA d          28.822  -0.378   4.019  0.00  0.00    -0.335 OA
ATOM     13  H7  KDA d          29.753  -1.562   5.482  0.00  0.00     0.091 H 
BRANCH   4  14
ATOM     14  O5  KDA d          28.445  -2.858   2.678  0.00  0.00    -0.390 OA
ATOM     15  H6  KDA d          29.225  -2.531   2.247  0.00  0.00     0.210 HD
ENDBRANCH   4  14
BRANCH   5  16
ATOM     16  O4  KDA d          26.366  -3.648   4.494  0.00  0.00    -0.393 OA
ATOM     17  H4  KDA d          26.613  -3.996   3.645  0.00  0.00     0.210 HD
ENDBRANCH   5  16
BRANCH   9  18
ATOM     18  C1  KDA d          26.921   1.140   4.250  0.00  0.00     0.239 C 
ATOM     19  O1A KDA d          25.964   1.593   4.921  0.00  0.00    -0.644 OA
ATOM     20  O1B KDA d          27.360   1.617   3.172  0.00  0.00    -0.644 OA
ENDBRANCH   9  18
BRANCH   9  21
ATOM     21  O2  KDA d          27.983   0.055   6.185  0.00  0.00    -0.317 OA
BRANCH  21  22
ATOM     22  C9  KDA d          28.793   1.168   6.271  0.00  0.00     0.013 C 
ATOM     23  C10 KDA d          30.028   1.205   6.908  0.00  0.00    -0.086 C 
ATOM     24  H13 KDA d          30.567   2.150   6.957  0.00  0.00     0.079 H 
ATOM     25  H12 KDA d          28.438   2.087   5.806  0.00  0.00     0.122 H 
BRANCH  23  26
ATOM     26  C11 KDA d          30.590   0.088   7.479  0.00  0.00    -0.058 C 
ATOM     27  H14 KDA d          30.904  -0.609   6.688  0.00  0.00     0.032 H 
ATOM     28  H15 KDA d          29.851  -0.403   8.129  0.00  0.00     0.032 H 
ATOM     29  H16 KDA d          31.465   0.383   8.077  0.00  0.00     0.032 H 
ENDBRANCH  23  26
ENDBRANCH  21  22
ENDBRANCH   9  21
ENDBRANCH   1   3
BRANCH   1  30
ATOM     30  O7  KDA d          30.706  -0.769   2.470  0.00  0.00    -0.391 OA
ATOM     31  H9  KDA d          31.182   0.047   2.572  0.00  0.00     0.210 HD
ENDBRANCH   1  30
BRANCH   1  32
ATOM     32  C8  KDA d          31.249  -2.981   3.227  0.00  0.00     0.050 C 
ATOM     33  H10 KDA d          30.360  -3.620   3.127  0.00  0.00     0.078 H 
ATOM     34  H11 KDA d          31.945  -3.434   3.948  0.00  0.00     0.078 H 
BRANCH  32  35
ATOM     35  O8  KDA d          31.897  -2.774   1.931  0.00  0.00    -0.341 OA
BRANCH  35  36
ATOM     36  C2  KDA d          31.284  -3.511   0.820  0.00  0.00     0.276 C 
ATOM     37  C3  KDA d          32.157  -3.591  -0.266  0.00  0.00    -0.036 C 
ATOM     38  C4  KDA d          31.973  -2.928  -1.499  0.00  0.00    -0.099 C 
ATOM     39  H17 KDA d          33.046  -4.211  -0.154  0.00  0.00     0.085 H 
ATOM     40  C5  KDA d          30.876  -2.094  -1.751  0.00  0.00    -0.023 C 
ATOM     41  H18 KDA d          32.713  -3.070  -2.285  0.00  0.00     0.076 H 
ATOM     42  C6  KDA d          30.143  -1.727  -0.460  0.00  0.00     0.072 C 
ATOM     43  H19 KDA d          30.177  -2.614  -2.422  0.00  0.00     0.042 H 
ATOM     44  H20 KDA d          31.231  -1.172  -2.234  0.00  0.00     0.042 H 
ATOM     45  O6  KDA d          30.044  -2.877   0.421  0.00  0.00    -0.335 OA
ATOM     46  H21 KDA d          30.706  -0.916   0.023  0.00  0.00     0.088 H 
BRANCH  36  47
ATOM     47  C1  KDA d          30.953  -4.933   1.290  0.00  0.00     0.243 C 
ATOM     48  O1B KDA d          29.822  -5.121   1.725  0.00  0.00    -0.644 OA
ATOM     49  O1A KDA d          31.851  -5.792   1.193  0.00  0.00    -0.644 OA
ENDBRANCH  36  47
BRANCH  42  50
ATOM     50  C7  KDA d          28.665  -1.312  -0.597  0.00  0.00     0.081 C 
ATOM     51  H22 KDA d          28.581  -0.619  -1.448  0.00  0.00     0.090 H 
BRANCH  50  52
ATOM     52  O7  KDA d          28.267  -0.641   0.588  0.00  0.00    -0.391 OA
ATOM     53  H23 KDA d          28.427  -1.202   1.338  0.00  0.00     0.210 HD
ENDBRANCH  50  52
BRANCH  50  54
ATOM     54  C8  KDA d          27.724  -2.482  -0.844  0.00  0.00     0.043 C 
ATOM     55  H24 KDA d          28.313  -3.359  -1.148  0.00  0.00     0.078 H 
ATOM     56  H25 KDA d          27.021  -2.216  -1.647  0.00  0.00     0.078 H 
BRANCH  54  57
ATOM     57  O8  KDA d          26.980  -2.805   0.343  0.00  0.00    -0.398 OA
ATOM     58  H26 KDA d          27.088  -2.110   0.982  0.00  0.00     0.209 HD
ENDBRANCH  54  57
ENDBRANCH  50  54
ENDBRANCH  42  50
ENDBRANCH  35  36
ENDBRANCH  32  35
ENDBRANCH   1  32
TORSDOF 16
ENDMDL
MODEL 9
REMARK VINA RESULT:      -5.0      2.115      5.907
REMARK  16 active torsions:
REMARK  status: ('A' for Active; 'I' for Inactive)
REMARK    1  A    between atoms: C1_1  and  C2_4 
REMARK    2  A    between atoms: C2_4  and  O2_16 
REMARK    3  A    between atoms: C4_6  and  O4_7 
REMARK    4  A    between atoms: C5_8  and  O5_9 
REMARK    5  A    between atoms: C6_10  and  C7_12 
REMARK    6  A    between atoms: C7_12  and  O7_13 
REMARK    7  A    between atoms: C7_12  and  C8_14 
REMARK    8  A    between atoms: C8_14  and  O8_15 
REMARK    9  A    between atoms: O8_15  and  C2_20 
REMARK   10  A    between atoms: O2_16  and  C9_17 
REMARK   11  A    between atoms: C10_18  and  C11_19 
REMARK   12  A    between atoms: C2_20  and  C1_21 
REMARK   13  A    between atoms: C6_27  and  C7_29 
REMARK   14  A    between atoms: C7_29  and  O7_30 
REMARK   15  A    between atoms: C7_29  and  C8_31 
REMARK   16  A    between atoms: C8_31  and  O8_32 
ROOT
ATOM      1  C7  KDA d          28.161  -0.608   2.460  0.00  0.00     0.083 C 
ATOM      2  H8  KDA d          27.395   0.043   2.013  0.00  0.00     0.090 H 
ENDROOT
BRANCH   1   3
ATOM      3  C6  KDA d          28.663  -1.603   1.421  0.00  0.00     0.096 C 
ATOM      4  C5  KDA d          27.755  -1.797   0.189  0.00  0.00     0.088 C 
ATOM      5  C4  KDA d          28.345  -2.894  -0.722  0.00  0.00     0.068 C 
ATOM      6  H5  KDA d          27.690  -0.859  -0.381  0.00  0.00     0.091 H 
ATOM      7  C3  KDA d          28.699  -4.204   0.012  0.00  0.00     0.024 C 
ATOM      8  H3  KDA d          29.267  -2.492  -1.167  0.00  0.00     0.087 H 
ATOM      9  C2  KDA d          29.442  -3.898   1.333  0.00  0.00     0.262 C 
ATOM     10  H1  KDA d          27.774  -4.755   0.236  0.00  0.00     0.045 H 
ATOM     11  H2  KDA d          29.344  -4.818  -0.634  0.00  0.00     0.045 H 
ATOM     12  O6  KDA d          28.796  -2.882   2.099  0.00  0.00    -0.335 OA
ATOM     13  H7  KDA d          29.648  -1.264   1.067  0.00  0.00     0.091 H 
BRANCH   4  14
ATOM     14  O5  KDA d          26.434  -2.149   0.696  0.00  0.00    -0.390 OA
ATOM     15  H6  KDA d          25.806  -2.130  -0.017  0.00  0.00     0.210 HD
ENDBRANCH   4  14
BRANCH   5  16
ATOM     16  O4  KDA d          27.433  -3.225  -1.771  0.00  0.00    -0.393 OA
ATOM     17  H4  KDA d          26.705  -2.615  -1.760  0.00  0.00     0.210 HD
ENDBRANCH   5  16
BRANCH   9  18
ATOM     18  C1  KDA d          29.480  -5.229   2.114  0.00  0.00     0.239 C 
ATOM     19  O1A KDA d          30.232  -5.302   3.114  0.00  0.00    -0.644 OA
ATOM     20  O1B KDA d          28.744  -6.148   1.672  0.00  0.00    -0.644 OA
ENDBRANCH   9  18
BRANCH   9  21
ATOM     21  O2  KDA d          30.808  -3.476   1.011  0.00  0.00    -0.317 OA
BRANCH  21  22
ATOM     22  C9  KDA d          31.317  -4.392   0.113  0.00  0.00     0.013 C 
ATOM     23  C10 KDA d          32.026  -4.066  -1.038  0.00  0.00    -0.086 C 
ATOM     24  H13 KDA d          32.346  -4.867  -1.703  0.00  0.00     0.079 H 
ATOM     25  H12 KDA d          31.152  -5.447   0.321  0.00  0.00     0.122 H 
BRANCH  23  26
ATOM     26  C11 KDA d          32.335  -2.766  -1.363  0.00  0.00    -0.058 C 
ATOM     27  H14 KDA d          33.165  -2.757  -2.086  0.00  0.00     0.032 H 
ATOM     28  H15 KDA d          32.633  -2.222  -0.455  0.00  0.00     0.032 H 
ATOM     29  H16 KDA d          31.455  -2.280  -1.810  0.00  0.00     0.032 H 
ENDBRANCH  23  26
ENDBRANCH  21  22
ENDBRANCH   9  21
ENDBRANCH   1   3
BRANCH   1  30
ATOM     30  O7  KDA d          29.270   0.175   2.917  0.00  0.00    -0.391 OA
ATOM     31  H9  KDA d          29.556   0.754   2.220  0.00  0.00     0.210 HD
ENDBRANCH   1  30
BRANCH   1  32
ATOM     32  C8  KDA d          27.574  -1.352   3.661  0.00  0.00     0.050 C 
ATOM     33  H10 KDA d          28.073  -2.321   3.807  0.00  0.00     0.078 H 
ATOM     34  H11 KDA d          26.494  -1.512   3.537  0.00  0.00     0.078 H 
BRANCH  32  35
ATOM     35  O8  KDA d          27.846  -0.447   4.777  0.00  0.00    -0.341 OA
BRANCH  35  36
ATOM     36  C2  KDA d          28.446  -1.091   5.951  0.00  0.00     0.276 C 
ATOM     37  C3  KDA d          28.762  -0.146   6.929  0.00  0.00    -0.036 C 
ATOM     38  C4  KDA d          30.075   0.216   7.305  0.00  0.00    -0.099 C 
ATOM     39  H17 KDA d          27.936   0.347   7.441  0.00  0.00     0.085 H 
ATOM     40  C5  KDA d          31.212  -0.341   6.707  0.00  0.00    -0.023 C 
ATOM     41  H18 KDA d          30.208   0.957   8.091  0.00  0.00     0.076 H 
ATOM     42  C6  KDA d          30.861  -1.077   5.414  0.00  0.00     0.072 C 
ATOM     43  H19 KDA d          31.673  -1.052   7.408  0.00  0.00     0.042 H 
ATOM     44  H20 KDA d          31.926   0.464   6.477  0.00  0.00     0.042 H 
ATOM     45  O6  KDA d          29.630  -1.831   5.567  0.00  0.00    -0.335 OA
ATOM     46  H21 KDA d          30.757  -0.324   4.619  0.00  0.00     0.088 H 
BRANCH  36  47
ATOM     47  C1  KDA d          27.439  -2.088   6.539  0.00  0.00     0.243 C 
ATOM     48  O1B KDA d          26.336  -1.645   6.838  0.00  0.00    -0.644 OA
ATOM     49  O1A KDA d          27.812  -3.270   6.666  0.00  0.00    -0.644 OA
ENDBRANCH  36  47
BRANCH  42  50
ATOM     50  C7  KDA d          31.842  -2.173   4.952  0.00  0.00     0.081 C 
ATOM     51  H22 KDA d          32.846  -1.728   4.884  0.00  0.00     0.090 H 
BRANCH  50  52
ATOM     52  O7  KDA d          31.447  -2.628   3.668  0.00  0.00    -0.391 OA
ATOM     53  H23 KDA d          31.350  -3.574   3.684  0.00  0.00     0.210 HD
ENDBRANCH  50  52
BRANCH  50  54
ATOM     54  C8  KDA d          31.915  -3.363   5.899  0.00  0.00     0.043 C 
ATOM     55  H24 KDA d          31.895  -2.998   6.936  0.00  0.00     0.078 H 
ATOM     56  H25 KDA d          32.854  -3.907   5.720  0.00  0.00     0.078 H 
BRANCH  54  57
ATOM     57  O8  KDA d          30.807  -4.255   5.692  0.00  0.00    -0.398 OA
ATOM     58  H26 KDA d          30.193  -4.167   6.411  0.00  0.00     0.209 HD
ENDBRANCH  54  57
ENDBRANCH  50  54
ENDBRANCH  42  50
ENDBRANCH  35  36
ENDBRANCH  32  35
ENDBRANCH   1  32
TORSDOF 16
ENDMDL
MODEL 10
REMARK VINA RESULT:      -4.9      2.391      6.748
REMARK  16 active torsions:
REMARK  status: ('A' for Active; 'I' for Inactive)
REMARK    1  A    between atoms: C1_1  and  C2_4 
REMARK    2  A    between atoms: C2_4  and  O2_16 
REMARK    3  A    between atoms: C4_6  and  O4_7 
REMARK    4  A    between atoms: C5_8  and  O5_9 
REMARK    5  A    between atoms: C6_10  and  C7_12 
REMARK    6  A    between atoms: C7_12  and  O7_13 
REMARK    7  A    between atoms: C7_12  and  C8_14 
REMARK    8  A    between atoms: C8_14  and  O8_15 
REMARK    9  A    between atoms: O8_15  and  C2_20 
REMARK   10  A    between atoms: O2_16  and  C9_17 
REMARK   11  A    between atoms: C10_18  and  C11_19 
REMARK   12  A    between atoms: C2_20  and  C1_21 
REMARK   13  A    between atoms: C6_27  and  C7_29 
REMARK   14  A    between atoms: C7_29  and  O7_30 
REMARK   15  A    between atoms: C7_29  and  C8_31 
REMARK   16  A    between atoms: C8_31  and  O8_32 
ROOT
ATOM      1  C7  KDA d          28.753  -5.405   1.746  0.00  0.00     0.083 C 
ATOM      2  H8  KDA d          29.152  -6.125   1.015  0.00  0.00     0.090 H 
ENDROOT
BRANCH   1   3
ATOM      3  C6  KDA d          28.921  -3.986   1.217  0.00  0.00     0.096 C 
ATOM      4  C5  KDA d          27.727  -3.426   0.417  0.00  0.00     0.088 C 
ATOM      5  C4  KDA d          28.078  -2.026  -0.128  0.00  0.00     0.068 C 
ATOM      6  H5  KDA d          26.844  -3.342   1.068  0.00  0.00     0.091 H 
ATOM      7  C3  KDA d          29.425  -1.958  -0.877  0.00  0.00     0.024 C 
ATOM      8  H3  KDA d          28.131  -1.342   0.731  0.00  0.00     0.087 H 
ATOM      9  C2  KDA d          30.521  -2.713  -0.087  0.00  0.00     0.262 C 
ATOM     10  H1  KDA d          29.312  -2.420  -1.869  0.00  0.00     0.045 H 
ATOM     11  H2  KDA d          29.723  -0.906  -0.994  0.00  0.00     0.045 H 
ATOM     12  O6  KDA d          30.088  -4.000   0.350  0.00  0.00    -0.335 OA
ATOM     13  H7  KDA d          29.100  -3.318   2.073  0.00  0.00     0.091 H 
BRANCH   4  14
ATOM     14  O5  KDA d          27.453  -4.384  -0.649  0.00  0.00    -0.390 OA
ATOM     15  H6  KDA d          27.489  -3.940  -1.488  0.00  0.00     0.210 HD
ENDBRANCH   4  14
BRANCH   5  16
ATOM     16  O4  KDA d          27.068  -1.563  -1.024  0.00  0.00    -0.393 OA
ATOM     17  H4  KDA d          26.346  -1.199  -0.525  0.00  0.00     0.210 HD
ENDBRANCH   5  16
BRANCH   9  18
ATOM     18  C1  KDA d          31.723  -2.838  -1.047  0.00  0.00     0.239 C 
ATOM     19  O1A KDA d          32.077  -3.988  -1.399  0.00  0.00    -0.644 OA
ATOM     20  O1B KDA d          32.261  -1.757  -1.399  0.00  0.00    -0.644 OA
ENDBRANCH   9  18
BRANCH   9  21
ATOM     21  O2  KDA d          30.898  -1.901   1.073  0.00  0.00    -0.317 OA
BRANCH  21  22
ATOM     22  C9  KDA d          31.932  -2.554   1.710  0.00  0.00     0.013 C 
ATOM     23  C10 KDA d          32.909  -1.934   2.481  0.00  0.00    -0.086 C 
ATOM     24  H13 KDA d          33.709  -2.540   2.904  0.00  0.00     0.079 H 
ATOM     25  H12 KDA d          31.989  -3.636   1.601  0.00  0.00     0.122 H 
BRANCH  23  26
ATOM     26  C11 KDA d          32.898  -0.581   2.726  0.00  0.00    -0.058 C 
ATOM     27  H14 KDA d          33.495  -0.065   1.960  0.00  0.00     0.032 H 
ATOM     28  H15 KDA d          33.327  -0.385   3.719  0.00  0.00     0.032 H 
ATOM     29  H16 KDA d          31.862  -0.211   2.694  0.00  0.00     0.032 H 
ENDBRANCH  23  26
ENDBRANCH  21  22
ENDBRANCH   9  21
ENDBRANCH   1   3
BRANCH   1  30
ATOM     30  O7  KDA d          27.359  -5.648   1.970  0.00  0.00    -0.391 OA
ATOM     31  H9  KDA d          27.229  -5.935   2.866  0.00  0.00     0.210 HD
ENDBRANCH   1  30
BRANCH   1  32
ATOM     32  C8  KDA d          29.487  -5.560   3.080  0.00  0.00     0.050 C 
ATOM     33  H10 KDA d          30.542  -5.826   2.922  0.00  0.00     0.078 H 
ATOM     34  H11 KDA d          29.007  -6.324   3.708  0.00  0.00     0.078 H 
BRANCH  32  35
ATOM     35  O8  KDA d          29.364  -4.232   3.681  0.00  0.00    -0.341 OA
BRANCH  35  36
ATOM     36  C2  KDA d          28.589  -4.198   4.927  0.00  0.00     0.276 C 
ATOM     37  C3  KDA d          27.391  -3.505   4.749  0.00  0.00    -0.036 C 
ATOM     38  C4  KDA d          27.091  -2.251   5.326  0.00  0.00    -0.099 C 
ATOM     39  H17 KDA d          26.630  -3.965   4.118  0.00  0.00     0.085 H 
ATOM     40  C5  KDA d          27.996  -1.559   6.141  0.00  0.00    -0.023 C 
ATOM     41  H18 KDA d          26.117  -1.804   5.130  0.00  0.00     0.076 H 
ATOM     42  C6  KDA d          29.407  -2.137   6.027  0.00  0.00     0.072 C 
ATOM     43  H19 KDA d          27.664  -1.632   7.187  0.00  0.00     0.042 H 
ATOM     44  H20 KDA d          28.017  -0.503   5.835  0.00  0.00     0.042 H 
ATOM     45  O6  KDA d          29.369  -3.588   5.985  0.00  0.00    -0.335 OA
ATOM     46  H21 KDA d          29.858  -1.735   5.107  0.00  0.00     0.088 H 
BRANCH  36  47
ATOM     47  C1  KDA d          28.267  -5.636   5.351  0.00  0.00     0.243 C 
ATOM     48  O1B KDA d          29.096  -6.202   6.055  0.00  0.00    -0.644 OA
ATOM     49  O1A KDA d          27.190  -6.122   4.955  0.00  0.00    -0.644 OA
ENDBRANCH  36  47
BRANCH  42  50
ATOM     50  C7  KDA d          30.357  -1.884   7.213  0.00  0.00     0.081 C 
ATOM     51  H22 KDA d          29.814  -1.297   7.968  0.00  0.00     0.090 H 
BRANCH  50  52
ATOM     52  O7  KDA d          31.471  -1.134   6.755  0.00  0.00    -0.391 OA
ATOM     53  H23 KDA d          31.677  -0.456   7.389  0.00  0.00     0.210 HD
ENDBRANCH  50  52
BRANCH  50  54
ATOM     54  C8  KDA d          30.857  -3.160   7.875  0.00  0.00     0.043 C 
ATOM     55  H24 KDA d          30.041  -3.897   7.897  0.00  0.00     0.078 H 
ATOM     56  H25 KDA d          31.172  -2.932   8.904  0.00  0.00     0.078 H 
BRANCH  54  57
ATOM     57  O8  KDA d          31.971  -3.713   7.155  0.00  0.00    -0.398 OA
ATOM     58  H26 KDA d          32.384  -4.387   7.682  0.00  0.00     0.209 HD
ENDBRANCH  54  57
ENDBRANCH  50  54
ENDBRANCH  42  50
ENDBRANCH  35  36
ENDBRANCH  32  35
ENDBRANCH   1  32
TORSDOF 16
ENDMDL
