MODEL 1
REMARK VINA RESULT:      -6.5      0.000      0.000
REMARK  15 active torsions:
REMARK  status: ('A' for Active; 'I' for Inactive)
REMARK    1  A    between atoms: C27_27  and  C15_15 
REMARK    2  A    between atoms: C16_16  and  C28_28 
REMARK    3  A    between atoms: C35_35  and  C17_17 
REMARK    4  A    between atoms: C35_35  and  C18_18 
REMARK    5  A    between atoms: C19_19  and  C32_32 
REMARK    6  A    between atoms: C33_33  and  C20_20 
REMARK    7  A    between atoms: C23_23  and  O43_43 
REMARK    8  A    between atoms: C24_24  and  O44_44 
REMARK    9  A    between atoms: C34_34  and  C26_26 
REMARK       I    between atoms: N36_36  and  C27_27 
REMARK   10  A    between atoms: O43_43  and  C30_30 
REMARK   11  A    between atoms: O44_44  and  C31_31 
REMARK   12  A    between atoms: C32_32  and  N37_37 
REMARK   13  A    between atoms: N37_37  and  C33_33 
REMARK   14  A    between atoms: N37_37  and  C34_34 
REMARK   15  A    between atoms: C35_35  and  N36_36 
ROOT
ATOM      1  C1  O2N d          -5.854  43.122   2.634  0.00  0.00    -0.082 A 
ATOM      2  C2  O2N d          -6.507  42.455   1.622  0.00  0.00    -0.082 A 
ATOM      3  C3  O2N d          -5.879  44.511   2.611  0.00  0.00    -0.067 A 
ATOM      4  C4  O2N d          -7.181  43.125   0.613  0.00  0.00    -0.074 A 
ATOM      5  C15 O2N d          -6.544  45.199   1.612  0.00  0.00     0.040 A 
ATOM      6  C19 O2N d          -7.205  44.506   0.599  0.00  0.00    -0.017 A 
ATOM      7  H1  O2N d          -5.338  42.583   3.420  0.00  0.00     0.083 H 
ATOM      8  H2  O2N d          -6.493  41.371   1.614  0.00  0.00     0.083 H 
ATOM      9  H3  O2N d          -5.369  45.065   3.391  0.00  0.00     0.085 H 
ATOM     10  H4  O2N d          -7.690  42.565  -0.164  0.00  0.00     0.084 H 
ENDROOT
BRANCH   5  11
ATOM     11  C27 O2N d          -6.564  46.677   1.655  0.00  0.00     0.253 C 
ATOM     12  N36 O2N d          -7.685  47.303   2.203  0.00  0.00    -0.344 N 
ATOM     13  H33 O2N d          -8.450  46.738   2.513  0.00  0.00     0.163 HD
ATOM     14  O39 O2N d          -5.595  47.276   1.181  0.00  0.00    -0.268 OA
BRANCH  12  15
ATOM     15  C35 O2N d          -7.778  48.745   2.336  0.00  0.00     0.063 C 
ATOM     16  H32 O2N d          -6.809  49.122   2.696  0.00  0.00     0.088 H 
BRANCH  15  17
ATOM     17  C17 O2N d          -8.816  49.081   3.422  0.00  0.00    -0.031 A 
ATOM     18  C6  O2N d          -9.564  50.249   3.344  0.00  0.00    -0.072 A 
ATOM     19  C11 O2N d         -10.502  50.600   4.323  0.00  0.00    -0.050 A 
ATOM     20  H6  O2N d          -9.416  50.911   2.497  0.00  0.00     0.084 H 
ATOM     21  C23 O2N d         -10.699  49.683   5.387  0.00  0.00     0.068 A 
ATOM     22  H11 O2N d         -11.053  51.532   4.270  0.00  0.00     0.087 H 
ATOM     23  C12 O2N d          -9.945  48.528   5.521  0.00  0.00    -0.050 A 
ATOM     24  C7  O2N d          -9.007  48.251   4.515  0.00  0.00    -0.072 A 
ATOM     25  H12 O2N d         -10.074  47.865   6.369  0.00  0.00     0.087 H 
ATOM     26  H7  O2N d          -8.408  47.352   4.595  0.00  0.00     0.084 H 
BRANCH  21  27
ATOM     27  O43 O2N d         -11.646  50.038   6.361  0.00  0.00    -0.356 OA
BRANCH  27  28
ATOM     28  C30 O2N d         -13.035  50.196   5.998  0.00  0.00     0.010 C 
ATOM     29  H20 O2N d         -13.211  49.738   5.014  0.00  0.00     0.066 H 
ATOM     30  H21 O2N d         -13.283  51.266   5.954  0.00  0.00     0.066 H 
ATOM     31  H22 O2N d         -13.669  49.704   6.750  0.00  0.00     0.066 H 
ENDBRANCH  27  28
ENDBRANCH  21  27
ENDBRANCH  15  17
BRANCH  15  32
ATOM     32  C18 O2N d          -8.001  49.352   0.954  0.00  0.00    -0.031 A 
ATOM     33  C8  O2N d          -7.176  50.410   0.589  0.00  0.00    -0.072 A 
ATOM     34  C13 O2N d          -7.313  50.974  -0.677  0.00  0.00    -0.050 A 
ATOM     35  H8  O2N d          -6.435  50.791   1.282  0.00  0.00     0.084 H 
ATOM     36  C24 O2N d          -8.265  50.518  -1.583  0.00  0.00     0.068 A 
ATOM     37  H13 O2N d          -6.661  51.790  -0.964  0.00  0.00     0.087 H 
ATOM     38  C14 O2N d          -9.116  49.474  -1.272  0.00  0.00    -0.050 A 
ATOM     39  C9  O2N d          -8.918  48.904   0.009  0.00  0.00    -0.072 A 
ATOM     40  H14 O2N d          -9.877  49.120  -1.957  0.00  0.00     0.087 H 
ATOM     41  H9  O2N d          -9.529  48.050   0.275  0.00  0.00     0.084 H 
BRANCH  36  42
ATOM     42  O44 O2N d          -8.305  51.192  -2.803  0.00  0.00    -0.356 OA
BRANCH  42  43
ATOM     43  C31 O2N d          -9.631  51.301  -3.319  0.00  0.00     0.010 C 
ATOM     44  H23 O2N d         -10.347  50.925  -2.574  0.00  0.00     0.066 H 
ATOM     45  H24 O2N d          -9.716  50.708  -4.241  0.00  0.00     0.066 H 
ATOM     46  H25 O2N d          -9.853  52.356  -3.541  0.00  0.00     0.066 H 
ENDBRANCH  42  43
ENDBRANCH  36  42
ENDBRANCH  15  32
ENDBRANCH  12  15
ENDBRANCH   5  11
BRANCH   6  47
ATOM     47  C32 O2N d          -7.960  45.187  -0.495  0.00  0.00     0.109 C 
ATOM     48  H26 O2N d          -7.330  45.181  -1.397  0.00  0.00     0.083 H 
ATOM     49  H27 O2N d          -8.146  46.225  -0.184  0.00  0.00     0.083 H 
BRANCH  47  50
ATOM     50  N37 O2N d          -9.298  44.558  -0.852  0.00  0.00    -0.060 N 
ATOM     51  H34 O2N d          -9.795  45.236  -1.410  0.00  0.00     0.281 HD
BRANCH  50  52
ATOM     52  C33 O2N d         -10.247  44.202   0.342  0.00  0.00     0.109 C 
ATOM     53  H28 O2N d         -10.911  43.374   0.052  0.00  0.00     0.083 H 
ATOM     54  H29 O2N d          -9.646  43.903   1.214  0.00  0.00     0.083 H 
BRANCH  52  55
ATOM     55  C20 O2N d         -11.079  45.427   0.691  0.00  0.00    -0.013 A 
ATOM     56  C5  O2N d         -10.822  46.260   1.815  0.00  0.00    -0.071 A 
ATOM     57  C10 O2N d         -11.612  47.416   2.113  0.00  0.00    -0.047 A 
ATOM     58  H5  O2N d          -9.997  46.009   2.472  0.00  0.00     0.084 H 
ATOM     59  C21 O2N d         -12.664  47.648   1.260  0.00  0.00     0.106 A 
ATOM     60  H10 O2N d         -11.396  48.064   2.954  0.00  0.00     0.087 H 
ATOM     61  C22 O2N d         -12.912  46.851   0.157  0.00  0.00     0.122 A 
ATOM     62  O41 O2N d         -13.567  48.665   1.337  0.00  0.00    -0.323 OA
ATOM     63  C16 O2N d         -12.155  45.725  -0.169  0.00  0.00     0.085 A 
ATOM     64  O42 O2N d         -14.030  47.278  -0.572  0.00  0.00    -0.322 OA
ATOM     65  C29 O2N d         -14.385  48.465   0.168  0.00  0.00     0.115 A 
ATOM     66  H18 O2N d         -14.271  49.337  -0.492  0.00  0.00     0.118 H 
ATOM     67  H19 O2N d         -15.435  48.380   0.485  0.00  0.00     0.118 H 
BRANCH  63  68
ATOM     68  C28 O2N d         -12.498  44.971  -1.434  0.00  0.00     0.212 C 
ATOM     69  O38 O2N d         -11.870  45.360  -2.471  0.00  0.00    -0.644 OA
ATOM     70  O40 O2N d         -13.231  43.931  -1.497  0.00  0.00    -0.644 OA
ENDBRANCH  63  68
ENDBRANCH  52  55
ENDBRANCH  50  52
BRANCH  50  71
ATOM     71  C34 O2N d          -9.044  43.358  -1.712  0.00  0.00     0.099 C 
ATOM     72  H30 O2N d          -8.979  43.707  -2.753  0.00  0.00     0.082 H 
ATOM     73  H31 O2N d          -8.077  42.932  -1.406  0.00  0.00     0.082 H 
BRANCH  71  74
ATOM     74  C26 O2N d         -10.059  42.249  -1.670  0.00  0.00    -0.087 C 
ATOM     75  C25 O2N d          -9.716  41.018  -1.250  0.00  0.00    -0.123 C 
ATOM     76  H15 O2N d         -10.461  40.224  -1.225  0.00  0.00     0.066 H 
ATOM     77  H16 O2N d          -8.693  40.815  -0.935  0.00  0.00     0.066 H 
ATOM     78  H17 O2N d         -11.083  42.445  -1.983  0.00  0.00     0.078 H 
ENDBRANCH  71  74
ENDBRANCH  50  71
ENDBRANCH  47  50
ENDBRANCH   6  47
TORSDOF 15
ENDMDL
MODEL 2
REMARK VINA RESULT:      -5.8      2.410      6.179
REMARK  15 active torsions:
REMARK  status: ('A' for Active; 'I' for Inactive)
REMARK    1  A    between atoms: C27_27  and  C15_15 
REMARK    2  A    between atoms: C16_16  and  C28_28 
REMARK    3  A    between atoms: C35_35  and  C17_17 
REMARK    4  A    between atoms: C35_35  and  C18_18 
REMARK    5  A    between atoms: C19_19  and  C32_32 
REMARK    6  A    between atoms: C33_33  and  C20_20 
REMARK    7  A    between atoms: C23_23  and  O43_43 
REMARK    8  A    between atoms: C24_24  and  O44_44 
REMARK    9  A    between atoms: C34_34  and  C26_26 
REMARK       I    between atoms: N36_36  and  C27_27 
REMARK   10  A    between atoms: O43_43  and  C30_30 
REMARK   11  A    between atoms: O44_44  and  C31_31 
REMARK   12  A    between atoms: C32_32  and  N37_37 
REMARK   13  A    between atoms: N37_37  and  C33_33 
REMARK   14  A    between atoms: N37_37  and  C34_34 
REMARK   15  A    between atoms: C35_35  and  N36_36 
ROOT
ATOM      1  C1  O2N d          -5.164  48.889  -1.601  0.00  0.00    -0.082 A 
ATOM      2  C2  O2N d          -4.499  48.449  -0.479  0.00  0.00    -0.082 A 
ATOM      3  C3  O2N d          -6.529  49.127  -1.490  0.00  0.00    -0.067 A 
ATOM      4  C4  O2N d          -5.145  48.253   0.731  0.00  0.00    -0.074 A 
ATOM      5  C15 O2N d          -7.193  48.935  -0.291  0.00  0.00     0.040 A 
ATOM      6  C19 O2N d          -6.501  48.493   0.835  0.00  0.00    -0.017 A 
ATOM      7  H1  O2N d          -4.643  49.045  -2.539  0.00  0.00     0.083 H 
ATOM      8  H2  O2N d          -3.436  48.248  -0.545  0.00  0.00     0.083 H 
ATOM      9  H3  O2N d          -7.082  49.468  -2.357  0.00  0.00     0.085 H 
ATOM     10  H4  O2N d          -4.586  47.911   1.595  0.00  0.00     0.084 H 
ENDROOT
BRANCH   5  11
ATOM     11  C27 O2N d          -8.640  49.232  -0.223  0.00  0.00     0.253 C 
ATOM     12  N36 O2N d          -9.536  48.171  -0.358  0.00  0.00    -0.344 N 
ATOM     13  H33 O2N d          -9.176  47.254  -0.533  0.00  0.00     0.163 HD
ATOM     14  O39 O2N d          -8.975  50.411  -0.074  0.00  0.00    -0.268 OA
BRANCH  12  15
ATOM     15  C35 O2N d         -10.972  48.352  -0.255  0.00  0.00     0.063 C 
ATOM     16  H32 O2N d         -11.259  49.207  -0.885  0.00  0.00     0.088 H 
BRANCH  15  17
ATOM     17  C17 O2N d         -11.326  48.732   1.194  0.00  0.00    -0.031 A 
ATOM     18  C6  O2N d         -10.894  47.944   2.254  0.00  0.00    -0.072 A 
ATOM     19  C11 O2N d         -11.213  48.245   3.584  0.00  0.00    -0.050 A 
ATOM     20  H6  O2N d         -10.290  47.068   2.045  0.00  0.00     0.084 H 
ATOM     21  C23 O2N d         -11.963  49.427   3.817  0.00  0.00     0.068 A 
ATOM     22  H11 O2N d         -10.901  47.603   4.400  0.00  0.00     0.087 H 
ATOM     23  C12 O2N d         -12.445  50.215   2.785  0.00  0.00    -0.050 A 
ATOM     24  C7  O2N d         -12.105  49.841   1.476  0.00  0.00    -0.072 A 
ATOM     25  H12 O2N d         -13.060  51.086   2.981  0.00  0.00     0.087 H 
ATOM     26  H7  O2N d         -12.468  50.445   0.652  0.00  0.00     0.084 H 
BRANCH  21  27
ATOM     27  O43 O2N d         -12.273  49.725   5.154  0.00  0.00    -0.356 OA
BRANCH  27  28
ATOM     28  C30 O2N d         -11.428  49.242   6.220  0.00  0.00     0.010 C 
ATOM     29  H20 O2N d         -11.457  49.950   7.061  0.00  0.00     0.066 H 
ATOM     30  H21 O2N d         -10.395  49.149   5.855  0.00  0.00     0.066 H 
ATOM     31  H22 O2N d         -11.787  48.259   6.556  0.00  0.00     0.066 H 
ENDBRANCH  27  28
ENDBRANCH  21  27
ENDBRANCH  15  17
BRANCH  15  32
ATOM     32  C18 O2N d         -11.665  47.123  -0.837  0.00  0.00    -0.031 A 
ATOM     33  C8  O2N d         -12.982  46.901  -0.454  0.00  0.00    -0.072 A 
ATOM     34  C13 O2N d         -13.671  45.814  -0.988  0.00  0.00    -0.050 A 
ATOM     35  H8  O2N d         -13.467  47.565   0.252  0.00  0.00     0.084 H 
ATOM     36  C24 O2N d         -13.073  44.935  -1.884  0.00  0.00     0.068 A 
ATOM     37  H13 O2N d         -14.702  45.650  -0.697  0.00  0.00     0.087 H 
ATOM     38  C14 O2N d         -11.764  45.104  -2.295  0.00  0.00    -0.050 A 
ATOM     39  C9  O2N d         -11.112  46.241  -1.759  0.00  0.00    -0.072 A 
ATOM     40  H14 O2N d         -11.275  44.417  -2.976  0.00  0.00     0.087 H 
ATOM     41  H9  O2N d         -10.101  46.440  -2.095  0.00  0.00     0.084 H 
BRANCH  36  42
ATOM     42  O44 O2N d         -13.874  43.880  -2.317  0.00  0.00    -0.356 OA
BRANCH  42  43
ATOM     43  C31 O2N d         -15.149  44.322  -2.782  0.00  0.00     0.010 C 
ATOM     44  H23 O2N d         -15.391  45.292  -2.322  0.00  0.00     0.066 H 
ATOM     45  H24 O2N d         -15.916  43.584  -2.507  0.00  0.00     0.066 H 
ATOM     46  H25 O2N d         -15.122  44.432  -3.877  0.00  0.00     0.066 H 
ENDBRANCH  42  43
ENDBRANCH  36  42
ENDBRANCH  15  32
ENDBRANCH  12  15
ENDBRANCH   5  11
BRANCH   6  47
ATOM     47  C32 O2N d          -7.154  48.289   2.163  0.00  0.00     0.109 C 
ATOM     48  H26 O2N d          -8.197  47.986   1.986  0.00  0.00     0.083 H 
ATOM     49  H27 O2N d          -7.137  49.247   2.702  0.00  0.00     0.083 H 
BRANCH  47  50
ATOM     50  N37 O2N d          -6.505  47.239   3.053  0.00  0.00    -0.060 N 
ATOM     51  H34 O2N d          -5.898  46.695   2.460  0.00  0.00     0.281 HD
BRANCH  50  52
ATOM     52  C33 O2N d          -7.467  46.216   3.746  0.00  0.00     0.109 C 
ATOM     53  H28 O2N d          -6.924  45.675   4.535  0.00  0.00     0.083 H 
ATOM     54  H29 O2N d          -8.319  46.752   4.188  0.00  0.00     0.083 H 
BRANCH  52  55
ATOM     55  C20 O2N d          -7.969  45.229   2.702  0.00  0.00    -0.013 A 
ATOM     56  C5  O2N d          -9.188  45.391   1.987  0.00  0.00    -0.071 A 
ATOM     57  C10 O2N d          -9.631  44.455   0.999  0.00  0.00    -0.047 A 
ATOM     58  H5  O2N d          -9.806  46.257   2.199  0.00  0.00     0.084 H 
ATOM     59  C21 O2N d          -8.817  43.364   0.812  0.00  0.00     0.106 A 
ATOM     60  H10 O2N d         -10.546  44.597   0.436  0.00  0.00     0.087 H 
ATOM     61  C22 O2N d          -7.623  43.206   1.494  0.00  0.00     0.122 A 
ATOM     62  O41 O2N d          -9.023  42.331  -0.051  0.00  0.00    -0.323 OA
ATOM     63  C16 O2N d          -7.156  44.106   2.454  0.00  0.00     0.085 A 
ATOM     64  O42 O2N d          -6.957  42.026   1.140  0.00  0.00    -0.322 OA
ATOM     65  C29 O2N d          -7.841  41.525   0.115  0.00  0.00     0.115 A 
ATOM     66  H18 O2N d          -7.295  41.504  -0.839  0.00  0.00     0.118 H 
ATOM     67  H19 O2N d          -8.147  40.503   0.385  0.00  0.00     0.118 H 
BRANCH  63  68
ATOM     68  C28 O2N d          -5.807  43.845   3.085  0.00  0.00     0.212 C 
ATOM     69  O38 O2N d          -4.829  44.414   2.503  0.00  0.00    -0.644 OA
ATOM     70  O40 O2N d          -5.615  43.239   4.189  0.00  0.00    -0.644 OA
ENDBRANCH  63  68
ENDBRANCH  52  55
ENDBRANCH  50  52
BRANCH  50  71
ATOM     71  C34 O2N d          -5.648  47.939   4.063  0.00  0.00     0.099 C 
ATOM     72  H30 O2N d          -5.520  48.977   3.724  0.00  0.00     0.082 H 
ATOM     73  H31 O2N d          -6.190  47.929   5.020  0.00  0.00     0.082 H 
BRANCH  71  74
ATOM     74  C26 O2N d          -4.276  47.375   4.316  0.00  0.00    -0.087 C 
ATOM     75  C25 O2N d          -4.075  46.465   5.286  0.00  0.00    -0.123 C 
ATOM     76  H15 O2N d          -3.077  46.065   5.457  0.00  0.00     0.066 H 
ATOM     77  H16 O2N d          -4.910  46.128   5.899  0.00  0.00     0.066 H 
ATOM     78  H17 O2N d          -3.437  47.707   3.706  0.00  0.00     0.078 H 
ENDBRANCH  71  74
ENDBRANCH  50  71
ENDBRANCH  47  50
ENDBRANCH   6  47
TORSDOF 15
ENDMDL
MODEL 3
REMARK VINA RESULT:      -5.7      2.452      6.927
REMARK  15 active torsions:
REMARK  status: ('A' for Active; 'I' for Inactive)
REMARK    1  A    between atoms: C27_27  and  C15_15 
REMARK    2  A    between atoms: C16_16  and  C28_28 
REMARK    3  A    between atoms: C35_35  and  C17_17 
REMARK    4  A    between atoms: C35_35  and  C18_18 
REMARK    5  A    between atoms: C19_19  and  C32_32 
REMARK    6  A    between atoms: C33_33  and  C20_20 
REMARK    7  A    between atoms: C23_23  and  O43_43 
REMARK    8  A    between atoms: C24_24  and  O44_44 
REMARK    9  A    between atoms: C34_34  and  C26_26 
REMARK       I    between atoms: N36_36  and  C27_27 
REMARK   10  A    between atoms: O43_43  and  C30_30 
REMARK   11  A    between atoms: O44_44  and  C31_31 
REMARK   12  A    between atoms: C32_32  and  N37_37 
REMARK   13  A    between atoms: N37_37  and  C33_33 
REMARK   14  A    between atoms: N37_37  and  C34_34 
REMARK   15  A    between atoms: C35_35  and  N36_36 
ROOT
ATOM      1  C1  O2N d          -4.395  48.397  -0.973  0.00  0.00    -0.082 A 
ATOM      2  C2  O2N d          -4.160  48.640   0.362  0.00  0.00    -0.082 A 
ATOM      3  C3  O2N d          -5.710  48.459  -1.417  0.00  0.00    -0.067 A 
ATOM      4  C4  O2N d          -5.182  48.947   1.246  0.00  0.00    -0.074 A 
ATOM      5  C15 O2N d          -6.746  48.761  -0.550  0.00  0.00     0.040 A 
ATOM      6  C19 O2N d          -6.487  49.009   0.797  0.00  0.00    -0.017 A 
ATOM      7  H1  O2N d          -3.584  48.166  -1.654  0.00  0.00     0.083 H 
ATOM      8  H2  O2N d          -3.143  48.589   0.733  0.00  0.00     0.083 H 
ATOM      9  H3  O2N d          -5.929  48.267  -2.461  0.00  0.00     0.085 H 
ATOM     10  H4  O2N d          -4.958  49.139   2.289  0.00  0.00     0.084 H 
ENDROOT
BRANCH   5  11
ATOM     11  C27 O2N d          -8.122  48.843  -1.085  0.00  0.00     0.253 C 
ATOM     12  N36 O2N d          -9.007  47.808  -0.780  0.00  0.00    -0.344 N 
ATOM     13  H33 O2N d          -8.675  47.031  -0.244  0.00  0.00     0.163 HD
ATOM     14  O39 O2N d          -8.404  49.814  -1.792  0.00  0.00    -0.268 OA
BRANCH  12  15
ATOM     15  C35 O2N d         -10.392  47.821  -1.214  0.00  0.00     0.063 C 
ATOM     16  H32 O2N d         -10.444  48.324  -2.191  0.00  0.00     0.088 H 
BRANCH  15  17
ATOM     17  C17 O2N d         -11.216  48.672  -0.232  0.00  0.00    -0.031 A 
ATOM     18  C6  O2N d         -11.859  49.824  -0.668  0.00  0.00    -0.072 A 
ATOM     19  C11 O2N d         -12.601  50.636   0.200  0.00  0.00    -0.050 A 
ATOM     20  H6  O2N d         -11.785  50.104  -1.713  0.00  0.00     0.084 H 
ATOM     21  C23 O2N d         -12.714  50.208   1.547  0.00  0.00     0.068 A 
ATOM     22  H11 O2N d         -13.068  51.553  -0.144  0.00  0.00     0.087 H 
ATOM     23  C12 O2N d         -12.055  49.088   2.028  0.00  0.00    -0.050 A 
ATOM     24  C7  O2N d         -11.311  48.334   1.107  0.00  0.00    -0.072 A 
ATOM     25  H12 O2N d         -12.112  48.806   3.073  0.00  0.00     0.087 H 
ATOM     26  H7  O2N d         -10.790  47.452   1.459  0.00  0.00     0.084 H 
BRANCH  21  27
ATOM     27  O43 O2N d         -13.465  51.024   2.409  0.00  0.00    -0.356 OA
BRANCH  27  28
ATOM     28  C30 O2N d         -12.910  51.451   3.671  0.00  0.00     0.010 C 
ATOM     29  H20 O2N d         -13.207  50.746   4.461  0.00  0.00     0.066 H 
ATOM     30  H21 O2N d         -13.286  52.455   3.917  0.00  0.00     0.066 H 
ATOM     31  H22 O2N d         -11.812  51.479   3.598  0.00  0.00     0.066 H 
ENDBRANCH  27  28
ENDBRANCH  21  27
ENDBRANCH  15  17
BRANCH  15  32
ATOM     32  C18 O2N d         -10.850  46.381  -1.435  0.00  0.00    -0.031 A 
ATOM     33  C8  O2N d          -9.888  45.386  -1.306  0.00  0.00    -0.072 A 
ATOM     34  C13 O2N d         -10.264  44.054  -1.460  0.00  0.00    -0.050 A 
ATOM     35  H8  O2N d          -8.859  45.645  -1.088  0.00  0.00     0.084 H 
ATOM     36  C24 O2N d         -11.573  43.691  -1.755  0.00  0.00     0.068 A 
ATOM     37  H13 O2N d          -9.515  43.278  -1.346  0.00  0.00     0.087 H 
ATOM     38  C14 O2N d         -12.569  44.638  -1.901  0.00  0.00    -0.050 A 
ATOM     39  C9  O2N d         -12.154  45.977  -1.698  0.00  0.00    -0.072 A 
ATOM     40  H14 O2N d         -13.590  44.375  -2.151  0.00  0.00     0.087 H 
ATOM     41  H9  O2N d         -12.914  46.748  -1.753  0.00  0.00     0.084 H 
BRANCH  36  42
ATOM     42  O44 O2N d         -11.799  42.323  -1.904  0.00  0.00    -0.356 OA
BRANCH  42  43
ATOM     43  C31 O2N d         -10.610  41.554  -1.722  0.00  0.00     0.010 C 
ATOM     44  H23 O2N d         -10.772  40.813  -0.924  0.00  0.00     0.066 H 
ATOM     45  H24 O2N d          -9.782  42.220  -1.441  0.00  0.00     0.066 H 
ATOM     46  H25 O2N d         -10.362  41.035  -2.659  0.00  0.00     0.066 H 
ENDBRANCH  42  43
ENDBRANCH  36  42
ENDBRANCH  15  32
ENDBRANCH  12  15
ENDBRANCH   5  11
BRANCH   6  47
ATOM     47  C32 O2N d          -7.555  49.363   1.779  0.00  0.00     0.109 C 
ATOM     48  H26 O2N d          -8.433  48.735   1.567  0.00  0.00     0.083 H 
ATOM     49  H27 O2N d          -7.817  50.421   1.630  0.00  0.00     0.083 H 
BRANCH  47  50
ATOM     50  N37 O2N d          -7.183  49.174   3.242  0.00  0.00    -0.060 N 
ATOM     51  H34 O2N d          -6.198  48.960   3.263  0.00  0.00     0.281 HD
BRANCH  50  52
ATOM     52  C33 O2N d          -7.897  48.006   4.001  0.00  0.00     0.109 C 
ATOM     53  H28 O2N d          -7.512  47.944   5.030  0.00  0.00     0.083 H 
ATOM     54  H29 O2N d          -8.981  48.190   4.027  0.00  0.00     0.083 H 
BRANCH  52  55
ATOM     55  C20 O2N d          -7.618  46.701   3.271  0.00  0.00    -0.013 A 
ATOM     56  C5  O2N d          -8.496  46.135   2.305  0.00  0.00    -0.071 A 
ATOM     57  C10 O2N d          -8.202  44.913   1.620  0.00  0.00    -0.047 A 
ATOM     58  H5  O2N d          -9.424  46.649   2.079  0.00  0.00     0.084 H 
ATOM     59  C21 O2N d          -7.029  44.298   1.986  0.00  0.00     0.106 A 
ATOM     60  H10 O2N d          -8.861  44.500   0.865  0.00  0.00     0.087 H 
ATOM     61  C22 O2N d          -6.164  44.849   2.915  0.00  0.00     0.122 A 
ATOM     62  O41 O2N d          -6.537  43.126   1.499  0.00  0.00    -0.323 OA
ATOM     63  C16 O2N d          -6.413  46.044   3.591  0.00  0.00     0.085 A 
ATOM     64  O42 O2N d          -5.030  44.053   3.127  0.00  0.00    -0.322 OA
ATOM     65  C29 O2N d          -5.268  43.000   2.170  0.00  0.00     0.115 A 
ATOM     66  H18 O2N d          -4.469  43.025   1.415  0.00  0.00     0.118 H 
ATOM     67  H19 O2N d          -5.244  42.035   2.697  0.00  0.00     0.118 H 
BRANCH  63  68
ATOM     68  C28 O2N d          -5.358  46.565   4.540  0.00  0.00     0.212 C 
ATOM     69  O38 O2N d          -5.479  46.160   5.741  0.00  0.00    -0.644 OA
ATOM     70  O40 O2N d          -4.329  47.234   4.203  0.00  0.00    -0.644 OA
ENDBRANCH  63  68
ENDBRANCH  52  55
ENDBRANCH  50  52
BRANCH  50  71
ATOM     71  C34 O2N d          -7.381  50.477   3.954  0.00  0.00     0.099 C 
ATOM     72  H30 O2N d          -8.022  51.106   3.318  0.00  0.00     0.082 H 
ATOM     73  H31 O2N d          -7.900  50.262   4.899  0.00  0.00     0.082 H 
BRANCH  71  74
ATOM     74  C26 O2N d          -6.152  51.278   4.286  0.00  0.00    -0.087 C 
ATOM     75  C25 O2N d          -5.025  50.670   4.699  0.00  0.00    -0.123 C 
ATOM     76  H15 O2N d          -4.143  51.262   4.936  0.00  0.00     0.066 H 
ATOM     77  H16 O2N d          -4.996  49.585   4.795  0.00  0.00     0.066 H 
ATOM     78  H17 O2N d          -6.174  52.362   4.192  0.00  0.00     0.078 H 
ENDBRANCH  71  74
ENDBRANCH  50  71
ENDBRANCH  47  50
ENDBRANCH   6  47
TORSDOF 15
ENDMDL
MODEL 4
REMARK VINA RESULT:      -5.6      2.221      6.099
REMARK  15 active torsions:
REMARK  status: ('A' for Active; 'I' for Inactive)
REMARK    1  A    between atoms: C27_27  and  C15_15 
REMARK    2  A    between atoms: C16_16  and  C28_28 
REMARK    3  A    between atoms: C35_35  and  C17_17 
REMARK    4  A    between atoms: C35_35  and  C18_18 
REMARK    5  A    between atoms: C19_19  and  C32_32 
REMARK    6  A    between atoms: C33_33  and  C20_20 
REMARK    7  A    between atoms: C23_23  and  O43_43 
REMARK    8  A    between atoms: C24_24  and  O44_44 
REMARK    9  A    between atoms: C34_34  and  C26_26 
REMARK       I    between atoms: N36_36  and  C27_27 
REMARK   10  A    between atoms: O43_43  and  C30_30 
REMARK   11  A    between atoms: O44_44  and  C31_31 
REMARK   12  A    between atoms: C32_32  and  N37_37 
REMARK   13  A    between atoms: N37_37  and  C33_33 
REMARK   14  A    between atoms: N37_37  and  C34_34 
REMARK   15  A    between atoms: C35_35  and  N36_36 
ROOT
ATOM      1  C1  O2N d          -9.747  43.735  -2.123  0.00  0.00    -0.082 A 
ATOM      2  C2  O2N d          -8.761  42.992  -1.514  0.00  0.00    -0.082 A 
ATOM      3  C3  O2N d         -10.569  44.504  -1.309  0.00  0.00    -0.067 A 
ATOM      4  C4  O2N d          -8.570  43.005  -0.142  0.00  0.00    -0.074 A 
ATOM      5  C15 O2N d         -10.397  44.529   0.064  0.00  0.00     0.040 A 
ATOM      6  C19 O2N d          -9.389  43.774   0.662  0.00  0.00    -0.017 A 
ATOM      7  H1  O2N d          -9.878  43.721  -3.199  0.00  0.00     0.083 H 
ATOM      8  H2  O2N d          -8.113  42.377  -2.129  0.00  0.00     0.083 H 
ATOM      9  H3  O2N d         -11.359  45.096  -1.757  0.00  0.00     0.085 H 
ATOM     10  H4  O2N d          -7.778  42.411   0.302  0.00  0.00     0.084 H 
ENDROOT
BRANCH   5  11
ATOM     11  C27 O2N d         -11.282  45.390   0.879  0.00  0.00     0.253 C 
ATOM     12  N36 O2N d         -10.745  46.559   1.418  0.00  0.00    -0.344 N 
ATOM     13  H33 O2N d          -9.776  46.759   1.270  0.00  0.00     0.163 HD
ATOM     14  O39 O2N d         -12.444  45.011   1.055  0.00  0.00    -0.268 OA
BRANCH  12  15
ATOM     15  C35 O2N d         -11.544  47.494   2.188  0.00  0.00     0.063 C 
ATOM     16  H32 O2N d         -12.374  46.940   2.652  0.00  0.00     0.088 H 
BRANCH  15  17
ATOM     17  C17 O2N d         -12.176  48.519   1.230  0.00  0.00    -0.031 A 
ATOM     18  C6  O2N d         -13.545  48.509   0.991  0.00  0.00    -0.072 A 
ATOM     19  C11 O2N d         -14.154  49.411   0.110  0.00  0.00    -0.050 A 
ATOM     20  H6  O2N d         -14.162  47.778   1.503  0.00  0.00     0.084 H 
ATOM     21  C23 O2N d         -13.319  50.382  -0.500  0.00  0.00     0.068 A 
ATOM     22  H11 O2N d         -15.218  49.370  -0.097  0.00  0.00     0.087 H 
ATOM     23  C12 O2N d         -11.945  50.399  -0.318  0.00  0.00    -0.050 A 
ATOM     24  C7  O2N d         -11.401  49.451   0.561  0.00  0.00    -0.072 A 
ATOM     25  H12 O2N d         -11.317  51.117  -0.833  0.00  0.00     0.087 H 
ATOM     26  H7  O2N d         -10.329  49.447   0.723  0.00  0.00     0.084 H 
BRANCH  21  27
ATOM     27  O43 O2N d         -13.938  51.288  -1.377  0.00  0.00    -0.356 OA
BRANCH  27  28
ATOM     28  C30 O2N d         -15.373  51.451  -1.357  0.00  0.00     0.010 C 
ATOM     29  H20 O2N d         -15.702  51.675  -0.332  0.00  0.00     0.066 H 
ATOM     30  H21 O2N d         -15.852  50.524  -1.702  0.00  0.00     0.066 H 
ATOM     31  H22 O2N d         -15.657  52.280  -2.022  0.00  0.00     0.066 H 
ENDBRANCH  27  28
ENDBRANCH  21  27
ENDBRANCH  15  17
BRANCH  15  32
ATOM     32  C18 O2N d         -10.691  48.046   3.328  0.00  0.00    -0.031 A 
ATOM     33  C8  O2N d          -9.315  48.055   3.138  0.00  0.00    -0.072 A 
ATOM     34  C13 O2N d          -8.495  48.584   4.133  0.00  0.00    -0.050 A 
ATOM     35  H8  O2N d          -8.884  47.655   2.228  0.00  0.00     0.084 H 
ATOM     36  C24 O2N d          -9.015  49.090   5.319  0.00  0.00     0.068 A 
ATOM     37  H13 O2N d          -7.422  48.601   3.978  0.00  0.00     0.087 H 
ATOM     38  C14 O2N d         -10.375  49.101   5.564  0.00  0.00    -0.050 A 
ATOM     39  C9  O2N d         -11.175  48.590   4.512  0.00  0.00    -0.072 A 
ATOM     40  H14 O2N d         -10.797  49.473   6.490  0.00  0.00     0.087 H 
ATOM     41  H9  O2N d         -12.251  48.627   4.642  0.00  0.00     0.084 H 
BRANCH  36  42
ATOM     42  O44 O2N d          -8.075  49.565   6.233  0.00  0.00    -0.356 OA
BRANCH  42  43
ATOM     43  C31 O2N d          -6.946  48.700   6.349  0.00  0.00     0.010 C 
ATOM     44  H23 O2N d          -7.034  48.104   7.270  0.00  0.00     0.066 H 
ATOM     45  H24 O2N d          -6.026  49.302   6.389  0.00  0.00     0.066 H 
ATOM     46  H25 O2N d          -6.908  48.028   5.479  0.00  0.00     0.066 H 
ENDBRANCH  42  43
ENDBRANCH  36  42
ENDBRANCH  15  32
ENDBRANCH  12  15
ENDBRANCH   5  11
BRANCH   6  47
ATOM     47  C32 O2N d          -9.136  43.774   2.133  0.00  0.00     0.109 C 
ATOM     48  H26 O2N d          -9.189  42.733   2.487  0.00  0.00     0.083 H 
ATOM     49  H27 O2N d          -9.928  44.365   2.614  0.00  0.00     0.083 H 
BRANCH  47  50
ATOM     50  N37 O2N d          -7.795  44.348   2.564  0.00  0.00    -0.060 N 
ATOM     51  H34 O2N d          -7.996  45.184   3.091  0.00  0.00     0.281 HD
BRANCH  50  52
ATOM     52  C33 O2N d          -6.819  44.783   1.419  0.00  0.00     0.109 C 
ATOM     53  H28 O2N d          -5.976  44.077   1.364  0.00  0.00     0.083 H 
ATOM     54  H29 O2N d          -7.355  44.789   0.459  0.00  0.00     0.083 H 
BRANCH  52  55
ATOM     55  C20 O2N d          -6.297  46.180   1.722  0.00  0.00    -0.013 A 
ATOM     56  C5  O2N d          -5.423  46.476   2.806  0.00  0.00    -0.071 A 
ATOM     57  C10 O2N d          -4.934  47.797   3.060  0.00  0.00    -0.047 A 
ATOM     58  H5  O2N d          -5.116  45.670   3.463  0.00  0.00     0.084 H 
ATOM     59  C21 O2N d          -5.396  48.772   2.209  0.00  0.00     0.106 A 
ATOM     60  H10 O2N d          -4.246  48.014   3.869  0.00  0.00     0.087 H 
ATOM     61  C22 O2N d          -6.235  48.490   1.146  0.00  0.00     0.122 A 
ATOM     62  O41 O2N d          -5.096  50.099   2.252  0.00  0.00    -0.323 OA
ATOM     63  C16 O2N d          -6.720  47.212   0.862  0.00  0.00     0.085 A 
ATOM     64  O42 O2N d          -6.573  49.634   0.412  0.00  0.00    -0.322 OA
ATOM     65  C29 O2N d          -5.786  50.627   1.102  0.00  0.00     0.115 A 
ATOM     66  H18 O2N d          -5.041  51.033   0.402  0.00  0.00     0.118 H 
ATOM     67  H19 O2N d          -6.454  51.435   1.434  0.00  0.00     0.118 H 
BRANCH  63  68
ATOM     68  C28 O2N d          -7.586  47.029  -0.364  0.00  0.00     0.212 C 
ATOM     69  O38 O2N d          -7.091  46.266  -1.254  0.00  0.00    -0.644 OA
ATOM     70  O40 O2N d          -8.779  47.453  -0.493  0.00  0.00    -0.644 OA
ENDBRANCH  63  68
ENDBRANCH  52  55
ENDBRANCH  50  52
BRANCH  50  71
ATOM     71  C34 O2N d          -7.136  43.372   3.490  0.00  0.00     0.099 C 
ATOM     72  H30 O2N d          -7.856  42.564   3.683  0.00  0.00     0.082 H 
ATOM     73  H31 O2N d          -6.257  42.964   2.969  0.00  0.00     0.082 H 
BRANCH  71  74
ATOM     74  C26 O2N d          -6.670  43.890   4.823  0.00  0.00    -0.087 C 
ATOM     75  C25 O2N d          -5.410  43.676   5.242  0.00  0.00    -0.123 C 
ATOM     76  H15 O2N d          -5.086  44.056   6.209  0.00  0.00     0.066 H 
ATOM     77  H16 O2N d          -4.713  43.122   4.613  0.00  0.00     0.066 H 
ATOM     78  H17 O2N d          -7.361  44.444   5.456  0.00  0.00     0.078 H 
ENDBRANCH  71  74
ENDBRANCH  50  71
ENDBRANCH  47  50
ENDBRANCH   6  47
TORSDOF 15
ENDMDL
MODEL 5
REMARK VINA RESULT:      -5.5      1.670      2.356
REMARK  15 active torsions:
REMARK  status: ('A' for Active; 'I' for Inactive)
REMARK    1  A    between atoms: C27_27  and  C15_15 
REMARK    2  A    between atoms: C16_16  and  C28_28 
REMARK    3  A    between atoms: C35_35  and  C17_17 
REMARK    4  A    between atoms: C35_35  and  C18_18 
REMARK    5  A    between atoms: C19_19  and  C32_32 
REMARK    6  A    between atoms: C33_33  and  C20_20 
REMARK    7  A    between atoms: C23_23  and  O43_43 
REMARK    8  A    between atoms: C24_24  and  O44_44 
REMARK    9  A    between atoms: C34_34  and  C26_26 
REMARK       I    between atoms: N36_36  and  C27_27 
REMARK   10  A    between atoms: O43_43  and  C30_30 
REMARK   11  A    between atoms: O44_44  and  C31_31 
REMARK   12  A    between atoms: C32_32  and  N37_37 
REMARK   13  A    between atoms: N37_37  and  C33_33 
REMARK   14  A    between atoms: N37_37  and  C34_34 
REMARK   15  A    between atoms: C35_35  and  N36_36 
ROOT
ATOM      1  C1  O2N d          -6.491  42.603   1.295  0.00  0.00    -0.082 A 
ATOM      2  C2  O2N d          -7.606  41.879   0.937  0.00  0.00    -0.082 A 
ATOM      3  C3  O2N d          -6.618  43.984   1.375  0.00  0.00    -0.067 A 
ATOM      4  C4  O2N d          -8.825  42.485   0.674  0.00  0.00    -0.074 A 
ATOM      5  C15 O2N d          -7.825  44.609   1.114  0.00  0.00     0.040 A 
ATOM      6  C19 O2N d          -8.945  43.858   0.759  0.00  0.00    -0.017 A 
ATOM      7  H1  O2N d          -5.547  42.113   1.505  0.00  0.00     0.083 H 
ATOM      8  H2  O2N d          -7.529  40.801   0.859  0.00  0.00     0.083 H 
ATOM      9  H3  O2N d          -5.757  44.583   1.648  0.00  0.00     0.085 H 
ATOM     10  H4  O2N d          -9.683  41.881   0.402  0.00  0.00     0.084 H 
ENDROOT
BRANCH   5  11
ATOM     11  C27 O2N d          -7.909  46.080   1.245  0.00  0.00     0.253 C 
ATOM     12  N36 O2N d          -7.536  46.653   2.461  0.00  0.00    -0.344 N 
ATOM     13  H33 O2N d          -7.259  46.054   3.213  0.00  0.00     0.163 HD
ATOM     14  O39 O2N d          -8.331  46.716   0.275  0.00  0.00    -0.268 OA
BRANCH  12  15
ATOM     15  C35 O2N d          -7.535  48.088   2.672  0.00  0.00     0.063 C 
ATOM     16  H32 O2N d          -6.840  48.318   3.493  0.00  0.00     0.088 H 
BRANCH  15  17
ATOM     17  C17 O2N d          -8.935  48.526   3.140  0.00  0.00    -0.031 A 
ATOM     18  C6  O2N d         -10.062  47.809   2.757  0.00  0.00    -0.072 A 
ATOM     19  C11 O2N d         -11.353  48.188   3.146  0.00  0.00    -0.050 A 
ATOM     20  H6  O2N d          -9.937  46.928   2.138  0.00  0.00     0.084 H 
ATOM     21  C23 O2N d         -11.466  49.318   3.996  0.00  0.00     0.068 A 
ATOM     22  H11 O2N d         -12.228  47.642   2.811  0.00  0.00     0.087 H 
ATOM     23  C12 O2N d         -10.371  50.082   4.366  0.00  0.00    -0.050 A 
ATOM     24  C7  O2N d          -9.110  49.656   3.921  0.00  0.00    -0.072 A 
ATOM     25  H12 O2N d         -10.484  50.972   4.974  0.00  0.00     0.087 H 
ATOM     26  H7  O2N d          -8.237  50.235   4.201  0.00  0.00     0.084 H 
BRANCH  21  27
ATOM     27  O43 O2N d         -12.764  49.688   4.387  0.00  0.00    -0.356 OA
BRANCH  27  28
ATOM     28  C30 O2N d         -12.967  50.459   5.590  0.00  0.00     0.010 C 
ATOM     29  H20 O2N d         -12.959  51.531   5.345  0.00  0.00     0.066 H 
ATOM     30  H21 O2N d         -12.160  50.241   6.305  0.00  0.00     0.066 H 
ATOM     31  H22 O2N d         -13.935  50.192   6.038  0.00  0.00     0.066 H 
ENDBRANCH  27  28
ENDBRANCH  21  27
ENDBRANCH  15  17
BRANCH  15  32
ATOM     32  C18 O2N d          -6.979  48.768   1.423  0.00  0.00    -0.031 A 
ATOM     33  C8  O2N d          -5.710  48.383   1.008  0.00  0.00    -0.072 A 
ATOM     34  C13 O2N d          -5.174  48.945  -0.149  0.00  0.00    -0.050 A 
ATOM     35  H8  O2N d          -5.145  47.655   1.577  0.00  0.00     0.084 H 
ATOM     36  C24 O2N d          -5.867  49.893  -0.892  0.00  0.00     0.068 A 
ATOM     37  H13 O2N d          -4.189  48.634  -0.478  0.00  0.00     0.087 H 
ATOM     38  C14 O2N d          -7.130  50.318  -0.523  0.00  0.00    -0.050 A 
ATOM     39  C9  O2N d          -7.654  49.694   0.635  0.00  0.00    -0.072 A 
ATOM     40  H14 O2N d          -7.677  51.071  -1.079  0.00  0.00     0.087 H 
ATOM     41  H9  O2N d          -8.662  49.960   0.931  0.00  0.00     0.084 H 
BRANCH  36  42
ATOM     42  O44 O2N d          -5.198  50.386  -2.012  0.00  0.00    -0.356 OA
BRANCH  42  43
ATOM     43  C31 O2N d          -5.953  51.383  -2.700  0.00  0.00     0.010 C 
ATOM     44  H23 O2N d          -7.017  51.102  -2.701  0.00  0.00     0.066 H 
ATOM     45  H24 O2N d          -5.594  51.464  -3.737  0.00  0.00     0.066 H 
ATOM     46  H25 O2N d          -5.831  52.352  -2.193  0.00  0.00     0.066 H 
ENDBRANCH  42  43
ENDBRANCH  36  42
ENDBRANCH  15  32
ENDBRANCH  12  15
ENDBRANCH   5  11
BRANCH   6  47
ATOM     47  C32 O2N d         -10.280  44.468   0.487  0.00  0.00     0.109 C 
ATOM     48  H26 O2N d         -10.410  45.321   1.169  0.00  0.00     0.083 H 
ATOM     49  H27 O2N d         -11.049  43.710   0.697  0.00  0.00     0.083 H 
BRANCH  47  50
ATOM     50  N37 O2N d         -10.491  44.967  -0.935  0.00  0.00    -0.060 N 
ATOM     51  H34 O2N d          -9.820  45.706  -1.083  0.00  0.00     0.281 HD
BRANCH  50  52
ATOM     52  C33 O2N d         -11.893  45.583  -1.261  0.00  0.00     0.109 C 
ATOM     53  H28 O2N d         -12.111  45.458  -2.332  0.00  0.00     0.083 H 
ATOM     54  H29 O2N d         -12.667  45.075  -0.667  0.00  0.00     0.083 H 
BRANCH  52  55
ATOM     55  C20 O2N d         -11.872  47.065  -0.913  0.00  0.00    -0.013 A 
ATOM     56  C5  O2N d         -10.829  47.951  -1.303  0.00  0.00    -0.071 A 
ATOM     57  C10 O2N d         -10.841  49.344  -0.975  0.00  0.00    -0.047 A 
ATOM     58  H5  O2N d          -9.994  47.555  -1.870  0.00  0.00     0.084 H 
ATOM     59  C21 O2N d         -11.911  49.765  -0.222  0.00  0.00     0.106 A 
ATOM     60  H10 O2N d         -10.060  50.021  -1.299  0.00  0.00     0.087 H 
ATOM     61  C22 O2N d         -12.935  48.912   0.150  0.00  0.00     0.122 A 
ATOM     62  O41 O2N d         -12.142  51.028   0.230  0.00  0.00    -0.323 OA
ATOM     63  C16 O2N d         -12.961  47.552  -0.164  0.00  0.00     0.085 A 
ATOM     64  O42 O2N d         -13.921  49.558   0.907  0.00  0.00    -0.322 OA
ATOM     65  C29 O2N d         -13.419  50.910   0.888  0.00  0.00     0.115 A 
ATOM     66  H18 O2N d         -14.145  51.546   0.361  0.00  0.00     0.118 H 
ATOM     67  H19 O2N d         -13.313  51.259   1.926  0.00  0.00     0.118 H 
BRANCH  63  68
ATOM     68  C28 O2N d         -14.167  46.742   0.255  0.00  0.00     0.212 C 
ATOM     69  O38 O2N d         -14.873  46.303  -0.709  0.00  0.00    -0.644 OA
ATOM     70  O40 O2N d         -14.428  46.370   1.445  0.00  0.00    -0.644 OA
ENDBRANCH  63  68
ENDBRANCH  52  55
ENDBRANCH  50  52
BRANCH  50  71
ATOM     71  C34 O2N d         -10.159  43.855  -1.882  0.00  0.00     0.099 C 
ATOM     72  H30 O2N d          -9.878  44.312  -2.841  0.00  0.00     0.082 H 
ATOM     73  H31 O2N d          -9.297  43.313  -1.466  0.00  0.00     0.082 H 
BRANCH  71  74
ATOM     74  C26 O2N d         -11.235  42.842  -2.163  0.00  0.00    -0.087 C 
ATOM     75  C25 O2N d         -11.129  41.581  -1.708  0.00  0.00    -0.123 C 
ATOM     76  H15 O2N d         -11.916  40.858  -1.918  0.00  0.00     0.066 H 
ATOM     77  H16 O2N d         -10.256  41.283  -1.128  0.00  0.00     0.066 H 
ATOM     78  H17 O2N d         -12.110  43.133  -2.742  0.00  0.00     0.078 H 
ENDBRANCH  71  74
ENDBRANCH  50  71
ENDBRANCH  47  50
ENDBRANCH   6  47
TORSDOF 15
ENDMDL
MODEL 6
REMARK VINA RESULT:      -5.5      2.295      6.176
REMARK  15 active torsions:
REMARK  status: ('A' for Active; 'I' for Inactive)
REMARK    1  A    between atoms: C27_27  and  C15_15 
REMARK    2  A    between atoms: C16_16  and  C28_28 
REMARK    3  A    between atoms: C35_35  and  C17_17 
REMARK    4  A    between atoms: C35_35  and  C18_18 
REMARK    5  A    between atoms: C19_19  and  C32_32 
REMARK    6  A    between atoms: C33_33  and  C20_20 
REMARK    7  A    between atoms: C23_23  and  O43_43 
REMARK    8  A    between atoms: C24_24  and  O44_44 
REMARK    9  A    between atoms: C34_34  and  C26_26 
REMARK       I    between atoms: N36_36  and  C27_27 
REMARK   10  A    between atoms: O43_43  and  C30_30 
REMARK   11  A    between atoms: O44_44  and  C31_31 
REMARK   12  A    between atoms: C32_32  and  N37_37 
REMARK   13  A    between atoms: N37_37  and  C33_33 
REMARK   14  A    between atoms: N37_37  and  C34_34 
REMARK   15  A    between atoms: C35_35  and  N36_36 
ROOT
ATOM      1  C1  O2N d          -6.268  49.659  -1.609  0.00  0.00    -0.082 A 
ATOM      2  C2  O2N d          -5.428  49.289  -0.582  0.00  0.00    -0.082 A 
ATOM      3  C3  O2N d          -7.603  49.887  -1.298  0.00  0.00    -0.067 A 
ATOM      4  C4  O2N d          -5.875  49.154   0.723  0.00  0.00    -0.074 A 
ATOM      5  C15 O2N d          -8.070  49.754  -0.003  0.00  0.00     0.040 A 
ATOM      6  C19 O2N d          -7.203  49.384   1.025  0.00  0.00    -0.017 A 
ATOM      7  H1  O2N d          -5.901  49.769  -2.623  0.00  0.00     0.083 H 
ATOM      8  H2  O2N d          -4.384  49.098  -0.802  0.00  0.00     0.083 H 
ATOM      9  H3  O2N d          -8.291  50.173  -2.086  0.00  0.00     0.085 H 
ATOM     10  H4  O2N d          -5.182  48.867   1.507  0.00  0.00     0.084 H 
ENDROOT
BRANCH   5  11
ATOM     11  C27 O2N d          -9.494  50.038   0.274  0.00  0.00     0.253 C 
ATOM     12  N36 O2N d         -10.358  48.956   0.446  0.00  0.00    -0.344 N 
ATOM     13  H33 O2N d          -9.998  48.029   0.341  0.00  0.00     0.163 HD
ATOM     14  O39 O2N d          -9.843  51.222   0.314  0.00  0.00    -0.268 OA
BRANCH  12  15
ATOM     15  C35 O2N d         -11.762  49.131   0.771  0.00  0.00     0.063 C 
ATOM     16  H32 O2N d         -12.130  50.026   0.249  0.00  0.00     0.088 H 
BRANCH  15  17
ATOM     17  C17 O2N d         -11.895  49.412   2.279  0.00  0.00    -0.031 A 
ATOM     18  C6  O2N d         -11.297  48.569   3.208  0.00  0.00    -0.072 A 
ATOM     19  C11 O2N d         -11.414  48.779   4.588  0.00  0.00    -0.050 A 
ATOM     20  H6  O2N d         -10.722  47.721   2.853  0.00  0.00     0.084 H 
ATOM     21  C23 O2N d         -12.134  49.927   5.007  0.00  0.00     0.068 A 
ATOM     22  H11 O2N d         -10.974  48.094   5.304  0.00  0.00     0.087 H 
ATOM     23  C12 O2N d         -12.777  50.768   4.114  0.00  0.00    -0.050 A 
ATOM     24  C7  O2N d         -12.636  50.484   2.747  0.00  0.00    -0.072 A 
ATOM     25  H12 O2N d         -13.365  51.612   4.457  0.00  0.00     0.087 H 
ATOM     26  H7  O2N d         -13.127  51.129   2.028  0.00  0.00     0.084 H 
BRANCH  21  27
ATOM     27  O43 O2N d         -12.240  50.136   6.393  0.00  0.00    -0.356 OA
BRANCH  27  28
ATOM     28  C30 O2N d         -12.788  49.104   7.241  0.00  0.00     0.010 C 
ATOM     29  H20 O2N d         -12.856  48.162   6.676  0.00  0.00     0.066 H 
ATOM     30  H21 O2N d         -13.791  49.402   7.580  0.00  0.00     0.066 H 
ATOM     31  H22 O2N d         -12.134  48.961   8.114  0.00  0.00     0.066 H 
ENDBRANCH  27  28
ENDBRANCH  21  27
ENDBRANCH  15  17
BRANCH  15  32
ATOM     32  C18 O2N d         -12.545  47.944   0.216  0.00  0.00    -0.031 A 
ATOM     33  C8  O2N d         -12.035  47.327  -0.920  0.00  0.00    -0.072 A 
ATOM     34  C13 O2N d         -12.692  46.216  -1.443  0.00  0.00    -0.050 A 
ATOM     35  H8  O2N d         -11.137  47.707  -1.393  0.00  0.00     0.084 H 
ATOM     36  C24 O2N d         -13.855  45.714  -0.868  0.00  0.00     0.068 A 
ATOM     37  H13 O2N d         -12.286  45.729  -2.322  0.00  0.00     0.087 H 
ATOM     38  C14 O2N d         -14.410  46.291   0.258  0.00  0.00    -0.050 A 
ATOM     39  C9  O2N d         -13.691  47.394   0.780  0.00  0.00    -0.072 A 
ATOM     40  H14 O2N d         -15.327  45.927   0.707  0.00  0.00     0.087 H 
ATOM     41  H9  O2N d         -14.064  47.845   1.693  0.00  0.00     0.084 H 
BRANCH  36  42
ATOM     42  O44 O2N d         -14.417  44.612  -1.512  0.00  0.00    -0.356 OA
BRANCH  42  43
ATOM     43  C31 O2N d         -14.157  44.614  -2.916  0.00  0.00     0.010 C 
ATOM     44  H23 O2N d         -13.116  44.920  -3.096  0.00  0.00     0.066 H 
ATOM     45  H24 O2N d         -14.838  45.320  -3.414  0.00  0.00     0.066 H 
ATOM     46  H25 O2N d         -14.318  43.603  -3.320  0.00  0.00     0.066 H 
ENDBRANCH  42  43
ENDBRANCH  36  42
ENDBRANCH  15  32
ENDBRANCH  12  15
ENDBRANCH   5  11
BRANCH   6  47
ATOM     47  C32 O2N d          -7.638  49.246   2.446  0.00  0.00     0.109 C 
ATOM     48  H26 O2N d          -8.712  49.011   2.452  0.00  0.00     0.083 H 
ATOM     49  H27 O2N d          -7.471  50.211   2.948  0.00  0.00     0.083 H 
BRANCH  47  50
ATOM     50  N37 O2N d          -6.918  48.171   3.246  0.00  0.00    -0.060 N 
ATOM     51  H34 O2N d          -6.272  47.726   2.613  0.00  0.00     0.281 HD
BRANCH  50  52
ATOM     52  C33 O2N d          -7.805  47.025   3.838  0.00  0.00     0.109 C 
ATOM     53  H28 O2N d          -7.708  47.010   4.934  0.00  0.00     0.083 H 
ATOM     54  H29 O2N d          -8.858  47.195   3.566  0.00  0.00     0.083 H 
BRANCH  52  55
ATOM     55  C20 O2N d          -7.337  45.695   3.265  0.00  0.00    -0.013 A 
ATOM     56  C5  O2N d          -6.273  44.930   3.819  0.00  0.00    -0.071 A 
ATOM     57  C10 O2N d          -5.862  43.674   3.269  0.00  0.00    -0.047 A 
ATOM     58  H5  O2N d          -5.754  45.313   4.690  0.00  0.00     0.084 H 
ATOM     59  C21 O2N d          -6.539  43.272   2.143  0.00  0.00     0.106 A 
ATOM     60  H10 O2N d          -5.070  43.080   3.710  0.00  0.00     0.087 H 
ATOM     61  C22 O2N d          -7.583  44.004   1.606  0.00  0.00     0.122 A 
ATOM     62  O41 O2N d          -6.326  42.133   1.427  0.00  0.00    -0.323 OA
ATOM     63  C16 O2N d          -8.017  45.225   2.124  0.00  0.00     0.085 A 
ATOM     64  O42 O2N d          -8.128  43.402   0.465  0.00  0.00    -0.322 OA
ATOM     65  C29 O2N d          -7.350  42.188   0.414  0.00  0.00     0.115 A 
ATOM     66  H18 O2N d          -8.026  41.332   0.552  0.00  0.00     0.118 H 
ATOM     67  H19 O2N d          -6.870  42.121  -0.574  0.00  0.00     0.118 H 
BRANCH  63  68
ATOM     68  C28 O2N d          -9.207  45.897   1.476  0.00  0.00     0.212 C 
ATOM     69  O38 O2N d          -8.959  46.453   0.358  0.00  0.00    -0.644 OA
ATOM     70  O40 O2N d         -10.409  45.824   1.888  0.00  0.00    -0.644 OA
ENDBRANCH  63  68
ENDBRANCH  52  55
ENDBRANCH  50  52
BRANCH  50  71
ATOM     71  C34 O2N d          -6.115  48.838   4.321  0.00  0.00     0.099 C 
ATOM     72  H30 O2N d          -5.829  49.832   3.950  0.00  0.00     0.082 H 
ATOM     73  H31 O2N d          -6.768  48.948   5.200  0.00  0.00     0.082 H 
BRANCH  71  74
ATOM     74  C26 O2N d          -4.859  48.147   4.777  0.00  0.00    -0.087 C 
ATOM     75  C25 O2N d          -4.687  47.812   6.068  0.00  0.00    -0.123 C 
ATOM     76  H15 O2N d          -3.773  47.311   6.383  0.00  0.00     0.066 H 
ATOM     77  H16 O2N d          -5.463  48.040   6.798  0.00  0.00     0.066 H 
ATOM     78  H17 O2N d          -4.080  47.916   4.052  0.00  0.00     0.078 H 
ENDBRANCH  71  74
ENDBRANCH  50  71
ENDBRANCH  47  50
ENDBRANCH   6  47
TORSDOF 15
ENDMDL
MODEL 7
REMARK VINA RESULT:      -5.3      2.387      5.571
REMARK  15 active torsions:
REMARK  status: ('A' for Active; 'I' for Inactive)
REMARK    1  A    between atoms: C27_27  and  C15_15 
REMARK    2  A    between atoms: C16_16  and  C28_28 
REMARK    3  A    between atoms: C35_35  and  C17_17 
REMARK    4  A    between atoms: C35_35  and  C18_18 
REMARK    5  A    between atoms: C19_19  and  C32_32 
REMARK    6  A    between atoms: C33_33  and  C20_20 
REMARK    7  A    between atoms: C23_23  and  O43_43 
REMARK    8  A    between atoms: C24_24  and  O44_44 
REMARK    9  A    between atoms: C34_34  and  C26_26 
REMARK       I    between atoms: N36_36  and  C27_27 
REMARK   10  A    between atoms: O43_43  and  C30_30 
REMARK   11  A    between atoms: O44_44  and  C31_31 
REMARK   12  A    between atoms: C32_32  and  N37_37 
REMARK   13  A    between atoms: N37_37  and  C33_33 
REMARK   14  A    between atoms: N37_37  and  C34_34 
REMARK   15  A    between atoms: C35_35  and  N36_36 
ROOT
ATOM      1  C1  O2N d         -12.339  44.125  -0.918  0.00  0.00    -0.082 A 
ATOM      2  C2  O2N d         -12.989  45.298  -1.232  0.00  0.00    -0.082 A 
ATOM      3  C3  O2N d         -10.957  44.171  -0.782  0.00  0.00    -0.067 A 
ATOM      4  C4  O2N d         -12.309  46.494  -1.399  0.00  0.00    -0.074 A 
ATOM      5  C15 O2N d         -10.260  45.354  -0.948  0.00  0.00     0.040 A 
ATOM      6  C19 O2N d         -10.936  46.533  -1.260  0.00  0.00    -0.017 A 
ATOM      7  H1  O2N d         -12.886  43.199  -0.783  0.00  0.00     0.083 H 
ATOM      8  H2  O2N d         -14.066  45.284  -1.351  0.00  0.00     0.083 H 
ATOM      9  H3  O2N d         -10.415  43.262  -0.542  0.00  0.00     0.085 H 
ATOM     10  H4  O2N d         -12.856  47.399  -1.639  0.00  0.00     0.084 H 
ENDROOT
BRANCH   5  11
ATOM     11  C27 O2N d          -8.792  45.349  -0.761  0.00  0.00     0.253 C 
ATOM     12  N36 O2N d          -8.260  46.124   0.270  0.00  0.00    -0.344 N 
ATOM     13  H33 O2N d          -8.878  46.683   0.823  0.00  0.00     0.163 HD
ATOM     14  O39 O2N d          -8.119  44.677  -1.547  0.00  0.00    -0.268 OA
BRANCH  12  15
ATOM     15  C35 O2N d          -6.839  46.147   0.566  0.00  0.00     0.063 C 
ATOM     16  H32 O2N d          -6.323  45.508  -0.166  0.00  0.00     0.088 H 
BRANCH  15  17
ATOM     17  C17 O2N d          -6.606  45.514   1.949  0.00  0.00    -0.031 A 
ATOM     18  C6  O2N d          -5.959  44.290   2.064  0.00  0.00    -0.072 A 
ATOM     19  C11 O2N d          -5.747  43.673   3.303  0.00  0.00    -0.050 A 
ATOM     20  H6  O2N d          -5.606  43.797   1.165  0.00  0.00     0.084 H 
ATOM     21  C23 O2N d          -6.179  44.376   4.457  0.00  0.00     0.068 A 
ATOM     22  H11 O2N d          -5.273  42.700   3.377  0.00  0.00     0.087 H 
ATOM     23  C12 O2N d          -6.863  45.578   4.381  0.00  0.00    -0.050 A 
ATOM     24  C7  O2N d          -7.060  46.127   3.105  0.00  0.00    -0.072 A 
ATOM     25  H12 O2N d          -7.230  46.075   5.272  0.00  0.00     0.087 H 
ATOM     26  H7  O2N d          -7.589  47.069   3.020  0.00  0.00     0.084 H 
BRANCH  21  27
ATOM     27  O43 O2N d          -5.956  43.753   5.697  0.00  0.00    -0.356 OA
BRANCH  27  28
ATOM     28  C30 O2N d          -4.703  43.943   6.388  0.00  0.00     0.010 C 
ATOM     29  H20 O2N d          -4.003  43.144   6.105  0.00  0.00     0.066 H 
ATOM     30  H21 O2N d          -4.875  43.911   7.474  0.00  0.00     0.066 H 
ATOM     31  H22 O2N d          -4.277  44.919   6.114  0.00  0.00     0.066 H 
ENDBRANCH  27  28
ENDBRANCH  21  27
ENDBRANCH  15  17
BRANCH  15  32
ATOM     32  C18 O2N d          -6.317  47.566   0.356  0.00  0.00    -0.031 A 
ATOM     33  C8  O2N d          -6.293  48.043  -0.949  0.00  0.00    -0.072 A 
ATOM     34  C13 O2N d          -5.862  49.346  -1.188  0.00  0.00    -0.050 A 
ATOM     35  H8  O2N d          -6.607  47.409  -1.770  0.00  0.00     0.084 H 
ATOM     36  C24 O2N d          -5.439  50.179  -0.158  0.00  0.00     0.068 A 
ATOM     37  H13 O2N d          -5.856  49.721  -2.206  0.00  0.00     0.087 H 
ATOM     38  C14 O2N d          -5.435  49.756   1.157  0.00  0.00    -0.050 A 
ATOM     39  C9  O2N d          -5.917  48.440   1.362  0.00  0.00    -0.072 A 
ATOM     40  H14 O2N d          -5.090  50.383   1.970  0.00  0.00     0.087 H 
ATOM     41  H9  O2N d          -5.980  48.085   2.384  0.00  0.00     0.084 H 
BRANCH  36  42
ATOM     42  O44 O2N d          -5.012  51.448  -0.548  0.00  0.00    -0.356 OA
BRANCH  42  43
ATOM     43  C31 O2N d          -3.841  51.400  -1.363  0.00  0.00     0.010 C 
ATOM     44  H23 O2N d          -3.030  51.958  -0.872  0.00  0.00     0.066 H 
ATOM     45  H24 O2N d          -4.057  51.853  -2.342  0.00  0.00     0.066 H 
ATOM     46  H25 O2N d          -3.534  50.353  -1.503  0.00  0.00     0.066 H 
ENDBRANCH  42  43
ENDBRANCH  36  42
ENDBRANCH  15  32
ENDBRANCH  12  15
ENDBRANCH   5  11
BRANCH   6  47
ATOM     47  C32 O2N d         -10.246  47.846  -1.429  0.00  0.00     0.109 C 
ATOM     48  H26 O2N d         -10.465  48.217  -2.441  0.00  0.00     0.083 H 
ATOM     49  H27 O2N d          -9.164  47.678  -1.326  0.00  0.00     0.083 H 
BRANCH  47  50
ATOM     50  N37 O2N d         -10.648  48.926  -0.435  0.00  0.00    -0.060 N 
ATOM     51  H34 O2N d         -10.243  48.667   0.451  0.00  0.00     0.281 HD
BRANCH  50  52
ATOM     52  C33 O2N d         -12.182  49.103  -0.175  0.00  0.00     0.109 C 
ATOM     53  H28 O2N d         -12.604  49.802  -0.912  0.00  0.00     0.083 H 
ATOM     54  H29 O2N d         -12.686  48.129  -0.263  0.00  0.00     0.083 H 
BRANCH  52  55
ATOM     55  C20 O2N d         -12.382  49.656   1.228  0.00  0.00    -0.013 A 
ATOM     56  C5  O2N d         -12.892  50.958   1.496  0.00  0.00    -0.071 A 
ATOM     57  C10 O2N d         -13.085  51.449   2.826  0.00  0.00    -0.047 A 
ATOM     58  H5  O2N d         -13.144  51.601   0.660  0.00  0.00     0.084 H 
ATOM     59  C21 O2N d         -12.707  50.594   3.833  0.00  0.00     0.106 A 
ATOM     60  H10 O2N d         -13.500  52.430   3.026  0.00  0.00     0.087 H 
ATOM     61  C22 O2N d         -12.222  49.322   3.581  0.00  0.00     0.122 A 
ATOM     62  O41 O2N d         -12.772  50.831   5.172  0.00  0.00    -0.323 OA
ATOM     63  C16 O2N d         -12.034  48.808   2.297  0.00  0.00     0.085 A 
ATOM     64  O42 O2N d         -11.906  48.627   4.755  0.00  0.00    -0.322 OA
ATOM     65  C29 O2N d         -12.324  49.589   5.747  0.00  0.00     0.115 A 
ATOM     66  H18 O2N d         -13.149  49.155   6.330  0.00  0.00     0.118 H 
ATOM     67  H19 O2N d         -11.474  49.797   6.413  0.00  0.00     0.118 H 
BRANCH  63  68
ATOM     68  C28 O2N d         -11.550  47.382   2.160  0.00  0.00     0.212 C 
ATOM     69  O38 O2N d         -12.472  46.524   1.974  0.00  0.00    -0.644 OA
ATOM     70  O40 O2N d         -10.331  47.022   2.080  0.00  0.00    -0.644 OA
ENDBRANCH  63  68
ENDBRANCH  52  55
ENDBRANCH  50  52
BRANCH  50  71
ATOM     71  C34 O2N d         -10.024  50.219  -0.862  0.00  0.00     0.099 C 
ATOM     72  H30 O2N d          -9.545  50.048  -1.837  0.00  0.00     0.082 H 
ATOM     73  H31 O2N d         -10.833  50.955  -0.975  0.00  0.00     0.082 H 
BRANCH  71  74
ATOM     74  C26 O2N d          -8.990  50.822   0.049  0.00  0.00    -0.087 C 
ATOM     75  C25 O2N d          -9.032  50.605   1.376  0.00  0.00    -0.123 C 
ATOM     76  H15 O2N d          -8.276  51.047   2.024  0.00  0.00     0.066 H 
ATOM     77  H16 O2N d          -9.820  49.986   1.802  0.00  0.00     0.066 H 
ATOM     78  H17 O2N d          -8.199  51.442  -0.370  0.00  0.00     0.078 H 
ENDBRANCH  71  74
ENDBRANCH  50  71
ENDBRANCH  47  50
ENDBRANCH   6  47
TORSDOF 15
ENDMDL
MODEL 8
REMARK VINA RESULT:      -5.1      2.347      5.811
REMARK  15 active torsions:
REMARK  status: ('A' for Active; 'I' for Inactive)
REMARK    1  A    between atoms: C27_27  and  C15_15 
REMARK    2  A    between atoms: C16_16  and  C28_28 
REMARK    3  A    between atoms: C35_35  and  C17_17 
REMARK    4  A    between atoms: C35_35  and  C18_18 
REMARK    5  A    between atoms: C19_19  and  C32_32 
REMARK    6  A    between atoms: C33_33  and  C20_20 
REMARK    7  A    between atoms: C23_23  and  O43_43 
REMARK    8  A    between atoms: C24_24  and  O44_44 
REMARK    9  A    between atoms: C34_34  and  C26_26 
REMARK       I    between atoms: N36_36  and  C27_27 
REMARK   10  A    between atoms: O43_43  and  C30_30 
REMARK   11  A    between atoms: O44_44  and  C31_31 
REMARK   12  A    between atoms: C32_32  and  N37_37 
REMARK   13  A    between atoms: N37_37  and  C33_33 
REMARK   14  A    between atoms: N37_37  and  C34_34 
REMARK   15  A    between atoms: C35_35  and  N36_36 
ROOT
ATOM      1  C1  O2N d         -12.080  44.995   0.277  0.00  0.00    -0.082 A 
ATOM      2  C2  O2N d         -12.621  46.079  -0.377  0.00  0.00    -0.082 A 
ATOM      3  C3  O2N d         -10.695  44.899   0.329  0.00  0.00    -0.067 A 
ATOM      4  C4  O2N d         -11.830  47.057  -0.960  0.00  0.00    -0.074 A 
ATOM      5  C15 O2N d          -9.888  45.862  -0.249  0.00  0.00     0.040 A 
ATOM      6  C19 O2N d         -10.454  46.956  -0.902  0.00  0.00    -0.017 A 
ATOM      7  H1  O2N d         -12.712  44.243   0.735  0.00  0.00     0.083 H 
ATOM      8  H2  O2N d         -13.699  46.171  -0.438  0.00  0.00     0.083 H 
ATOM      9  H3  O2N d         -10.239  44.053   0.832  0.00  0.00     0.085 H 
ATOM     10  H4  O2N d         -12.292  47.900  -1.461  0.00  0.00     0.084 H 
ENDROOT
BRANCH   5  11
ATOM     11  C27 O2N d          -8.419  45.724  -0.136  0.00  0.00     0.253 C 
ATOM     12  N36 O2N d          -7.789  46.297   0.969  0.00  0.00    -0.344 N 
ATOM     13  H33 O2N d          -8.340  46.812   1.626  0.00  0.00     0.163 HD
ATOM     14  O39 O2N d          -7.831  45.128  -1.042  0.00  0.00    -0.268 OA
BRANCH  12  15
ATOM     15  C35 O2N d          -6.362  46.173   1.196  0.00  0.00     0.063 C 
ATOM     16  H32 O2N d          -5.947  45.497   0.433  0.00  0.00     0.088 H 
BRANCH  15  17
ATOM     17  C17 O2N d          -6.128  45.499   2.560  0.00  0.00    -0.031 A 
ATOM     18  C6  O2N d          -4.885  44.966   2.878  0.00  0.00    -0.072 A 
ATOM     19  C11 O2N d          -4.640  44.326   4.100  0.00  0.00    -0.050 A 
ATOM     20  H6  O2N d          -4.079  45.048   2.157  0.00  0.00     0.084 H 
ATOM     21  C23 O2N d          -5.707  44.285   5.033  0.00  0.00     0.068 A 
ATOM     22  H11 O2N d          -3.676  43.882   4.322  0.00  0.00     0.087 H 
ATOM     23  C12 O2N d          -6.971  44.769   4.737  0.00  0.00    -0.050 A 
ATOM     24  C7  O2N d          -7.151  45.377   3.485  0.00  0.00    -0.072 A 
ATOM     25  H12 O2N d          -7.788  44.682   5.444  0.00  0.00     0.087 H 
ATOM     26  H7  O2N d          -8.129  45.767   3.232  0.00  0.00     0.084 H 
BRANCH  21  27
ATOM     27  O43 O2N d          -5.451  43.648   6.259  0.00  0.00    -0.356 OA
BRANCH  27  28
ATOM     28  C30 O2N d          -4.129  43.693   6.837  0.00  0.00     0.010 C 
ATOM     29  H20 O2N d          -3.446  43.070   6.240  0.00  0.00     0.066 H 
ATOM     30  H21 O2N d          -4.166  43.311   7.867  0.00  0.00     0.066 H 
ATOM     31  H22 O2N d          -3.766  44.731   6.844  0.00  0.00     0.066 H 
ENDBRANCH  27  28
ENDBRANCH  21  27
ENDBRANCH  15  17
BRANCH  15  32
ATOM     32  C18 O2N d          -5.710  47.536   0.977  0.00  0.00    -0.031 A 
ATOM     33  C8  O2N d          -5.696  48.027  -0.323  0.00  0.00    -0.072 A 
ATOM     34  C13 O2N d          -5.147  49.284  -0.570  0.00  0.00    -0.050 A 
ATOM     35  H8  O2N d          -6.107  47.439  -1.135  0.00  0.00     0.084 H 
ATOM     36  C24 O2N d          -4.598  50.056   0.448  0.00  0.00     0.068 A 
ATOM     37  H13 O2N d          -5.149  49.670  -1.582  0.00  0.00     0.087 H 
ATOM     38  C14 O2N d          -4.579  49.616   1.758  0.00  0.00    -0.050 A 
ATOM     39  C9  O2N d          -5.181  48.351   1.972  0.00  0.00    -0.072 A 
ATOM     40  H14 O2N d          -4.137  50.194   2.561  0.00  0.00     0.087 H 
ATOM     41  H9  O2N d          -5.233  47.990   2.992  0.00  0.00     0.084 H 
BRANCH  36  42
ATOM     42  O44 O2N d          -4.064  51.282   0.052  0.00  0.00    -0.356 OA
BRANCH  42  43
ATOM     43  C31 O2N d          -4.082  51.448  -1.366  0.00  0.00     0.010 C 
ATOM     44  H23 O2N d          -4.573  50.580  -1.831  0.00  0.00     0.066 H 
ATOM     45  H24 O2N d          -3.050  51.530  -1.738  0.00  0.00     0.066 H 
ATOM     46  H25 O2N d          -4.637  52.363  -1.620  0.00  0.00     0.066 H 
ENDBRANCH  42  43
ENDBRANCH  36  42
ENDBRANCH  15  32
ENDBRANCH  12  15
ENDBRANCH   5  11
BRANCH   6  47
ATOM     47  C32 O2N d          -9.640  48.041  -1.526  0.00  0.00     0.109 C 
ATOM     48  H26 O2N d         -10.223  48.470  -2.354  0.00  0.00     0.083 H 
ATOM     49  H27 O2N d          -8.718  47.590  -1.922  0.00  0.00     0.083 H 
BRANCH  47  50
ATOM     50  N37 O2N d          -9.243  49.176  -0.594  0.00  0.00    -0.060 N 
ATOM     51  H34 O2N d          -8.561  48.798   0.046  0.00  0.00     0.281 HD
BRANCH  50  52
ATOM     52  C33 O2N d         -10.381  49.783   0.295  0.00  0.00     0.109 C 
ATOM     53  H28 O2N d         -10.373  50.880   0.206  0.00  0.00     0.083 H 
ATOM     54  H29 O2N d         -11.355  49.396  -0.037  0.00  0.00     0.083 H 
BRANCH  52  55
ATOM     55  C20 O2N d         -10.138  49.386   1.744  0.00  0.00    -0.013 A 
ATOM     56  C5  O2N d          -8.857  49.050   2.264  0.00  0.00    -0.071 A 
ATOM     57  C10 O2N d          -8.653  48.694   3.635  0.00  0.00    -0.047 A 
ATOM     58  H5  O2N d          -8.003  49.065   1.596  0.00  0.00     0.084 H 
ATOM     59  C21 O2N d          -9.787  48.658   4.411  0.00  0.00     0.106 A 
ATOM     60  H10 O2N d          -7.672  48.467   4.035  0.00  0.00     0.087 H 
ATOM     61  C22 O2N d         -11.034  48.996   3.915  0.00  0.00     0.122 A 
ATOM     62  O41 O2N d          -9.861  48.334   5.731  0.00  0.00    -0.323 OA
ATOM     63  C16 O2N d         -11.265  49.360   2.588  0.00  0.00     0.085 A 
ATOM     64  O42 O2N d         -12.040  48.893   4.884  0.00  0.00    -0.322 OA
ATOM     65  C29 O2N d         -11.254  48.531   6.039  0.00  0.00     0.115 A 
ATOM     66  H18 O2N d         -11.338  49.333   6.786  0.00  0.00     0.118 H 
ATOM     67  H19 O2N d         -11.657  47.597   6.458  0.00  0.00     0.118 H 
BRANCH  63  68
ATOM     68  C28 O2N d         -12.667  49.759   2.188  0.00  0.00     0.212 C 
ATOM     69  O38 O2N d         -13.419  48.790   1.848  0.00  0.00    -0.644 OA
ATOM     70  O40 O2N d         -13.161  50.927   2.300  0.00  0.00    -0.644 OA
ENDBRANCH  63  68
ENDBRANCH  52  55
ENDBRANCH  50  52
BRANCH  50  71
ATOM     71  C34 O2N d          -8.568  50.241  -1.403  0.00  0.00     0.099 C 
ATOM     72  H30 O2N d          -7.893  50.788  -0.730  0.00  0.00     0.082 H 
ATOM     73  H31 O2N d          -7.980  49.738  -2.185  0.00  0.00     0.082 H 
BRANCH  71  74
ATOM     74  C26 O2N d          -9.447  51.255  -2.083  0.00  0.00    -0.087 C 
ATOM     75  C25 O2N d          -9.371  51.451  -3.411  0.00  0.00    -0.123 C 
ATOM     76  H15 O2N d         -10.013  52.188  -3.891  0.00  0.00     0.066 H 
ATOM     77  H16 O2N d          -8.667  50.872  -4.008  0.00  0.00     0.066 H 
ATOM     78  H17 O2N d         -10.153  51.837  -1.493  0.00  0.00     0.078 H 
ENDBRANCH  71  74
ENDBRANCH  50  71
ENDBRANCH  47  50
ENDBRANCH   6  47
TORSDOF 15
ENDMDL
MODEL 9
REMARK VINA RESULT:      -5.0      2.095      6.850
REMARK  15 active torsions:
REMARK  status: ('A' for Active; 'I' for Inactive)
REMARK    1  A    between atoms: C27_27  and  C15_15 
REMARK    2  A    between atoms: C16_16  and  C28_28 
REMARK    3  A    between atoms: C35_35  and  C17_17 
REMARK    4  A    between atoms: C35_35  and  C18_18 
REMARK    5  A    between atoms: C19_19  and  C32_32 
REMARK    6  A    between atoms: C33_33  and  C20_20 
REMARK    7  A    between atoms: C23_23  and  O43_43 
REMARK    8  A    between atoms: C24_24  and  O44_44 
REMARK    9  A    between atoms: C34_34  and  C26_26 
REMARK       I    between atoms: N36_36  and  C27_27 
REMARK   10  A    between atoms: O43_43  and  C30_30 
REMARK   11  A    between atoms: O44_44  and  C31_31 
REMARK   12  A    between atoms: C32_32  and  N37_37 
REMARK   13  A    between atoms: N37_37  and  C33_33 
REMARK   14  A    between atoms: N37_37  and  C34_34 
REMARK   15  A    between atoms: C35_35  and  N36_36 
ROOT
ATOM      1  C1  O2N d         -12.124  49.574   5.428  0.00  0.00    -0.082 A 
ATOM      2  C2  O2N d         -11.097  49.113   6.220  0.00  0.00    -0.082 A 
ATOM      3  C3  O2N d         -12.058  49.306   4.066  0.00  0.00    -0.067 A 
ATOM      4  C4  O2N d         -10.031  48.396   5.700  0.00  0.00    -0.074 A 
ATOM      5  C15 O2N d         -11.001  48.594   3.527  0.00  0.00     0.040 A 
ATOM      6  C19 O2N d          -9.973  48.131   4.346  0.00  0.00    -0.017 A 
ATOM      7  H1  O2N d         -12.955  50.127   5.851  0.00  0.00     0.083 H 
ATOM      8  H2  O2N d         -11.123  49.318   7.284  0.00  0.00     0.083 H 
ATOM      9  H3  O2N d         -12.848  49.661   3.415  0.00  0.00     0.085 H 
ATOM     10  H4  O2N d          -9.243  48.043   6.357  0.00  0.00     0.084 H 
ENDROOT
BRANCH   5  11
ATOM     11  C27 O2N d         -10.998  48.312   2.075  0.00  0.00     0.253 C 
ATOM     12  N36 O2N d         -11.564  49.259   1.221  0.00  0.00    -0.344 N 
ATOM     13  H33 O2N d         -11.983  50.077   1.617  0.00  0.00     0.163 HD
ATOM     14  O39 O2N d         -10.516  47.239   1.703  0.00  0.00    -0.268 OA
BRANCH  12  15
ATOM     15  C35 O2N d         -11.564  49.099  -0.221  0.00  0.00     0.063 C 
ATOM     16  H32 O2N d         -12.334  49.762  -0.643  0.00  0.00     0.088 H 
BRANCH  15  17
ATOM     17  C17 O2N d         -11.984  47.658  -0.564  0.00  0.00    -0.031 A 
ATOM     18  C6  O2N d         -11.137  46.832  -1.292  0.00  0.00    -0.072 A 
ATOM     19  C11 O2N d         -11.492  45.523  -1.642  0.00  0.00    -0.050 A 
ATOM     20  H6  O2N d         -10.169  47.213  -1.600  0.00  0.00     0.084 H 
ATOM     21  C23 O2N d         -12.746  45.048  -1.177  0.00  0.00     0.068 A 
ATOM     22  H11 O2N d         -10.838  44.900  -2.242  0.00  0.00     0.087 H 
ATOM     23  C12 O2N d         -13.634  45.854  -0.483  0.00  0.00    -0.050 A 
ATOM     24  C7  O2N d         -13.221  47.162  -0.188  0.00  0.00    -0.072 A 
ATOM     25  H12 O2N d         -14.609  45.488  -0.181  0.00  0.00     0.087 H 
ATOM     26  H7  O2N d         -13.897  47.810   0.357  0.00  0.00     0.084 H 
BRANCH  21  27
ATOM     27  O43 O2N d         -13.092  43.732  -1.526  0.00  0.00    -0.356 OA
BRANCH  27  28
ATOM     28  C30 O2N d         -12.060  42.749  -1.759  0.00  0.00     0.010 C 
ATOM     29  H20 O2N d         -11.374  42.726  -0.900  0.00  0.00     0.066 H 
ATOM     30  H21 O2N d         -11.501  43.013  -2.668  0.00  0.00     0.066 H 
ATOM     31  H22 O2N d         -12.520  41.758  -1.887  0.00  0.00     0.066 H 
ENDBRANCH  27  28
ENDBRANCH  21  27
ENDBRANCH  15  17
BRANCH  15  32
ATOM     32  C18 O2N d         -10.222  49.577  -0.769  0.00  0.00    -0.031 A 
ATOM     33  C8  O2N d         -10.236  50.214  -2.004  0.00  0.00    -0.072 A 
ATOM     34  C13 O2N d          -9.043  50.704  -2.530  0.00  0.00    -0.050 A 
ATOM     35  H8  O2N d         -11.164  50.328  -2.551  0.00  0.00     0.084 H 
ATOM     36  C24 O2N d          -7.833  50.560  -1.859  0.00  0.00     0.068 A 
ATOM     37  H13 O2N d          -9.058  51.211  -3.487  0.00  0.00     0.087 H 
ATOM     38  C14 O2N d          -7.759  49.931  -0.631  0.00  0.00    -0.050 A 
ATOM     39  C9  O2N d          -8.999  49.482  -0.115  0.00  0.00    -0.072 A 
ATOM     40  H14 O2N d          -6.822  49.791  -0.104  0.00  0.00     0.087 H 
ATOM     41  H9  O2N d          -8.994  49.028   0.869  0.00  0.00     0.084 H 
BRANCH  36  42
ATOM     42  O44 O2N d          -6.717  51.078  -2.515  0.00  0.00    -0.356 OA
BRANCH  42  43
ATOM     43  C31 O2N d          -5.492  50.676  -1.902  0.00  0.00     0.010 C 
ATOM     44  H23 O2N d          -4.665  50.800  -2.618  0.00  0.00     0.066 H 
ATOM     45  H24 O2N d          -5.562  49.620  -1.603  0.00  0.00     0.066 H 
ATOM     46  H25 O2N d          -5.305  51.297  -1.014  0.00  0.00     0.066 H 
ENDBRANCH  42  43
ENDBRANCH  36  42
ENDBRANCH  15  32
ENDBRANCH  12  15
ENDBRANCH   5  11
BRANCH   6  47
ATOM     47  C32 O2N d          -8.817  47.338   3.831  0.00  0.00     0.109 C 
ATOM     48  H26 O2N d          -9.216  46.476   3.276  0.00  0.00     0.083 H 
ATOM     49  H27 O2N d          -8.238  46.980   4.696  0.00  0.00     0.083 H 
BRANCH  47  50
ATOM     50  N37 O2N d          -7.868  48.091   2.912  0.00  0.00    -0.060 N 
ATOM     51  H34 O2N d          -8.383  48.292   2.069  0.00  0.00     0.281 HD
BRANCH  50  52
ATOM     52  C33 O2N d          -6.577  47.329   2.460  0.00  0.00     0.109 C 
ATOM     53  H28 O2N d          -5.927  48.009   1.889  0.00  0.00     0.083 H 
ATOM     54  H29 O2N d          -6.036  46.961   3.344  0.00  0.00     0.083 H 
BRANCH  52  55
ATOM     55  C20 O2N d          -6.983  46.153   1.583  0.00  0.00    -0.013 A 
ATOM     56  C5  O2N d          -7.547  46.296   0.285  0.00  0.00    -0.071 A 
ATOM     57  C10 O2N d          -7.907  45.173  -0.526  0.00  0.00    -0.047 A 
ATOM     58  H5  O2N d          -7.712  47.295  -0.105  0.00  0.00     0.084 H 
ATOM     59  C21 O2N d          -7.706  43.941   0.048  0.00  0.00     0.106 A 
ATOM     60  H10 O2N d          -8.310  45.286  -1.526  0.00  0.00     0.087 H 
ATOM     61  C22 O2N d          -7.145  43.793   1.305  0.00  0.00     0.122 A 
ATOM     62  O41 O2N d          -7.981  42.728  -0.506  0.00  0.00    -0.323 OA
ATOM     63  C16 O2N d          -6.772  44.866   2.116  0.00  0.00     0.085 A 
ATOM     64  O42 O2N d          -7.030  42.450   1.685  0.00  0.00    -0.322 OA
ATOM     65  C29 O2N d          -7.512  41.799   0.490  0.00  0.00     0.115 A 
ATOM     66  H18 O2N d          -6.692  41.207   0.058  0.00  0.00     0.118 H 
ATOM     67  H19 O2N d          -8.341  41.131   0.765  0.00  0.00     0.118 H 
BRANCH  63  68
ATOM     68  C28 O2N d          -6.118  44.567   3.446  0.00  0.00     0.212 C 
ATOM     69  O38 O2N d          -4.847  44.500   3.410  0.00  0.00    -0.644 OA
ATOM     70  O40 O2N d          -6.718  44.520   4.568  0.00  0.00    -0.644 OA
ENDBRANCH  63  68
ENDBRANCH  52  55
ENDBRANCH  50  52
BRANCH  50  71
ATOM     71  C34 O2N d          -7.521  49.398   3.556  0.00  0.00     0.099 C 
ATOM     72  H30 O2N d          -7.101  50.049   2.776  0.00  0.00     0.082 H 
ATOM     73  H31 O2N d          -8.456  49.837   3.936  0.00  0.00     0.082 H 
BRANCH  71  74
ATOM     74  C26 O2N d          -6.541  49.369   4.697  0.00  0.00    -0.087 C 
ATOM     75  C25 O2N d          -6.628  50.258   5.702  0.00  0.00    -0.123 C 
ATOM     76  H15 O2N d          -5.912  50.225   6.522  0.00  0.00     0.066 H 
ATOM     77  H16 O2N d          -7.415  51.011   5.697  0.00  0.00     0.066 H 
ATOM     78  H17 O2N d          -5.751  48.619   4.709  0.00  0.00     0.078 H 
ENDBRANCH  71  74
ENDBRANCH  50  71
ENDBRANCH  47  50
ENDBRANCH   6  47
TORSDOF 15
ENDMDL
MODEL 10
REMARK VINA RESULT:      -4.9      2.464      5.977
REMARK  15 active torsions:
REMARK  status: ('A' for Active; 'I' for Inactive)
REMARK    1  A    between atoms: C27_27  and  C15_15 
REMARK    2  A    between atoms: C16_16  and  C28_28 
REMARK    3  A    between atoms: C35_35  and  C17_17 
REMARK    4  A    between atoms: C35_35  and  C18_18 
REMARK    5  A    between atoms: C19_19  and  C32_32 
REMARK    6  A    between atoms: C33_33  and  C20_20 
REMARK    7  A    between atoms: C23_23  and  O43_43 
REMARK    8  A    between atoms: C24_24  and  O44_44 
REMARK    9  A    between atoms: C34_34  and  C26_26 
REMARK       I    between atoms: N36_36  and  C27_27 
REMARK   10  A    between atoms: O43_43  and  C30_30 
REMARK   11  A    between atoms: O44_44  and  C31_31 
REMARK   12  A    between atoms: C32_32  and  N37_37 
REMARK   13  A    between atoms: N37_37  and  C33_33 
REMARK   14  A    between atoms: N37_37  and  C34_34 
REMARK   15  A    between atoms: C35_35  and  N36_36 
ROOT
ATOM      1  C1  O2N d          -9.946  41.658  -0.067  0.00  0.00    -0.082 A 
ATOM      2  C2  O2N d          -8.749  41.048   0.233  0.00  0.00    -0.082 A 
ATOM      3  C3  O2N d          -9.977  43.047  -0.075  0.00  0.00    -0.067 A 
ATOM      4  C4  O2N d          -7.602  41.774   0.511  0.00  0.00    -0.074 A 
ATOM      5  C15 O2N d          -8.844  43.791   0.203  0.00  0.00     0.040 A 
ATOM      6  C19 O2N d          -7.639  43.155   0.499  0.00  0.00    -0.017 A 
ATOM      7  H1  O2N d         -10.833  41.076  -0.290  0.00  0.00     0.083 H 
ATOM      8  H2  O2N d          -8.703  39.965   0.253  0.00  0.00     0.083 H 
ATOM      9  H3  O2N d         -10.907  43.558  -0.301  0.00  0.00     0.085 H 
ATOM     10  H4  O2N d          -6.675  41.258   0.737  0.00  0.00     0.084 H 
ENDROOT
BRANCH   5  11
ATOM     11  C27 O2N d          -8.929  45.267   0.151  0.00  0.00     0.253 C 
ATOM     12  N36 O2N d          -9.374  45.939   1.290  0.00  0.00    -0.344 N 
ATOM     13  H33 O2N d          -9.655  45.404   2.087  0.00  0.00     0.163 HD
ATOM     14  O39 O2N d          -8.622  45.819  -0.909  0.00  0.00    -0.268 OA
BRANCH  12  15
ATOM     15  C35 O2N d          -9.443  47.387   1.356  0.00  0.00     0.063 C 
ATOM     16  H32 O2N d          -8.771  47.801   0.589  0.00  0.00     0.088 H 
BRANCH  15  17
ATOM     17  C17 O2N d          -8.902  47.852   2.719  0.00  0.00    -0.031 A 
ATOM     18  C6  O2N d          -8.474  46.925   3.661  0.00  0.00    -0.072 A 
ATOM     19  C11 O2N d          -7.995  47.309   4.920  0.00  0.00    -0.050 A 
ATOM     20  H6  O2N d          -8.512  45.870   3.413  0.00  0.00     0.084 H 
ATOM     21  C23 O2N d          -7.916  48.700   5.184  0.00  0.00     0.068 A 
ATOM     22  H11 O2N d          -7.698  46.575   5.660  0.00  0.00     0.087 H 
ATOM     23  C12 O2N d          -8.369  49.653   4.286  0.00  0.00    -0.050 A 
ATOM     24  C7  O2N d          -8.857  49.195   3.053  0.00  0.00    -0.072 A 
ATOM     25  H12 O2N d          -8.347  50.710   4.527  0.00  0.00     0.087 H 
ATOM     26  H7  O2N d          -9.215  49.922   2.333  0.00  0.00     0.084 H 
BRANCH  21  27
ATOM     27  O43 O2N d          -7.427  49.078   6.446  0.00  0.00    -0.356 OA
BRANCH  27  28
ATOM     28  C30 O2N d          -6.216  49.856   6.552  0.00  0.00     0.010 C 
ATOM     29  H20 O2N d          -6.131  50.265   7.569  0.00  0.00     0.066 H 
ATOM     30  H21 O2N d          -6.247  50.682   5.826  0.00  0.00     0.066 H 
ATOM     31  H22 O2N d          -5.348  49.215   6.340  0.00  0.00     0.066 H 
ENDBRANCH  27  28
ENDBRANCH  21  27
ENDBRANCH  15  17
BRANCH  15  32
ATOM     32  C18 O2N d         -10.857  47.827   0.985  0.00  0.00    -0.031 A 
ATOM     33  C8  O2N d         -10.976  48.821   0.021  0.00  0.00    -0.072 A 
ATOM     34  C13 O2N d         -12.246  49.231  -0.380  0.00  0.00    -0.050 A 
ATOM     35  H8  O2N d         -10.091  49.271  -0.413  0.00  0.00     0.084 H 
ATOM     36  C24 O2N d         -13.400  48.683   0.169  0.00  0.00     0.068 A 
ATOM     37  H13 O2N d         -12.336  49.997  -1.141  0.00  0.00     0.087 H 
ATOM     38  C14 O2N d         -13.342  47.697   1.136  0.00  0.00    -0.050 A 
ATOM     39  C9  O2N d         -12.034  47.282   1.487  0.00  0.00    -0.072 A 
ATOM     40  H14 O2N d         -14.230  47.274   1.590  0.00  0.00     0.087 H 
ATOM     41  H9  O2N d         -11.943  46.475   2.204  0.00  0.00     0.084 H 
BRANCH  36  42
ATOM     42  O44 O2N d         -14.601  49.207  -0.310  0.00  0.00    -0.356 OA
BRANCH  42  43
ATOM     43  C31 O2N d         -14.499  50.594  -0.629  0.00  0.00     0.010 C 
ATOM     44  H23 O2N d         -15.322  50.877  -1.302  0.00  0.00     0.066 H 
ATOM     45  H24 O2N d         -13.537  50.787  -1.125  0.00  0.00     0.066 H 
ATOM     46  H25 O2N d         -14.560  51.188   0.295  0.00  0.00     0.066 H 
ENDBRANCH  42  43
ENDBRANCH  36  42
ENDBRANCH  15  32
ENDBRANCH  12  15
ENDBRANCH   5  11
BRANCH   6  47
ATOM     47  C32 O2N d          -6.376  43.898   0.785  0.00  0.00     0.109 C 
ATOM     48  H26 O2N d          -6.244  44.658   0.000  0.00  0.00     0.083 H 
ATOM     49  H27 O2N d          -5.543  43.180   0.743  0.00  0.00     0.083 H 
BRANCH  47  50
ATOM     50  N37 O2N d          -6.323  44.600   2.133  0.00  0.00    -0.060 N 
ATOM     51  H34 O2N d          -7.096  45.246   2.151  0.00  0.00     0.281 HD
BRANCH  50  52
ATOM     52  C33 O2N d          -5.041  45.448   2.432  0.00  0.00     0.109 C 
ATOM     53  H28 O2N d          -4.827  45.426   3.511  0.00  0.00     0.083 H 
ATOM     54  H29 O2N d          -4.186  45.033   1.879  0.00  0.00     0.083 H 
BRANCH  52  55
ATOM     55  C20 O2N d          -5.288  46.883   1.989  0.00  0.00    -0.013 A 
ATOM     56  C5  O2N d          -5.873  47.233   0.740  0.00  0.00    -0.071 A 
ATOM     57  C10 O2N d          -6.108  48.591   0.354  0.00  0.00    -0.047 A 
ATOM     58  H5  O2N d          -6.151  46.440   0.055  0.00  0.00     0.084 H 
ATOM     59  C21 O2N d          -5.694  49.541   1.256  0.00  0.00     0.106 A 
ATOM     60  H10 O2N d          -6.580  48.852  -0.586  0.00  0.00     0.087 H 
ATOM     61  C22 O2N d          -5.137  49.209   2.478  0.00  0.00     0.122 A 
ATOM     62  O41 O2N d          -5.788  50.892   1.116  0.00  0.00    -0.323 OA
ATOM     63  C16 O2N d          -4.905  47.896   2.890  0.00  0.00     0.085 A 
ATOM     64  O42 O2N d          -4.796  50.338   3.235  0.00  0.00    -0.322 OA
ATOM     65  C29 O2N d          -5.278  51.387   2.370  0.00  0.00     0.115 A 
ATOM     66  H18 O2N d          -6.084  51.926   2.888  0.00  0.00     0.118 H 
ATOM     67  H19 O2N d          -4.449  52.079   2.163  0.00  0.00     0.118 H 
BRANCH  63  68
ATOM     68  C28 O2N d          -4.341  47.668   4.274  0.00  0.00     0.212 C 
ATOM     69  O38 O2N d          -3.347  48.406   4.571  0.00  0.00    -0.644 OA
ATOM     70  O40 O2N d          -4.859  46.924   5.168  0.00  0.00    -0.644 OA
ENDBRANCH  63  68
ENDBRANCH  52  55
ENDBRANCH  50  52
BRANCH  50  71
ATOM     71  C34 O2N d          -6.555  43.582   3.207  0.00  0.00     0.099 C 
ATOM     72  H30 O2N d          -7.552  43.771   3.630  0.00  0.00     0.082 H 
ATOM     73  H31 O2N d          -6.541  42.590   2.731  0.00  0.00     0.082 H 
BRANCH  71  74
ATOM     74  C26 O2N d          -5.578  43.547   4.350  0.00  0.00    -0.087 C 
ATOM     75  C25 O2N d          -5.950  43.931   5.585  0.00  0.00    -0.123 C 
ATOM     76  H15 O2N d          -5.232  43.900   6.403  0.00  0.00     0.066 H 
ATOM     77  H16 O2N d          -6.968  44.273   5.766  0.00  0.00     0.066 H 
ATOM     78  H17 O2N d          -4.559  43.206   4.177  0.00  0.00     0.078 H 
ENDBRANCH  71  74
ENDBRANCH  50  71
ENDBRANCH  47  50
ENDBRANCH   6  47
TORSDOF 15
ENDMDL
