MODEL 1
REMARK VINA RESULT:      -7.1      0.000      0.000
REMARK  7 active torsions:
REMARK  status: ('A' for Active; 'I' for Inactive)
REMARK    1  A    between atoms: C3_3  and  O3_10 
REMARK    2  A    between atoms: C4_4  and  O4_11 
REMARK    3  A    between atoms: C5_5  and  C6_6 
REMARK    4  A    between atoms: C6_6  and  O6_14 
REMARK    5  A    between atoms: N1_13  and  C7_7 
REMARK    6  A    between atoms: C9_16  and  C10_8 
REMARK    7  A    between atoms: N1_13  and  C9_16 
ROOT
ATOM      1  C1  NHT d           6.125 -12.016   4.331  0.00  0.00     0.114 C 
ATOM      2  C2  NHT d           7.567 -11.782   3.921  0.00  0.00     0.096 C 
ATOM      3  C3  NHT d           7.459 -10.700   2.813  0.00  0.00     0.087 C 
ATOM      4  C4  NHT d           6.383 -11.041   1.743  0.00  0.00     0.089 C 
ATOM      5  C5  NHT d           5.026 -11.145   2.425  0.00  0.00     0.087 C 
ATOM      6  C7  NHT d           7.426 -10.529   5.987  0.00  0.00     0.160 C 
ATOM      7  N2  NHT d           8.185 -11.060   5.058  0.00  0.00    -0.256 NA
ATOM      8  O5  NHT d           5.144 -12.217   3.325  0.00  0.00    -0.363 OA
ATOM      9  S1  NHT d           5.722 -10.973   5.732  0.00  0.00    -0.058 SA
ATOM     10  H1  NHT d           6.165 -13.019   4.783  0.00  0.00     0.104 H 
ATOM     11  H2  NHT d           8.106 -12.693   3.620  0.00  0.00     0.085 H 
ATOM     12  H3  NHT d           7.125  -9.782   3.319  0.00  0.00     0.090 H 
ATOM     13  H4  NHT d           6.644 -11.997   1.266  0.00  0.00     0.091 H 
ATOM     14  H5  NHT d           4.807 -10.202   2.948  0.00  0.00     0.090 H 
ENDROOT
BRANCH   6  15
ATOM     15  N1  NHT d           7.866  -9.818   7.005  0.00  0.00    -0.370 N 
ATOM     16  H13 NHT d           8.863  -9.564   7.055  0.00  0.00     0.161 HD
BRANCH  15  17
ATOM     17  C9  NHT d           6.957  -9.385   8.064  0.00  0.00    -0.009 C 
ATOM     18  H15 NHT d           6.234  -8.674   7.636  0.00  0.00     0.063 H 
ATOM     19  H16 NHT d           6.422 -10.266   8.449  0.00  0.00     0.063 H 
BRANCH  17  20
ATOM     20  C10 NHT d           7.671  -8.710   9.220  0.00  0.00    -0.061 C 
ATOM     21  H8  NHT d           7.426  -7.637   9.227  0.00  0.00     0.029 H 
ATOM     22  H9  NHT d           8.758  -8.838   9.106  0.00  0.00     0.029 H 
ATOM     23  H10 NHT d           7.346  -9.165  10.167  0.00  0.00     0.029 H 
ENDBRANCH  17  20
ENDBRANCH  15  17
ENDBRANCH   6  15
BRANCH   3  24
ATOM     24  O3  NHT d           8.704 -10.383   2.167  0.00  0.00    -0.391 OA
ATOM     25  H11 NHT d           9.405 -10.878   2.573  0.00  0.00     0.210 HD
ENDBRANCH   3  24
BRANCH   4  26
ATOM     26  O4  NHT d           6.257 -10.018   0.734  0.00  0.00    -0.390 OA
ATOM     27  H12 NHT d           7.095  -9.589   0.613  0.00  0.00     0.210 HD
ENDBRANCH   4  26
BRANCH   5  28
ATOM     28  C6  NHT d           3.851 -11.503   1.509  0.00  0.00     0.043 C 
ATOM     29  H6  NHT d           3.614 -10.646   0.862  0.00  0.00     0.078 H 
ATOM     30  H7  NHT d           2.971 -11.756   2.120  0.00  0.00     0.078 H 
BRANCH  28  31
ATOM     31  O6  NHT d           4.213 -12.623   0.706  0.00  0.00    -0.398 OA
ATOM     32  H14 NHT d           4.053 -13.424   1.191  0.00  0.00     0.209 HD
ENDBRANCH  28  31
ENDBRANCH   5  28
TORSDOF 7
ENDMDL
