MODEL 1
REMARK VINA RESULT:      -4.8      0.000      0.000
REMARK  6 active torsions:
REMARK  status: ('A' for Active; 'I' for Inactive)
REMARK    1  A    between atoms: N_1  and  CA_2 
REMARK    2  A    between atoms: CA_2  and  C_3 
REMARK    3  A    between atoms: CA_2  and  CB_5 
REMARK    4  A    between atoms: CB_5  and  CG_6 
REMARK    5  A    between atoms: CG_6  and  CD1_7 
REMARK    6  A    between atoms: CG_6  and  CD2_8 
ROOT
ATOM      1  CB  LEU d          33.568  -3.342  37.962  0.00  0.00    -0.026 C 
ATOM      2  H5  LEU d          33.370  -3.972  38.842  0.00  0.00     0.037 H 
ATOM      3  H6  LEU d          34.088  -3.936  37.196  0.00  0.00     0.037 H 
ENDROOT
BRANCH   1   4
ATOM      4  CA  LEU d          34.448  -2.139  38.373  0.00  0.00     0.182 C 
ATOM      5  H4  LEU d          33.858  -1.219  38.247  0.00  0.00     0.101 H 
BRANCH   4   6
ATOM      6  N   LEU d          35.666  -2.042  37.514  0.00  0.00    -0.065 N 
ATOM      7  H1  LEU d          35.781  -1.090  37.201  0.00  0.00     0.275 HD
ATOM      8  H2  LEU d          35.564  -2.648  36.716  0.00  0.00     0.275 HD
ATOM      9  H3  LEU d          36.475  -2.321  38.046  0.00  0.00     0.275 HD
ENDBRANCH   4   6
BRANCH   4  10
ATOM     10  C   LEU d          34.859  -2.261  39.839  0.00  0.00     0.204 C 
ATOM     11  O   LEU d          35.793  -1.569  40.249  0.00  0.00    -0.646 OA
ATOM     12  OXT LEU d          34.098  -3.063  40.471  0.00  0.00    -0.646 OA
ENDBRANCH   4  10
ENDBRANCH   1   4
BRANCH   1  13
ATOM     13  CG  LEU d          32.254  -2.821  37.400  0.00  0.00    -0.059 C 
ATOM     14  H7  LEU d          31.541  -3.658  37.422  0.00  0.00     0.038 H 
BRANCH  13  15
ATOM     15  CD1 LEU d          31.629  -1.708  38.204  0.00  0.00    -0.073 C 
ATOM     16  H8  LEU d          32.299  -0.835  38.204  0.00  0.00     0.028 H 
ATOM     17  H9  LEU d          31.470  -2.048  39.238  0.00  0.00     0.028 H 
ATOM     18  H10 LEU d          30.664  -1.430  37.756  0.00  0.00     0.028 H 
ENDBRANCH  13  15
BRANCH  13  19
ATOM     19  CD2 LEU d          32.456  -2.431  35.941  0.00  0.00    -0.073 C 
ATOM     20  H11 LEU d          32.486  -3.338  35.320  0.00  0.00     0.028 H 
ATOM     21  H12 LEU d          33.403  -1.882  35.835  0.00  0.00     0.028 H 
ATOM     22  H13 LEU d          31.623  -1.791  35.614  0.00  0.00     0.028 H 
ENDBRANCH  13  19
ENDBRANCH   1  13
TORSDOF 6
ENDMDL
MODEL 2
REMARK VINA RESULT:      -4.5      1.697      1.896
REMARK  6 active torsions:
REMARK  status: ('A' for Active; 'I' for Inactive)
REMARK    1  A    between atoms: N_1  and  CA_2 
REMARK    2  A    between atoms: CA_2  and  C_3 
REMARK    3  A    between atoms: CA_2  and  CB_5 
REMARK    4  A    between atoms: CB_5  and  CG_6 
REMARK    5  A    between atoms: CG_6  and  CD1_7 
REMARK    6  A    between atoms: CG_6  and  CD2_8 
ROOT
ATOM      1  CB  LEU d          33.488  -2.736  37.721  0.00  0.00    -0.026 C 
ATOM      2  H5  LEU d          33.232  -3.646  37.158  0.00  0.00     0.037 H 
ATOM      3  H6  LEU d          34.155  -2.105  37.114  0.00  0.00     0.037 H 
ENDROOT
BRANCH   1   4
ATOM      4  CA  LEU d          34.197  -3.123  39.039  0.00  0.00     0.182 C 
ATOM      5  H4  LEU d          34.432  -4.197  39.004  0.00  0.00     0.101 H 
BRANCH   4   6
ATOM      6  N   LEU d          33.319  -2.868  40.220  0.00  0.00    -0.065 N 
ATOM      7  H1  LEU d          33.594  -2.006  40.664  0.00  0.00     0.275 HD
ATOM      8  H2  LEU d          33.410  -3.628  40.876  0.00  0.00     0.275 HD
ATOM      9  H3  LEU d          32.360  -2.800  39.917  0.00  0.00     0.275 HD
ENDBRANCH   4   6
BRANCH   4  10
ATOM     10  C   LEU d          35.500  -2.341  39.188  0.00  0.00     0.204 C 
ATOM     11  O   LEU d          36.387  -2.508  38.348  0.00  0.00    -0.646 OA
ATOM     12  OXT LEU d          35.458  -1.547  40.182  0.00  0.00    -0.646 OA
ENDBRANCH   4  10
ENDBRANCH   1   4
BRANCH   1  13
ATOM     13  CG  LEU d          32.219  -1.965  38.053  0.00  0.00    -0.059 C 
ATOM     14  H7  LEU d          32.011  -2.134  39.120  0.00  0.00     0.038 H 
BRANCH  13  15
ATOM     15  CD1 LEU d          32.330  -0.472  37.872  0.00  0.00    -0.073 C 
ATOM     16  H8  LEU d          32.706  -0.252  36.861  0.00  0.00     0.028 H 
ATOM     17  H9  LEU d          33.025  -0.063  38.619  0.00  0.00     0.028 H 
ATOM     18  H10 LEU d          31.339  -0.013  38.003  0.00  0.00     0.028 H 
ENDBRANCH  13  15
BRANCH  13  19
ATOM     19  CD2 LEU d          31.057  -2.555  37.263  0.00  0.00    -0.073 C 
ATOM     20  H11 LEU d          31.328  -2.611  36.199  0.00  0.00     0.028 H 
ATOM     21  H12 LEU d          30.171  -1.915  37.382  0.00  0.00     0.028 H 
ATOM     22  H13 LEU d          30.834  -3.564  37.638  0.00  0.00     0.028 H 
ENDBRANCH  13  19
ENDBRANCH   1  13
TORSDOF 6
ENDMDL
MODEL 3
REMARK VINA RESULT:      -3.7      2.659      3.886
REMARK  6 active torsions:
REMARK  status: ('A' for Active; 'I' for Inactive)
REMARK    1  A    between atoms: N_1  and  CA_2 
REMARK    2  A    between atoms: CA_2  and  C_3 
REMARK    3  A    between atoms: CA_2  and  CB_5 
REMARK    4  A    between atoms: CB_5  and  CG_6 
REMARK    5  A    between atoms: CG_6  and  CD1_7 
REMARK    6  A    between atoms: CG_6  and  CD2_8 
ROOT
ATOM      1  CB  LEU d          34.044  -1.029  39.048  0.00  0.00    -0.026 C 
ATOM      2  H5  LEU d          34.250  -0.366  39.901  0.00  0.00     0.037 H 
ATOM      3  H6  LEU d          34.124  -0.457  38.112  0.00  0.00     0.037 H 
ENDROOT
BRANCH   1   4
ATOM      4  CA  LEU d          32.619  -1.614  39.179  0.00  0.00     0.182 C 
ATOM      5  H4  LEU d          31.945  -0.814  39.520  0.00  0.00     0.101 H 
BRANCH   4   6
ATOM      6  N   LEU d          32.579  -2.724  40.177  0.00  0.00    -0.065 N 
ATOM      7  H1  LEU d          32.918  -2.389  41.066  0.00  0.00     0.275 HD
ATOM      8  H2  LEU d          33.161  -3.483  39.859  0.00  0.00     0.275 HD
ATOM      9  H3  LEU d          31.630  -3.049  40.280  0.00  0.00     0.275 HD
ENDBRANCH   4   6
BRANCH   4  10
ATOM     10  C   LEU d          32.130  -2.121  37.824  0.00  0.00     0.204 C 
ATOM     11  O   LEU d          32.349  -1.435  36.823  0.00  0.00    -0.646 OA
ATOM     12  OXT LEU d          31.586  -3.268  37.923  0.00  0.00    -0.646 OA
ENDBRANCH   4  10
ENDBRANCH   1   4
BRANCH   1  13
ATOM     13  CG  LEU d          35.046  -2.174  39.036  0.00  0.00    -0.059 C 
ATOM     14  H7  LEU d          34.475  -3.101  39.191  0.00  0.00     0.038 H 
BRANCH  13  15
ATOM     15  CD1 LEU d          35.785  -2.342  37.733  0.00  0.00    -0.073 C 
ATOM     16  H8  LEU d          35.770  -3.401  37.437  0.00  0.00     0.028 H 
ATOM     17  H9  LEU d          36.827  -2.010  37.856  0.00  0.00     0.028 H 
ATOM     18  H10 LEU d          35.298  -1.736  36.954  0.00  0.00     0.028 H 
ENDBRANCH  13  15
BRANCH  13  19
ATOM     19  CD2 LEU d          35.994  -2.019  40.218  0.00  0.00    -0.073 C 
ATOM     20  H11 LEU d          35.480  -2.320  41.143  0.00  0.00     0.028 H 
ATOM     21  H12 LEU d          36.310  -0.969  40.300  0.00  0.00     0.028 H 
ATOM     22  H13 LEU d          36.877  -2.656  40.066  0.00  0.00     0.028 H 
ENDBRANCH  13  19
ENDBRANCH   1  13
TORSDOF 6
ENDMDL
MODEL 4
REMARK VINA RESULT:      -3.7      2.768      4.012
REMARK  6 active torsions:
REMARK  status: ('A' for Active; 'I' for Inactive)
REMARK    1  A    between atoms: N_1  and  CA_2 
REMARK    2  A    between atoms: CA_2  and  C_3 
REMARK    3  A    between atoms: CA_2  and  CB_5 
REMARK    4  A    between atoms: CB_5  and  CG_6 
REMARK    5  A    between atoms: CG_6  and  CD1_7 
REMARK    6  A    between atoms: CG_6  and  CD2_8 
ROOT
ATOM      1  CB  LEU d          33.580  -2.079  39.047  0.00  0.00    -0.026 C 
ATOM      2  H5  LEU d          32.921  -2.920  39.307  0.00  0.00     0.037 H 
ATOM      3  H6  LEU d          33.493  -1.295  39.813  0.00  0.00     0.037 H 
ENDROOT
BRANCH   1   4
ATOM      4  CA  LEU d          33.176  -1.507  37.669  0.00  0.00     0.182 C 
ATOM      5  H4  LEU d          34.079  -1.434  37.045  0.00  0.00     0.101 H 
BRANCH   4   6
ATOM      6  N   LEU d          32.581  -0.144  37.802  0.00  0.00    -0.065 N 
ATOM      7  H1  LEU d          32.301   0.191  36.893  0.00  0.00     0.275 HD
ATOM      8  H2  LEU d          33.263   0.483  38.196  0.00  0.00     0.275 HD
ATOM      9  H3  LEU d          31.776  -0.187  38.407  0.00  0.00     0.275 HD
ENDBRANCH   4   6
BRANCH   4  10
ATOM     10  C   LEU d          32.181  -2.440  36.982  0.00  0.00     0.204 C 
ATOM     11  O   LEU d          31.138  -2.730  37.573  0.00  0.00    -0.646 OA
ATOM     12  OXT LEU d          32.569  -2.755  35.811  0.00  0.00    -0.646 OA
ENDBRANCH   4  10
ENDBRANCH   1   4
BRANCH   1  13
ATOM     13  CG  LEU d          35.021  -2.563  38.974  0.00  0.00    -0.059 C 
ATOM     14  H7  LEU d          34.997  -3.659  39.072  0.00  0.00     0.038 H 
BRANCH  13  15
ATOM     15  CD1 LEU d          35.713  -2.267  37.667  0.00  0.00    -0.073 C 
ATOM     16  H8  LEU d          35.452  -3.042  36.931  0.00  0.00     0.028 H 
ATOM     17  H9  LEU d          36.802  -2.261  37.822  0.00  0.00     0.028 H 
ATOM     18  H10 LEU d          35.390  -1.284  37.296  0.00  0.00     0.028 H 
ENDBRANCH  13  15
BRANCH  13  19
ATOM     19  CD2 LEU d          35.792  -2.016  40.168  0.00  0.00    -0.073 C 
ATOM     20  H11 LEU d          35.864  -0.921  40.089  0.00  0.00     0.028 H 
ATOM     21  H12 LEU d          36.803  -2.449  40.182  0.00  0.00     0.028 H 
ATOM     22  H13 LEU d          35.267  -2.282  41.097  0.00  0.00     0.028 H 
ENDBRANCH  13  19
ENDBRANCH   1  13
TORSDOF 6
ENDMDL
MODEL 5
REMARK VINA RESULT:      -3.6      2.509      3.609
REMARK  6 active torsions:
REMARK  status: ('A' for Active; 'I' for Inactive)
REMARK    1  A    between atoms: N_1  and  CA_2 
REMARK    2  A    between atoms: CA_2  and  C_3 
REMARK    3  A    between atoms: CA_2  and  CB_5 
REMARK    4  A    between atoms: CB_5  and  CG_6 
REMARK    5  A    between atoms: CG_6  and  CD1_7 
REMARK    6  A    between atoms: CG_6  and  CD2_8 
ROOT
ATOM      1  CB  LEU d          33.514  -2.722  38.893  0.00  0.00    -0.026 C 
ATOM      2  H5  LEU d          33.994  -3.534  39.460  0.00  0.00     0.037 H 
ATOM      3  H6  LEU d          32.503  -2.546  39.289  0.00  0.00     0.037 H 
ENDROOT
BRANCH   1   4
ATOM      4  CA  LEU d          33.426  -3.113  37.400  0.00  0.00     0.182 C 
ATOM      5  H4  LEU d          33.415  -4.211  37.329  0.00  0.00     0.101 H 
BRANCH   4   6
ATOM      6  N   LEU d          34.604  -2.602  36.636  0.00  0.00    -0.065 N 
ATOM      7  H1  LEU d          34.986  -1.797  37.108  0.00  0.00     0.275 HD
ATOM      8  H2  LEU d          34.313  -2.341  35.707  0.00  0.00     0.275 HD
ATOM      9  H3  LEU d          35.305  -3.323  36.579  0.00  0.00     0.275 HD
ENDBRANCH   4   6
BRANCH   4  10
ATOM     10  C   LEU d          32.138  -2.570  36.786  0.00  0.00     0.204 C 
ATOM     11  O   LEU d          32.190  -2.048  35.671  0.00  0.00    -0.646 OA
ATOM     12  OXT LEU d          31.132  -2.799  37.534  0.00  0.00    -0.646 OA
ENDBRANCH   4  10
ENDBRANCH   1   4
BRANCH   1  13
ATOM     13  CG  LEU d          34.341  -1.451  39.020  0.00  0.00    -0.059 C 
ATOM     14  H7  LEU d          34.861  -1.310  38.061  0.00  0.00     0.038 H 
BRANCH  13  15
ATOM     15  CD1 LEU d          33.531  -0.201  39.253  0.00  0.00    -0.073 C 
ATOM     16  H8  LEU d          33.998   0.643  38.723  0.00  0.00     0.028 H 
ATOM     17  H9  LEU d          33.496   0.018  40.331  0.00  0.00     0.028 H 
ATOM     18  H10 LEU d          32.509  -0.350  38.876  0.00  0.00     0.028 H 
ENDBRANCH  13  15
BRANCH  13  19
ATOM     19  CD2 LEU d          35.405  -1.654  40.091  0.00  0.00    -0.073 C 
ATOM     20  H11 LEU d          36.403  -1.576  39.635  0.00  0.00     0.028 H 
ATOM     21  H12 LEU d          35.286  -2.649  40.543  0.00  0.00     0.028 H 
ATOM     22  H13 LEU d          35.296  -0.883  40.867  0.00  0.00     0.028 H 
ENDBRANCH  13  19
ENDBRANCH   1  13
TORSDOF 6
ENDMDL
MODEL 6
REMARK VINA RESULT:      -3.6      2.407      3.837
REMARK  6 active torsions:
REMARK  status: ('A' for Active; 'I' for Inactive)
REMARK    1  A    between atoms: N_1  and  CA_2 
REMARK    2  A    between atoms: CA_2  and  C_3 
REMARK    3  A    between atoms: CA_2  and  CB_5 
REMARK    4  A    between atoms: CB_5  and  CG_6 
REMARK    5  A    between atoms: CG_6  and  CD1_7 
REMARK    6  A    between atoms: CG_6  and  CD2_8 
ROOT
ATOM      1  CB  LEU d          33.972  -1.821  38.366  0.00  0.00    -0.026 C 
ATOM      2  H5  LEU d          33.350  -1.109  38.930  0.00  0.00     0.037 H 
ATOM      3  H6  LEU d          34.727  -1.270  37.787  0.00  0.00     0.037 H 
ENDROOT
BRANCH   1   4
ATOM      4  CA  LEU d          33.081  -2.644  37.407  0.00  0.00     0.182 C 
ATOM      5  H4  LEU d          33.137  -3.701  37.704  0.00  0.00     0.101 H 
BRANCH   4   6
ATOM      6  N   LEU d          33.551  -2.523  35.995  0.00  0.00    -0.065 N 
ATOM      7  H1  LEU d          34.497  -2.864  35.925  0.00  0.00     0.275 HD
ATOM      8  H2  LEU d          33.519  -1.556  35.712  0.00  0.00     0.275 HD
ATOM      9  H3  LEU d          32.952  -3.068  35.395  0.00  0.00     0.275 HD
ENDBRANCH   4   6
BRANCH   4  10
ATOM     10  C   LEU d          31.629  -2.182  37.510  0.00  0.00     0.204 C 
ATOM     11  O   LEU d          30.784  -2.733  36.801  0.00  0.00    -0.646 OA
ATOM     12  OXT LEU d          31.486  -1.285  38.402  0.00  0.00    -0.646 OA
ENDBRANCH   4  10
ENDBRANCH   1   4
BRANCH   1  13
ATOM     13  CG  LEU d          34.663  -2.772  39.332  0.00  0.00    -0.059 C 
ATOM     14  H7  LEU d          35.126  -3.565  38.725  0.00  0.00     0.038 H 
BRANCH  13  15
ATOM     15  CD1 LEU d          35.775  -2.146  40.136  0.00  0.00    -0.073 C 
ATOM     16  H8  LEU d          35.487  -2.113  41.197  0.00  0.00     0.028 H 
ATOM     17  H9  LEU d          35.959  -1.124  39.774  0.00  0.00     0.028 H 
ATOM     18  H10 LEU d          36.691  -2.746  40.023  0.00  0.00     0.028 H 
ENDBRANCH  13  15
BRANCH  13  19
ATOM     19  CD2 LEU d          33.615  -3.431  40.219  0.00  0.00    -0.073 C 
ATOM     20  H11 LEU d          33.764  -4.521  40.215  0.00  0.00     0.028 H 
ATOM     21  H12 LEU d          32.611  -3.197  39.836  0.00  0.00     0.028 H 
ATOM     22  H13 LEU d          33.712  -3.051  41.246  0.00  0.00     0.028 H 
ENDBRANCH  13  19
ENDBRANCH   1  13
TORSDOF 6
ENDMDL
MODEL 7
REMARK VINA RESULT:      -3.4      1.981      2.591
REMARK  6 active torsions:
REMARK  status: ('A' for Active; 'I' for Inactive)
REMARK    1  A    between atoms: N_1  and  CA_2 
REMARK    2  A    between atoms: CA_2  and  C_3 
REMARK    3  A    between atoms: CA_2  and  CB_5 
REMARK    4  A    between atoms: CB_5  and  CG_6 
REMARK    5  A    between atoms: CG_6  and  CD1_7 
REMARK    6  A    between atoms: CG_6  and  CD2_8 
ROOT
ATOM      1  CB  LEU d          32.920  -3.517  37.845  0.00  0.00    -0.026 C 
ATOM      2  H5  LEU d          33.728  -4.243  38.024  0.00  0.00     0.037 H 
ATOM      3  H6  LEU d          32.158  -3.970  37.195  0.00  0.00     0.037 H 
ENDROOT
BRANCH   1   4
ATOM      4  CA  LEU d          33.498  -2.254  37.167  0.00  0.00     0.182 C 
ATOM      5  H4  LEU d          32.893  -1.389  37.474  0.00  0.00     0.101 H 
BRANCH   4   6
ATOM      6  N   LEU d          33.444  -2.366  35.679  0.00  0.00    -0.065 N 
ATOM      7  H1  LEU d          32.918  -1.593  35.302  0.00  0.00     0.275 HD
ATOM      8  H2  LEU d          32.999  -3.233  35.423  0.00  0.00     0.275 HD
ATOM      9  H3  LEU d          34.381  -2.348  35.307  0.00  0.00     0.275 HD
ENDBRANCH   4   6
BRANCH   4  10
ATOM     10  C   LEU d          34.940  -2.026  37.615  0.00  0.00     0.204 C 
ATOM     11  O   LEU d          35.830  -2.717  37.115  0.00  0.00    -0.646 OA
ATOM     12  OXT LEU d          35.024  -1.065  38.446  0.00  0.00    -0.646 OA
ENDBRANCH   4  10
ENDBRANCH   1   4
BRANCH   1  13
ATOM     13  CG  LEU d          32.289  -3.118  39.171  0.00  0.00    -0.059 C 
ATOM     14  H7  LEU d          31.376  -3.721  39.286  0.00  0.00     0.038 H 
BRANCH  13  15
ATOM     15  CD1 LEU d          33.144  -3.405  40.380  0.00  0.00    -0.073 C 
ATOM     16  H8  LEU d          33.907  -2.620  40.484  0.00  0.00     0.028 H 
ATOM     17  H9  LEU d          33.637  -4.381  40.258  0.00  0.00     0.028 H 
ATOM     18  H10 LEU d          32.511  -3.424  41.279  0.00  0.00     0.028 H 
ENDBRANCH  13  15
BRANCH  13  19
ATOM     19  CD2 LEU d          31.865  -1.657  39.101  0.00  0.00    -0.073 C 
ATOM     20  H11 LEU d          30.851  -1.550  39.512  0.00  0.00     0.028 H 
ATOM     21  H12 LEU d          31.874  -1.322  38.054  0.00  0.00     0.028 H 
ATOM     22  H13 LEU d          32.565  -1.044  39.687  0.00  0.00     0.028 H 
ENDBRANCH  13  19
ENDBRANCH   1  13
TORSDOF 6
ENDMDL
MODEL 8
REMARK VINA RESULT:      -3.4      2.138      3.224
REMARK  6 active torsions:
REMARK  status: ('A' for Active; 'I' for Inactive)
REMARK    1  A    between atoms: N_1  and  CA_2 
REMARK    2  A    between atoms: CA_2  and  C_3 
REMARK    3  A    between atoms: CA_2  and  CB_5 
REMARK    4  A    between atoms: CB_5  and  CG_6 
REMARK    5  A    between atoms: CG_6  and  CD1_7 
REMARK    6  A    between atoms: CG_6  and  CD2_8 
ROOT
ATOM      1  CB  LEU d          33.823  -3.300  38.100  0.00  0.00    -0.026 C 
ATOM      2  H5  LEU d          34.277  -3.998  37.382  0.00  0.00     0.037 H 
ATOM      3  H6  LEU d          33.471  -3.857  38.981  0.00  0.00     0.037 H 
ENDROOT
BRANCH   1   4
ATOM      4  CA  LEU d          32.631  -2.573  37.436  0.00  0.00     0.182 C 
ATOM      5  H4  LEU d          31.771  -3.259  37.421  0.00  0.00     0.101 H 
BRANCH   4   6
ATOM      6  N   LEU d          32.950  -2.184  36.030  0.00  0.00    -0.065 N 
ATOM      7  H1  LEU d          32.814  -1.191  35.916  0.00  0.00     0.275 HD
ATOM      8  H2  LEU d          32.343  -2.681  35.398  0.00  0.00     0.275 HD
ATOM      9  H3  LEU d          33.910  -2.417  35.827  0.00  0.00     0.275 HD
ENDBRANCH   4   6
BRANCH   4  10
ATOM     10  C   LEU d          32.254  -1.332  38.241  0.00  0.00     0.204 C 
ATOM     11  O   LEU d          32.330  -0.229  37.696  0.00  0.00    -0.646 OA
ATOM     12  OXT LEU d          31.839  -1.639  39.405  0.00  0.00    -0.646 OA
ENDBRANCH   4  10
ENDBRANCH   1   4
BRANCH   1  13
ATOM     13  CG  LEU d          34.853  -2.265  38.528  0.00  0.00    -0.059 C 
ATOM     14  H7  LEU d          34.386  -1.276  38.402  0.00  0.00     0.038 H 
BRANCH  13  15
ATOM     15  CD1 LEU d          35.268  -2.359  39.975  0.00  0.00    -0.073 C 
ATOM     16  H8  LEU d          35.451  -3.411  40.236  0.00  0.00     0.028 H 
ATOM     17  H9  LEU d          34.468  -1.956  40.613  0.00  0.00     0.028 H 
ATOM     18  H10 LEU d          36.188  -1.777  40.130  0.00  0.00     0.028 H 
ENDBRANCH  13  15
BRANCH  13  19
ATOM     19  CD2 LEU d          36.046  -2.329  37.583  0.00  0.00    -0.073 C 
ATOM     20  H11 LEU d          36.924  -2.709  38.126  0.00  0.00     0.028 H 
ATOM     21  H12 LEU d          36.262  -1.322  37.196  0.00  0.00     0.028 H 
ATOM     22  H13 LEU d          35.814  -3.002  36.745  0.00  0.00     0.028 H 
ENDBRANCH  13  19
ENDBRANCH   1  13
TORSDOF 6
ENDMDL
MODEL 9
REMARK VINA RESULT:      -1.9      1.919      2.517
REMARK  6 active torsions:
REMARK  status: ('A' for Active; 'I' for Inactive)
REMARK    1  A    between atoms: N_1  and  CA_2 
REMARK    2  A    between atoms: CA_2  and  C_3 
REMARK    3  A    between atoms: CA_2  and  CB_5 
REMARK    4  A    between atoms: CB_5  and  CG_6 
REMARK    5  A    between atoms: CG_6  and  CD1_7 
REMARK    6  A    between atoms: CG_6  and  CD2_8 
ROOT
ATOM      1  CB  LEU d          33.069  -2.714  38.583  0.00  0.00    -0.026 C 
ATOM      2  H5  LEU d          33.693  -3.078  39.414  0.00  0.00     0.037 H 
ATOM      3  H6  LEU d          32.428  -3.532  38.221  0.00  0.00     0.037 H 
ENDROOT
BRANCH   1   4
ATOM      4  CA  LEU d          33.973  -2.214  37.434  0.00  0.00     0.182 C 
ATOM      5  H4  LEU d          33.852  -1.125  37.347  0.00  0.00     0.101 H 
BRANCH   4   6
ATOM      6  N   LEU d          33.590  -2.839  36.133  0.00  0.00    -0.065 N 
ATOM      7  H1  LEU d          34.376  -2.809  35.501  0.00  0.00     0.275 HD
ATOM      8  H2  LEU d          32.817  -2.333  35.732  0.00  0.00     0.275 HD
ATOM      9  H3  LEU d          33.320  -3.798  36.287  0.00  0.00     0.275 HD
ENDBRANCH   4   6
BRANCH   4  10
ATOM     10  C   LEU d          35.437  -2.521  37.742  0.00  0.00     0.204 C 
ATOM     11  O   LEU d          36.278  -2.332  36.861  0.00  0.00    -0.646 OA
ATOM     12  OXT LEU d          35.592  -2.895  38.950  0.00  0.00    -0.646 OA
ENDBRANCH   4  10
ENDBRANCH   1   4
BRANCH   1  13
ATOM     13  CG  LEU d          32.201  -1.560  39.063  0.00  0.00    -0.059 C 
ATOM     14  H7  LEU d          32.850  -0.673  39.121  0.00  0.00     0.038 H 
BRANCH  13  15
ATOM     15  CD1 LEU d          31.071  -1.200  38.132  0.00  0.00    -0.073 C 
ATOM     16  H8  LEU d          30.887  -2.034  37.439  0.00  0.00     0.028 H 
ATOM     17  H9  LEU d          31.340  -0.301  37.559  0.00  0.00     0.028 H 
ATOM     18  H10 LEU d          30.162  -1.002  38.718  0.00  0.00     0.028 H 
ENDBRANCH  13  15
BRANCH  13  19
ATOM     19  CD2 LEU d          31.710  -1.859  40.474  0.00  0.00    -0.073 C 
ATOM     20  H11 LEU d          31.986  -2.887  40.748  0.00  0.00     0.028 H 
ATOM     21  H12 LEU d          30.616  -1.750  40.512  0.00  0.00     0.028 H 
ATOM     22  H13 LEU d          32.172  -1.154  41.180  0.00  0.00     0.028 H 
ENDBRANCH  13  19
ENDBRANCH   1  13
TORSDOF 6
ENDMDL
