MODEL 1
REMARK VINA RESULT:      -9.7      0.000      0.000
REMARK  3 active torsions:
REMARK  status: ('A' for Active; 'I' for Inactive)
REMARK    1  A    between atoms: C1_1  and  O1_2 
REMARK    2  A    between atoms: C10_11  and  C11_12 
REMARK    3  A    between atoms: C14_15  and  C15_16 
ROOT
ATOM      1  C1  MOL d          22.352   6.175  18.803  0.00  0.00     0.066 A 
ATOM      2  C2  MOL d          22.260   4.784  18.915  0.00  0.00    -0.049 A 
ATOM      3  C3  MOL d          22.304   3.969  17.782  0.00  0.00    -0.054 A 
ATOM      4  C4  MOL d          22.440   4.564  16.530  0.00  0.00     0.044 A 
ATOM      5  C5  MOL d          22.529   5.941  16.437  0.00  0.00     0.006 A 
ATOM      6  C6  MOL d          22.490   6.775  17.551  0.00  0.00    -0.038 A 
ATOM      7  N7  MOL d          22.516   4.088  15.245  0.00  0.00    -0.354 N 
ATOM      8  C8  MOL d          22.653   5.092  14.315  0.00  0.00     0.051 A 
ATOM      9  C9  MOL d          22.666   6.283  15.017  0.00  0.00     0.011 A 
ATOM     10  C10 MOL d          22.771   5.115  12.929  0.00  0.00    -0.023 A 
ATOM     11  C12 MOL d          22.899   6.346  12.271  0.00  0.00    -0.011 A 
ATOM     12  C13 MOL d          22.908   7.559  12.994  0.00  0.00     0.036 A 
ATOM     13  C14 MOL d          22.790   7.532  14.399  0.00  0.00    -0.033 A 
ATOM     14  C16 MOL d          23.013   6.379  10.878  0.00  0.00    -0.057 A 
ATOM     15  C17 MOL d          23.139   7.600  10.219  0.00  0.00    -0.020 A 
ATOM     16  N18 MOL d          23.150   8.747  10.922  0.00  0.00    -0.344 N 
ATOM     17  C19 MOL d          23.039   8.759  12.264  0.00  0.00     0.190 A 
ATOM     18  O19 MOL d          23.062   9.971  12.890  0.00  0.00    -0.171 OA
ATOM     19  H2  MOL d          22.154   4.332  19.895  0.00  0.00     0.087 H 
ATOM     20  H3  MOL d          22.232   2.892  17.876  0.00  0.00     0.087 H 
ATOM     21  H4  MOL d          22.564   7.852  17.450  0.00  0.00     0.089 H 
ATOM     22  H5  MOL d          22.475   3.088  15.003  0.00  0.00     0.166 HD
ATOM     23  H12 MOL d          23.003   5.451  10.309  0.00  0.00     0.086 H 
ATOM     24  H13 MOL d          23.228   7.625   9.134  0.00  0.00     0.111 H 
ATOM     25  H14 MOL d          23.243   9.614  10.434  0.00  0.00     0.167 HD
ENDROOT
BRANCH  10  26
ATOM     26  C11 MOL d          22.756   3.811  12.164  0.00  0.00    -0.048 C 
ATOM     27  H6  MOL d          21.845   3.248  12.418  0.00  0.00     0.033 H 
ATOM     28  H7  MOL d          23.641   3.216  12.435  0.00  0.00     0.033 H 
ATOM     29  H8  MOL d          22.770   4.018  11.084  0.00  0.00     0.033 H 
ENDBRANCH  10  26
BRANCH  13  30
ATOM     30  C15 MOL d          22.791   8.795  15.237  0.00  0.00    -0.049 C 
ATOM     31  H9  MOL d          21.775   9.216  15.267  0.00  0.00     0.033 H 
ATOM     32  H10 MOL d          23.479   9.529  14.792  0.00  0.00     0.033 H 
ATOM     33  H11 MOL d          23.119   8.557  16.259  0.00  0.00     0.033 H 
ENDBRANCH  13  30
BRANCH   1  34
ATOM     34  O1  MOL d          22.309   6.947  19.928  0.00  0.00    -0.361 OA
ATOM     35  H1  MOL d          23.065   6.757  20.470  0.00  0.00     0.217 HD
ENDBRANCH   1  34
TORSDOF 3
ENDMDL
MODEL 2
REMARK VINA RESULT:      -9.5      2.083      3.168
REMARK  3 active torsions:
REMARK  status: ('A' for Active; 'I' for Inactive)
REMARK    1  A    between atoms: C1_1  and  O1_2 
REMARK    2  A    between atoms: C10_11  and  C11_12 
REMARK    3  A    between atoms: C14_15  and  C15_16 
ROOT
ATOM      1  C1  MOL d          22.182   4.906  18.841  0.00  0.00     0.066 A 
ATOM      2  C2  MOL d          22.238   6.133  19.511  0.00  0.00    -0.049 A 
ATOM      3  C3  MOL d          22.432   7.324  18.810  0.00  0.00    -0.054 A 
ATOM      4  C4  MOL d          22.572   7.275  17.424  0.00  0.00     0.044 A 
ATOM      5  C5  MOL d          22.514   6.054  16.778  0.00  0.00     0.006 A 
ATOM      6  C6  MOL d          22.320   4.852  17.454  0.00  0.00    -0.038 A 
ATOM      7  N7  MOL d          22.770   8.217  16.447  0.00  0.00    -0.354 N 
ATOM      8  C8  MOL d          22.843   7.668  15.189  0.00  0.00     0.051 A 
ATOM      9  C9  MOL d          22.688   6.303  15.343  0.00  0.00     0.011 A 
ATOM     10  C10 MOL d          23.025   8.194  13.914  0.00  0.00    -0.023 A 
ATOM     11  C12 MOL d          23.050   7.329  12.810  0.00  0.00    -0.011 A 
ATOM     12  C13 MOL d          22.894   5.936  12.975  0.00  0.00     0.036 A 
ATOM     13  C14 MOL d          22.707   5.405  14.269  0.00  0.00    -0.033 A 
ATOM     14  C16 MOL d          23.238   7.849  11.526  0.00  0.00    -0.057 A 
ATOM     15  C17 MOL d          23.265   6.994  10.427  0.00  0.00    -0.020 A 
ATOM     16  N18 MOL d          23.111   5.669  10.599  0.00  0.00    -0.344 N 
ATOM     17  C19 MOL d          22.931   5.128  11.820  0.00  0.00     0.190 A 
ATOM     18  O19 MOL d          22.783   3.774  11.896  0.00  0.00    -0.171 OA
ATOM     19  H2  MOL d          22.128   6.158  20.589  0.00  0.00     0.087 H 
ATOM     20  H3  MOL d          22.475   8.271  19.335  0.00  0.00     0.087 H 
ATOM     21  H4  MOL d          22.276   3.908  16.922  0.00  0.00     0.089 H 
ATOM     22  H5  MOL d          22.856   9.226  16.635  0.00  0.00     0.166 HD
ATOM     23  H12 MOL d          23.362   8.921  11.386  0.00  0.00     0.086 H 
ATOM     24  H13 MOL d          23.410   7.399   9.426  0.00  0.00     0.111 H 
ATOM     25  H14 MOL d          23.130   5.070   9.800  0.00  0.00     0.167 HD
ENDROOT
BRANCH  10  26
ATOM     26  C11 MOL d          23.195   9.687  13.748  0.00  0.00    -0.048 C 
ATOM     27  H6  MOL d          22.802  10.202  14.637  0.00  0.00     0.033 H 
ATOM     28  H7  MOL d          22.643  10.023  12.857  0.00  0.00     0.033 H 
ATOM     29  H8  MOL d          24.262   9.924  13.629  0.00  0.00     0.033 H 
ENDBRANCH  10  26
BRANCH  13  30
ATOM     30  C15 MOL d          22.536   3.921  14.519  0.00  0.00    -0.049 C 
ATOM     31  H9  MOL d          23.391   3.375  14.093  0.00  0.00     0.033 H 
ATOM     32  H10 MOL d          21.607   3.574  14.043  0.00  0.00     0.033 H 
ATOM     33  H11 MOL d          22.485   3.735  15.602  0.00  0.00     0.033 H 
ENDBRANCH  13  30
BRANCH   1  34
ATOM     34  O1  MOL d          21.988   3.757  19.551  0.00  0.00    -0.361 OA
ATOM     35  H1  MOL d          21.691   3.070  18.965  0.00  0.00     0.217 HD
ENDBRANCH   1  34
TORSDOF 3
ENDMDL
MODEL 3
REMARK VINA RESULT:      -9.4      1.704      2.201
REMARK  3 active torsions:
REMARK  status: ('A' for Active; 'I' for Inactive)
REMARK    1  A    between atoms: C1_1  and  O1_2 
REMARK    2  A    between atoms: C10_11  and  C11_12 
REMARK    3  A    between atoms: C14_15  and  C15_16 
ROOT
ATOM      1  C1  MOL d          22.598   9.613  18.262  0.00  0.00     0.066 A 
ATOM      2  C2  MOL d          22.496   8.521  19.129  0.00  0.00    -0.049 A 
ATOM      3  C3  MOL d          22.519   7.214  18.643  0.00  0.00    -0.054 A 
ATOM      4  C4  MOL d          22.646   7.008  17.271  0.00  0.00     0.044 A 
ATOM      5  C5  MOL d          22.746   8.099  16.426  0.00  0.00     0.006 A 
ATOM      6  C6  MOL d          22.727   9.412  16.887  0.00  0.00    -0.038 A 
ATOM      7  N7  MOL d          22.703   5.896  16.469  0.00  0.00    -0.354 N 
ATOM      8  C8  MOL d          22.838   6.210  15.137  0.00  0.00     0.051 A 
ATOM      9  C9  MOL d          22.869   7.589  15.056  0.00  0.00     0.011 A 
ATOM     10  C10 MOL d          22.941   5.455  13.972  0.00  0.00    -0.023 A 
ATOM     11  C12 MOL d          23.071   6.109  12.739  0.00  0.00    -0.011 A 
ATOM     12  C13 MOL d          23.099   7.519  12.663  0.00  0.00     0.036 A 
ATOM     13  C14 MOL d          22.997   8.281  13.846  0.00  0.00    -0.033 A 
ATOM     14  C16 MOL d          23.169   5.360  11.563  0.00  0.00    -0.057 A 
ATOM     15  C17 MOL d          23.297   6.004  10.335  0.00  0.00    -0.020 A 
ATOM     16  N18 MOL d          23.327   7.347  10.280  0.00  0.00    -0.344 N 
ATOM     17  C19 MOL d          23.232   8.107  11.388  0.00  0.00     0.190 A 
ATOM     18  O19 MOL d          23.272   9.462  11.233  0.00  0.00    -0.171 OA
ATOM     19  H2  MOL d          22.397   8.693  20.195  0.00  0.00     0.087 H 
ATOM     20  H3  MOL d          22.440   6.372  19.321  0.00  0.00     0.087 H 
ATOM     21  H4  MOL d          22.809  10.250  16.203  0.00  0.00     0.089 H 
ATOM     22  H5  MOL d          22.650   4.932  16.825  0.00  0.00     0.166 HD
ATOM     23  H12 MOL d          23.145   4.272  11.608  0.00  0.00     0.086 H 
ATOM     24  H13 MOL d          23.374   5.420   9.419  0.00  0.00     0.111 H 
ATOM     25  H14 MOL d          23.422   7.795   9.391  0.00  0.00     0.167 HD
ENDROOT
BRANCH  10  26
ATOM     26  C11 MOL d          22.905   3.946  14.064  0.00  0.00    -0.048 C 
ATOM     27  H6  MOL d          23.755   3.596  14.667  0.00  0.00     0.033 H 
ATOM     28  H7  MOL d          22.970   3.516  13.053  0.00  0.00     0.033 H 
ATOM     29  H8  MOL d          21.964   3.629  14.537  0.00  0.00     0.033 H 
ENDBRANCH  10  26
BRANCH  13  30
ATOM     30  C15 MOL d          23.019   9.796  13.838  0.00  0.00    -0.049 C 
ATOM     31  H9  MOL d          24.056  10.148  13.736  0.00  0.00     0.033 H 
ATOM     32  H10 MOL d          22.595  10.174  14.780  0.00  0.00     0.033 H 
ATOM     33  H11 MOL d          22.422  10.167  12.992  0.00  0.00     0.033 H 
ENDBRANCH  13  30
BRANCH   1  34
ATOM     34  O1  MOL d          22.575  10.881  18.765  0.00  0.00    -0.361 OA
ATOM     35  H1  MOL d          21.993  10.912  19.515  0.00  0.00     0.217 HD
ENDBRANCH   1  34
TORSDOF 3
ENDMDL
MODEL 4
REMARK VINA RESULT:      -9.2      1.685      5.850
REMARK  3 active torsions:
REMARK  status: ('A' for Active; 'I' for Inactive)
REMARK    1  A    between atoms: C1_1  and  O1_2 
REMARK    2  A    between atoms: C10_11  and  C11_12 
REMARK    3  A    between atoms: C14_15  and  C15_16 
ROOT
ATOM      1  C1  MOL d          23.241   8.927  11.333  0.00  0.00     0.066 A 
ATOM      2  C2  MOL d          23.242   7.749  10.579  0.00  0.00    -0.049 A 
ATOM      3  C3  MOL d          23.108   6.504  11.194  0.00  0.00    -0.054 A 
ATOM      4  C4  MOL d          22.973   6.448  12.580  0.00  0.00     0.044 A 
ATOM      5  C5  MOL d          22.974   7.622  13.310  0.00  0.00     0.006 A 
ATOM      6  C6  MOL d          23.104   8.877  12.720  0.00  0.00    -0.038 A 
ATOM      7  N7  MOL d          22.825   5.431  13.489  0.00  0.00    -0.354 N 
ATOM      8  C8  MOL d          22.727   5.887  14.782  0.00  0.00     0.051 A 
ATOM      9  C9  MOL d          22.817   7.265  14.724  0.00  0.00     0.011 A 
ATOM     10  C10 MOL d          22.567   5.264  16.016  0.00  0.00    -0.023 A 
ATOM     11  C12 MOL d          22.503   6.047  17.177  0.00  0.00    -0.011 A 
ATOM     12  C13 MOL d          22.598   7.455  17.112  0.00  0.00     0.036 A 
ATOM     13  C14 MOL d          22.757   8.083  15.858  0.00  0.00    -0.033 A 
ATOM     14  C16 MOL d          22.348   5.430  18.422  0.00  0.00    -0.057 A 
ATOM     15  C17 MOL d          22.284   6.203  19.579  0.00  0.00    -0.020 A 
ATOM     16  N18 MOL d          22.372   7.542  19.500  0.00  0.00    -0.344 N 
ATOM     17  C19 MOL d          22.526   8.176  18.321  0.00  0.00     0.190 A 
ATOM     18  O19 MOL d          22.604   9.538  18.340  0.00  0.00    -0.171 OA
ATOM     19  H2  MOL d          23.348   7.804   9.501  0.00  0.00     0.087 H 
ATOM     20  H3  MOL d          23.110   5.595  10.603  0.00  0.00     0.087 H 
ATOM     21  H4  MOL d          23.100   9.782  13.317  0.00  0.00     0.089 H 
ATOM     22  H5  MOL d          22.792   4.435  13.231  0.00  0.00     0.166 HD
ATOM     23  H12 MOL d          22.277   4.346  18.487  0.00  0.00     0.086 H 
ATOM     24  H13 MOL d          22.163   5.722  20.549  0.00  0.00     0.111 H 
ATOM     25  H14 MOL d          22.322   8.083  20.339  0.00  0.00     0.167 HD
ENDROOT
BRANCH  10  26
ATOM     26  C11 MOL d          22.471   3.757  16.076  0.00  0.00    -0.048 C 
ATOM     27  H6  MOL d          23.065   3.318  15.260  0.00  0.00     0.033 H 
ATOM     28  H7  MOL d          21.420   3.451  15.969  0.00  0.00     0.033 H 
ATOM     29  H8  MOL d          22.858   3.402  17.043  0.00  0.00     0.033 H 
ENDBRANCH  10  26
BRANCH  13  30
ATOM     30  C15 MOL d          22.868   9.587  15.715  0.00  0.00    -0.049 C 
ATOM     31  H9  MOL d          23.453   9.828  14.815  0.00  0.00     0.033 H 
ATOM     32  H10 MOL d          23.369  10.004  16.600  0.00  0.00     0.033 H 
ATOM     33  H11 MOL d          21.861  10.021  15.624  0.00  0.00     0.033 H 
ENDBRANCH  13  30
BRANCH   1  34
ATOM     34  O1  MOL d          23.371  10.132  10.705  0.00  0.00    -0.361 OA
ATOM     35  H1  MOL d          23.980  10.046   9.981  0.00  0.00     0.217 HD
ENDBRANCH   1  34
TORSDOF 3
ENDMDL
MODEL 5
REMARK VINA RESULT:      -9.0      2.349      6.522
REMARK  3 active torsions:
REMARK  status: ('A' for Active; 'I' for Inactive)
REMARK    1  A    between atoms: C1_1  and  O1_2 
REMARK    2  A    between atoms: C10_11  and  C11_12 
REMARK    3  A    between atoms: C14_15  and  C15_16 
ROOT
ATOM      1  C1  MOL d          22.918   4.949  12.140  0.00  0.00     0.066 A 
ATOM      2  C2  MOL d          23.163   6.122  11.419  0.00  0.00    -0.049 A 
ATOM      3  C3  MOL d          23.264   7.353  12.067  0.00  0.00    -0.054 A 
ATOM      4  C4  MOL d          23.116   7.401  13.451  0.00  0.00     0.044 A 
ATOM      5  C5  MOL d          22.873   6.232  14.149  0.00  0.00     0.006 A 
ATOM      6  C6  MOL d          22.770   4.990  13.527  0.00  0.00    -0.038 A 
ATOM      7  N7  MOL d          23.152   8.404  14.386  0.00  0.00    -0.354 N 
ATOM      8  C8  MOL d          22.947   7.945  15.666  0.00  0.00     0.051 A 
ATOM      9  C9  MOL d          22.764   6.578  15.571  0.00  0.00     0.011 A 
ATOM     10  C10 MOL d          22.898   8.555  16.915  0.00  0.00    -0.023 A 
ATOM     11  C12 MOL d          22.661   7.771  18.053  0.00  0.00    -0.011 A 
ATOM     12  C13 MOL d          22.472   6.376  17.949  0.00  0.00     0.036 A 
ATOM     13  C14 MOL d          22.525   5.760  16.681  0.00  0.00    -0.033 A 
ATOM     14  C16 MOL d          22.604   8.376  19.312  0.00  0.00    -0.057 A 
ATOM     15  C17 MOL d          22.369   7.603  20.446  0.00  0.00    -0.020 A 
ATOM     16  N18 MOL d          22.195   6.274  20.331  0.00  0.00    -0.344 N 
ATOM     17  C19 MOL d          22.238   5.652  19.137  0.00  0.00     0.190 A 
ATOM     18  O19 MOL d          22.052   4.301  19.119  0.00  0.00    -0.171 OA
ATOM     19  H2  MOL d          23.277   6.073  10.342  0.00  0.00     0.087 H 
ATOM     20  H3  MOL d          23.455   8.259  11.502  0.00  0.00     0.087 H 
ATOM     21  H4  MOL d          22.581   4.089  14.099  0.00  0.00     0.089 H 
ATOM     22  H5  MOL d          23.316   9.394  14.155  0.00  0.00     0.166 HD
ATOM     23  H12 MOL d          22.745   9.452  19.406  0.00  0.00     0.086 H 
ATOM     24  H13 MOL d          22.325   8.075  21.427  0.00  0.00     0.111 H 
ATOM     25  H14 MOL d          22.029   5.733  21.155  0.00  0.00     0.167 HD
ENDROOT
BRANCH  10  26
ATOM     26  C11 MOL d          23.096  10.050  17.016  0.00  0.00    -0.048 C 
ATOM     27  H6  MOL d          22.231  10.565  16.573  0.00  0.00     0.033 H 
ATOM     28  H7  MOL d          24.010  10.336  16.474  0.00  0.00     0.033 H 
ATOM     29  H8  MOL d          23.192  10.337  18.073  0.00  0.00     0.033 H 
ENDBRANCH  10  26
BRANCH  13  30
ATOM     30  C15 MOL d          22.330   4.269  16.496  0.00  0.00    -0.049 C 
ATOM     31  H9  MOL d          21.258   4.029  16.548  0.00  0.00     0.033 H 
ATOM     32  H10 MOL d          22.865   3.728  17.290  0.00  0.00     0.033 H 
ATOM     33  H11 MOL d          22.726   3.966  15.515  0.00  0.00     0.033 H 
ENDBRANCH  13  30
BRANCH   1  34
ATOM     34  O1  MOL d          22.826   3.757  11.481  0.00  0.00    -0.361 OA
ATOM     35  H1  MOL d          23.698   3.455  11.254  0.00  0.00     0.217 HD
ENDBRANCH   1  34
TORSDOF 3
ENDMDL
MODEL 6
REMARK VINA RESULT:      -8.9      2.309      3.632
REMARK  3 active torsions:
REMARK  status: ('A' for Active; 'I' for Inactive)
REMARK    1  A    between atoms: C1_1  and  O1_2 
REMARK    2  A    between atoms: C10_11  and  C11_12 
REMARK    3  A    between atoms: C14_15  and  C15_16 
ROOT
ATOM      1  C1  MOL d          22.499   7.840  19.213  0.00  0.00     0.066 A 
ATOM      2  C2  MOL d          22.573   9.236  19.271  0.00  0.00    -0.049 A 
ATOM      3  C3  MOL d          22.729   9.994  18.109  0.00  0.00    -0.054 A 
ATOM      4  C4  MOL d          22.810   9.338  16.883  0.00  0.00     0.044 A 
ATOM      5  C5  MOL d          22.735   7.957  16.844  0.00  0.00     0.006 A 
ATOM      6  C6  MOL d          22.579   7.179  17.987  0.00  0.00    -0.038 A 
ATOM      7  N7  MOL d          22.960   9.750  15.583  0.00  0.00    -0.354 N 
ATOM      8  C8  MOL d          22.984   8.702  14.694  0.00  0.00     0.051 A 
ATOM      9  C9  MOL d          22.847   7.546  15.440  0.00  0.00     0.011 A 
ATOM     10  C10 MOL d          23.108   8.611  13.311  0.00  0.00    -0.023 A 
ATOM     11  C12 MOL d          23.094   7.348  12.702  0.00  0.00    -0.011 A 
ATOM     12  C13 MOL d          22.957   6.171  13.470  0.00  0.00     0.036 A 
ATOM     13  C14 MOL d          22.829   6.267  14.872  0.00  0.00    -0.033 A 
ATOM     14  C16 MOL d          23.224   7.246  11.314  0.00  0.00    -0.057 A 
ATOM     15  C17 MOL d          23.211   5.994  10.703  0.00  0.00    -0.020 A 
ATOM     16  N18 MOL d          23.076   4.883  11.448  0.00  0.00    -0.344 N 
ATOM     17  C19 MOL d          22.952   4.936  12.789  0.00  0.00     0.190 A 
ATOM     18  O19 MOL d          22.818   3.757  13.460  0.00  0.00    -0.171 OA
ATOM     19  H2  MOL d          22.508   9.735  20.231  0.00  0.00     0.087 H 
ATOM     20  H3  MOL d          22.785  11.075  18.161  0.00  0.00     0.087 H 
ATOM     21  H4  MOL d          22.521   6.098  17.928  0.00  0.00     0.089 H 
ATOM     22  H5  MOL d          23.045  10.737  15.303  0.00  0.00     0.166 HD
ATOM     23  H12 MOL d          23.333   8.145  10.710  0.00  0.00     0.086 H 
ATOM     24  H13 MOL d          23.312   5.915   9.621  0.00  0.00     0.111 H 
ATOM     25  H14 MOL d          23.066   3.992  10.995  0.00  0.00     0.167 HD
ENDROOT
BRANCH  10  26
ATOM     26  C11 MOL d          23.259   9.876  12.497  0.00  0.00    -0.048 C 
ATOM     27  H6  MOL d          23.986  10.541  12.986  0.00  0.00     0.033 H 
ATOM     28  H7  MOL d          22.286  10.385  12.427  0.00  0.00     0.033 H 
ATOM     29  H8  MOL d          23.613   9.623  11.487  0.00  0.00     0.033 H 
ENDBRANCH  10  26
BRANCH  13  30
ATOM     30  C15 MOL d          22.680   5.047  15.757  0.00  0.00    -0.049 C 
ATOM     31  H9  MOL d          22.764   4.137  15.145  0.00  0.00     0.033 H 
ATOM     32  H10 MOL d          21.696   5.068  16.248  0.00  0.00     0.033 H 
ATOM     33  H11 MOL d          23.471   5.049  16.521  0.00  0.00     0.033 H 
ENDBRANCH  13  30
BRANCH   1  34
ATOM     34  O1  MOL d          22.345   7.124  20.365  0.00  0.00    -0.361 OA
ATOM     35  H1  MOL d          23.111   6.579  20.502  0.00  0.00     0.217 HD
ENDBRANCH   1  34
TORSDOF 3
ENDMDL
MODEL 7
REMARK VINA RESULT:      -8.7      2.085      6.663
REMARK  3 active torsions:
REMARK  status: ('A' for Active; 'I' for Inactive)
REMARK    1  A    between atoms: C1_1  and  O1_2 
REMARK    2  A    between atoms: C10_11  and  C11_12 
REMARK    3  A    between atoms: C14_15  and  C15_16 
ROOT
ATOM      1  C1  MOL d          23.221   8.454  11.191  0.00  0.00     0.066 A 
ATOM      2  C2  MOL d          23.343   9.842  11.311  0.00  0.00    -0.049 A 
ATOM      3  C3  MOL d          23.297  10.461  12.561  0.00  0.00    -0.054 A 
ATOM      4  C4  MOL d          23.126   9.672  13.696  0.00  0.00     0.044 A 
ATOM      5  C5  MOL d          23.006   8.301  13.560  0.00  0.00     0.006 A 
ATOM      6  C6  MOL d          23.050   7.660  12.325  0.00  0.00    -0.038 A 
ATOM      7  N7  MOL d          23.037   9.932  15.040  0.00  0.00    -0.354 N 
ATOM      8  C8  MOL d          22.868   8.793  15.791  0.00  0.00     0.051 A 
ATOM      9  C9  MOL d          22.840   7.734  14.903  0.00  0.00     0.011 A 
ATOM     10  C10 MOL d          22.734   8.545  17.154  0.00  0.00    -0.023 A 
ATOM     11  C12 MOL d          22.571   7.226  17.599  0.00  0.00    -0.011 A 
ATOM     12  C13 MOL d          22.542   6.149  16.686  0.00  0.00     0.036 A 
ATOM     13  C14 MOL d          22.680   6.404  15.306  0.00  0.00    -0.033 A 
ATOM     14  C16 MOL d          22.431   6.967  18.965  0.00  0.00    -0.057 A 
ATOM     15  C17 MOL d          22.268   5.658  19.413  0.00  0.00    -0.020 A 
ATOM     16  N18 MOL d          22.246   4.643  18.532  0.00  0.00    -0.344 N 
ATOM     17  C19 MOL d          22.374   4.849  17.207  0.00  0.00     0.190 A 
ATOM     18  O19 MOL d          22.340   3.757  16.390  0.00  0.00    -0.171 OA
ATOM     19  H2  MOL d          23.476  10.446  10.420  0.00  0.00     0.087 H 
ATOM     20  H3  MOL d          23.392  11.537  12.646  0.00  0.00     0.087 H 
ATOM     21  H4  MOL d          22.956   6.583  12.247  0.00  0.00     0.089 H 
ATOM     22  H5  MOL d          23.092  10.878  15.444  0.00  0.00     0.166 HD
ATOM     23  H12 MOL d          22.449   7.789  19.679  0.00  0.00     0.086 H 
ATOM     24  H13 MOL d          22.159   5.458  20.479  0.00  0.00     0.111 H 
ATOM     25  H14 MOL d          22.131   3.709  18.870  0.00  0.00     0.167 HD
ENDROOT
BRANCH  10  26
ATOM     26  C11 MOL d          22.763   9.705  18.123  0.00  0.00    -0.048 C 
ATOM     27  H6  MOL d          21.733  10.002  18.370  0.00  0.00     0.033 H 
ATOM     28  H7  MOL d          23.288  10.556  17.662  0.00  0.00     0.033 H 
ATOM     29  H8  MOL d          23.289   9.404  19.041  0.00  0.00     0.033 H 
ENDBRANCH  10  26
BRANCH  13  30
ATOM     30  C15 MOL d          22.655   5.297  14.271  0.00  0.00    -0.049 C 
ATOM     31  H9  MOL d          22.496   5.731  13.273  0.00  0.00     0.033 H 
ATOM     32  H10 MOL d          21.838   4.598  14.502  0.00  0.00     0.033 H 
ATOM     33  H11 MOL d          23.614   4.758  14.288  0.00  0.00     0.033 H 
ENDBRANCH  13  30
BRANCH   1  34
ATOM     34  O1  MOL d          23.272   7.875   9.956  0.00  0.00    -0.361 OA
ATOM     35  H1  MOL d          23.738   7.050  10.014  0.00  0.00     0.217 HD
ENDBRANCH   1  34
TORSDOF 3
ENDMDL
MODEL 8
REMARK VINA RESULT:      -7.8      0.973      1.099
REMARK  3 active torsions:
REMARK  status: ('A' for Active; 'I' for Inactive)
REMARK    1  A    between atoms: C1_1  and  O1_2 
REMARK    2  A    between atoms: C10_11  and  C11_12 
REMARK    3  A    between atoms: C14_15  and  C15_16 
ROOT
ATOM      1  C1  MOL d          22.413   5.693  18.875  0.00  0.00     0.066 A 
ATOM      2  C2  MOL d          22.153   4.344  18.613  0.00  0.00    -0.049 A 
ATOM      3  C3  MOL d          22.122   3.861  17.305  0.00  0.00    -0.054 A 
ATOM      4  C4  MOL d          22.355   4.746  16.254  0.00  0.00     0.044 A 
ATOM      5  C5  MOL d          22.611   6.077  16.530  0.00  0.00     0.006 A 
ATOM      6  C6  MOL d          22.648   6.583  17.826  0.00  0.00    -0.038 A 
ATOM      7  N7  MOL d          22.400   4.623  14.888  0.00  0.00    -0.354 N 
ATOM      8  C8  MOL d          22.676   5.813  14.257  0.00  0.00     0.051 A 
ATOM      9  C9  MOL d          22.816   6.764  15.250  0.00  0.00     0.011 A 
ATOM     10  C10 MOL d          22.825   6.188  12.926  0.00  0.00    -0.023 A 
ATOM     11  C12 MOL d          23.112   7.526  12.618  0.00  0.00    -0.011 A 
ATOM     12  C13 MOL d          23.252   8.493  13.637  0.00  0.00     0.036 A 
ATOM     13  C14 MOL d          23.103   8.108  14.986  0.00  0.00    -0.033 A 
ATOM     14  C16 MOL d          23.259   7.914  11.283  0.00  0.00    -0.057 A 
ATOM     15  C17 MOL d          23.544   9.241  10.971  0.00  0.00    -0.020 A 
ATOM     16  N18 MOL d          23.678  10.150  11.953  0.00  0.00    -0.344 N 
ATOM     17  C19 MOL d          23.541   9.819  13.252  0.00  0.00     0.190 A 
ATOM     18  O19 MOL d          23.696  10.808  14.177  0.00  0.00    -0.171 OA
ATOM     19  H2  MOL d          21.973   3.665  19.439  0.00  0.00     0.087 H 
ATOM     20  H3  MOL d          21.920   2.814  17.109  0.00  0.00     0.087 H 
ATOM     21  H4  MOL d          22.853   7.631  18.015  0.00  0.00     0.089 H 
ATOM     22  H5  MOL d          22.244   3.735  14.389  0.00  0.00     0.166 HD
ATOM     23  H12 MOL d          23.150   7.178  10.488  0.00  0.00     0.086 H 
ATOM     24  H13 MOL d          23.658   9.543   9.931  0.00  0.00     0.111 H 
ATOM     25  H14 MOL d          23.885  11.098  11.713  0.00  0.00     0.167 HD
ENDROOT
BRANCH  10  26
ATOM     26  C11 MOL d          22.669   5.146  11.842  0.00  0.00    -0.048 C 
ATOM     27  H6  MOL d          23.659   4.886  11.439  0.00  0.00     0.033 H 
ATOM     28  H7  MOL d          22.039   5.548  11.034  0.00  0.00     0.033 H 
ATOM     29  H8  MOL d          22.196   4.247  12.262  0.00  0.00     0.033 H 
ENDBRANCH  10  26
BRANCH  13  30
ATOM     30  C15 MOL d          23.238   9.093  16.129  0.00  0.00    -0.049 C 
ATOM     31  H9  MOL d          23.064   8.574  17.084  0.00  0.00     0.033 H 
ATOM     32  H10 MOL d          22.497   9.897  16.009  0.00  0.00     0.033 H 
ATOM     33  H11 MOL d          24.250   9.523  16.125  0.00  0.00     0.033 H 
ENDBRANCH  13  30
BRANCH   1  34
ATOM     34  O1  MOL d          22.439   6.139  20.165  0.00  0.00    -0.361 OA
ATOM     35  H1  MOL d          22.630   7.069  20.173  0.00  0.00     0.217 HD
ENDBRANCH   1  34
TORSDOF 3
ENDMDL
MODEL 9
REMARK VINA RESULT:      -7.3      2.701      6.648
REMARK  3 active torsions:
REMARK  status: ('A' for Active; 'I' for Inactive)
REMARK    1  A    between atoms: C1_1  and  O1_2 
REMARK    2  A    between atoms: C10_11  and  C11_12 
REMARK    3  A    between atoms: C14_15  and  C15_16 
ROOT
ATOM      1  C1  MOL d          22.911   5.011  13.172  0.00  0.00     0.066 A 
ATOM      2  C2  MOL d          23.351   6.054  12.351  0.00  0.00    -0.049 A 
ATOM      3  C3  MOL d          23.539   7.339  12.863  0.00  0.00    -0.054 A 
ATOM      4  C4  MOL d          23.281   7.571  14.212  0.00  0.00     0.044 A 
ATOM      5  C5  MOL d          22.847   6.528  15.010  0.00  0.00     0.006 A 
ATOM      6  C6  MOL d          22.653   5.237  14.524  0.00  0.00    -0.038 A 
ATOM      7  N7  MOL d          23.354   8.671  15.028  0.00  0.00    -0.354 N 
ATOM      8  C8  MOL d          22.990   8.396  16.324  0.00  0.00     0.051 A 
ATOM      9  C9  MOL d          22.659   7.055  16.366  0.00  0.00     0.011 A 
ATOM     10  C10 MOL d          22.906   9.157  17.487  0.00  0.00    -0.023 A 
ATOM     11  C12 MOL d          22.485   8.547  18.677  0.00  0.00    -0.011 A 
ATOM     12  C13 MOL d          22.146   7.177  18.713  0.00  0.00     0.036 A 
ATOM     13  C14 MOL d          22.234   6.409  17.533  0.00  0.00    -0.033 A 
ATOM     14  C16 MOL d          22.394   9.305  19.849  0.00  0.00    -0.057 A 
ATOM     15  C17 MOL d          21.975   8.705  21.034  0.00  0.00    -0.020 A 
ATOM     16  N18 MOL d          21.660   7.398  21.053  0.00  0.00    -0.344 N 
ATOM     17  C19 MOL d          21.731   6.633  19.946  0.00  0.00     0.190 A 
ATOM     18  O19 MOL d          21.392   5.317  20.062  0.00  0.00    -0.171 OA
ATOM     19  H2  MOL d          23.548   5.862  11.302  0.00  0.00     0.087 H 
ATOM     20  H3  MOL d          23.879   8.143  12.221  0.00  0.00     0.087 H 
ATOM     21  H4  MOL d          22.314   4.437  15.173  0.00  0.00     0.089 H 
ATOM     22  H5  MOL d          23.650   9.603  14.704  0.00  0.00     0.166 HD
ATOM     23  H12 MOL d          22.649  10.363  19.834  0.00  0.00     0.086 H 
ATOM     24  H13 MOL d          21.904   9.295  21.947  0.00  0.00     0.111 H 
ATOM     25  H14 MOL d          21.364   6.982  21.912  0.00  0.00     0.167 HD
ENDROOT
BRANCH  10  26
ATOM     26  C11 MOL d          23.268  10.624  17.438  0.00  0.00    -0.048 C 
ATOM     27  H6  MOL d          24.185  10.756  16.844  0.00  0.00     0.033 H 
ATOM     28  H7  MOL d          23.436  10.995  18.460  0.00  0.00     0.033 H 
ATOM     29  H8  MOL d          22.446  11.189  16.974  0.00  0.00     0.033 H 
ENDBRANCH  10  26
BRANCH  13  30
ATOM     30  C15 MOL d          21.884   4.935  17.499  0.00  0.00    -0.049 C 
ATOM     31  H9  MOL d          20.805   4.809  17.674  0.00  0.00     0.033 H 
ATOM     32  H10 MOL d          22.447   4.406  18.281  0.00  0.00     0.033 H 
ATOM     33  H11 MOL d          22.146   4.519  16.515  0.00  0.00     0.033 H 
ENDBRANCH  13  30
BRANCH   1  34
ATOM     34  O1  MOL d          22.738   3.763  12.646  0.00  0.00    -0.361 OA
ATOM     35  H1  MOL d          21.816   3.623  12.465  0.00  0.00     0.217 HD
ENDBRANCH   1  34
TORSDOF 3
ENDMDL
MODEL 10
REMARK VINA RESULT:      -6.8      1.969      3.193
REMARK  3 active torsions:
REMARK  status: ('A' for Active; 'I' for Inactive)
REMARK    1  A    between atoms: C1_1  and  O1_2 
REMARK    2  A    between atoms: C10_11  and  C11_12 
REMARK    3  A    between atoms: C14_15  and  C15_16 
ROOT
ATOM      1  C1  MOL d          22.039   5.084  18.057  0.00  0.00     0.066 A 
ATOM      2  C2  MOL d          22.301   6.105  18.976  0.00  0.00    -0.049 A 
ATOM      3  C3  MOL d          22.719   7.366  18.548  0.00  0.00    -0.054 A 
ATOM      4  C4  MOL d          22.873   7.596  17.183  0.00  0.00     0.044 A 
ATOM      5  C5  MOL d          22.610   6.576  16.287  0.00  0.00     0.006 A 
ATOM      6  C6  MOL d          22.190   5.311  16.688  0.00  0.00    -0.038 A 
ATOM      7  N7  MOL d          23.255   8.678  16.430  0.00  0.00    -0.354 N 
ATOM      8  C8  MOL d          23.251   8.413  15.081  0.00  0.00     0.051 A 
ATOM      9  C9  MOL d          22.852   7.097  14.937  0.00  0.00     0.011 A 
ATOM     10  C10 MOL d          23.548   9.164  13.948  0.00  0.00    -0.023 A 
ATOM     11  C12 MOL d          23.439   8.570  12.682  0.00  0.00    -0.011 A 
ATOM     12  C13 MOL d          23.033   7.225  12.542  0.00  0.00     0.036 A 
ATOM     13  C14 MOL d          22.730   6.467  13.693  0.00  0.00    -0.033 A 
ATOM     14  C16 MOL d          23.740   9.316  11.539  0.00  0.00    -0.057 A 
ATOM     15  C17 MOL d          23.634   8.731  10.279  0.00  0.00    -0.020 A 
ATOM     16  N18 MOL d          23.242   7.450  10.162  0.00  0.00    -0.344 N 
ATOM     17  C19 MOL d          22.946   6.696  11.238  0.00  0.00     0.190 A 
ATOM     18  O19 MOL d          22.556   5.407  11.021  0.00  0.00    -0.171 OA
ATOM     19  H2  MOL d          22.178   5.914  20.036  0.00  0.00     0.087 H 
ATOM     20  H3  MOL d          22.920   8.152  19.266  0.00  0.00     0.087 H 
ATOM     21  H4  MOL d          21.989   4.529  15.964  0.00  0.00     0.089 H 
ATOM     22  H5  MOL d          23.516   9.590  16.831  0.00  0.00     0.166 HD
ATOM     23  H12 MOL d          24.058  10.353  11.633  0.00  0.00     0.086 H 
ATOM     24  H13 MOL d          23.869   9.312   9.388  0.00  0.00     0.111 H 
ATOM     25  H14 MOL d          23.169   7.046   9.251  0.00  0.00     0.167 HD
ENDROOT
BRANCH  10  26
ATOM     26  C11 MOL d          23.986  10.602  14.108  0.00  0.00    -0.048 C 
ATOM     27  H6  MOL d          23.216  11.160  14.661  0.00  0.00     0.033 H 
ATOM     28  H7  MOL d          24.126  11.056  13.116  0.00  0.00     0.033 H 
ATOM     29  H8  MOL d          24.935  10.637  14.664  0.00  0.00     0.033 H 
ENDBRANCH  10  26
BRANCH  13  30
ATOM     30  C15 MOL d          22.291   5.019  13.617  0.00  0.00    -0.049 C 
ATOM     31  H9  MOL d          21.859   4.819  12.625  0.00  0.00     0.033 H 
ATOM     32  H10 MOL d          21.535   4.825  14.392  0.00  0.00     0.033 H 
ATOM     33  H11 MOL d          23.159   4.364  13.778  0.00  0.00     0.033 H 
ENDBRANCH  13  30
BRANCH   1  34
ATOM     34  O1  MOL d          21.629   3.861  18.503  0.00  0.00    -0.361 OA
ATOM     35  H1  MOL d          22.311   3.478  19.042  0.00  0.00     0.217 HD
ENDBRANCH   1  34
TORSDOF 3
ENDMDL
