MODEL 1
REMARK VINA RESULT:      -5.4      0.000      0.000
REMARK WARNING: 32 MAX_TORS EXCEEDED!!!
REMARK  36 active torsions:
REMARK  status: ('A' for Active; 'I' for Inactive)
REMARK    1  A    between atoms: C6_6  and  N6_7 
REMARK    2  A    between atoms: CCN_19  and  N9_10 
REMARK    3  A    between atoms: CCK_16  and  OAN_12 
REMARK    4  A    between atoms: CCL_17  and  OAO_13 
REMARK    5  A    between atoms: CCC_15  and  CCM_18 
REMARK       I    between atoms: NBR_27  and  CCC_15 
REMARK    6  A    between atoms: CBZ_20  and  CBG_22 
REMARK       I    between atoms: NBS_28  and  CBZ_20 
REMARK    7  A    between atoms: CBG_22  and  CAX_23 
REMARK    8  A    between atoms: CAX_23  and  CAU_24 
REMARK    9  A    between atoms: CAU_24  and  CAW_25 
REMARK   10  A    between atoms: CAW_25  and  CBD_26 
REMARK   11  A    between atoms: CBD_26  and  NBR_27 
REMARK   12  A    between atoms: CCI_29  and  NBS_28 
REMARK   13  A    between atoms: CCB_30  and  CCI_29 
REMARK   14  A    between atoms: CCI_29  and  CBJ_32 
REMARK       I    between atoms: NBQ_44  and  CCB_30 
REMARK   15  A    between atoms: CBJ_32  and  CAZ_33 
REMARK   16  A    between atoms: CAZ_33  and  CAS_34 
REMARK   17  A    between atoms: CAS_34  and  CAR_35 
REMARK   18  A    between atoms: CAR_35  and  NAC_36 
REMARK   19  A    between atoms: CBH_39  and  CCA_37 
REMARK       I    between atoms: CCA_37  and  NBT_45 
REMARK   20  A    between atoms: CAY_40  and  CBH_39 
REMARK   21  A    between atoms: CAT_41  and  CAY_40 
REMARK   22  A    between atoms: CAV_42  and  CAT_41 
REMARK   23  A    between atoms: CBC_43  and  CAV_42 
REMARK   24  A    between atoms: CBC_43  and  NBQ_44 
REMARK   25  A    between atoms: NBT_45  and  CCJ_46 
REMARK   26  A    between atoms: CCJ_46  and  CBK_47 
REMARK   27  A    between atoms: CCJ_46  and  CCD_54 
REMARK   28  A    between atoms: CBK_47  and  CBB_48 
REMARK   29  A    between atoms: CBB_48  and  CBF_49 
REMARK   30  A    between atoms: CBF_49  and  NBP_50 
REMARK       I    between atoms: NBP_50  and  CBX_51 
REMARK       I    between atoms: CBX_51  and  NAB_52 
REMARK       I    between atoms: CBX_51  and  NAE_53 
REMARK       I    between atoms: CCD_54  and  N_56 
REMARK   31  A    between atoms: N_56  and  CA_57 
REMARK   32  A    between atoms: CA_57  and  CB_58 
REMARK   33  A    between atoms: CA_57  and  C_65 
REMARK   34  A    between atoms: CB_58  and  CG_59 
REMARK   35  A    between atoms: CG_59  and  CD_60 
REMARK   36  A    between atoms: CD_60  and  NE_61 
REMARK       I    between atoms: NE_61  and  CZ_62 
REMARK       I    between atoms: CZ_62  and  NH1_63 
REMARK       I    between atoms: C_65  and  NAF_67 
ROOT
ATOM      1  CCB A02 d          11.471   5.256   9.950  0.00  0.00     0.240 C 
ATOM      2  OAK A02 d          10.320   5.637   9.777  0.00  0.00    -0.271 OA
ATOM      3  NBQ A02 d          11.971   4.144   9.413  0.00  0.00    -0.359 N 
ATOM      4  H45 A02 d          12.919   3.897   9.612  0.00  0.00     0.162 HD
ENDROOT
BRANCH   1   5
ATOM      5  CCI A02 d          12.435   6.053  10.862  0.00  0.00     0.089 C 
ATOM      6  H23 A02 d          11.860   6.892  11.280  0.00  0.00     0.087 H 
BRANCH   5   7
ATOM      7  NBS A02 d          13.547   6.635  10.067  0.00  0.00    -0.348 N 
ATOM      8  CBZ A02 d          14.065   7.840  10.351  0.00  0.00     0.218 C 
ATOM      9  OAI A02 d          13.647   8.584  11.246  0.00  0.00    -0.274 OA
ATOM     10  H22 A02 d          13.920   6.114   9.299  0.00  0.00     0.163 HD
BRANCH   8  11
ATOM     11  CBG A02 d          15.219   8.289   9.431  0.00  0.00     0.009 C 
ATOM     12  H11 A02 d          16.146   7.794   9.755  0.00  0.00     0.047 H 
ATOM     13  H12 A02 d          15.338   9.379   9.514  0.00  0.00     0.047 H 
BRANCH  11  14
ATOM     14  CAX A02 d          14.952   7.928   7.956  0.00  0.00    -0.057 C 
ATOM     15  H13 A02 d          14.271   7.064   7.916  0.00  0.00     0.033 H 
ATOM     16  H14 A02 d          15.905   7.667   7.472  0.00  0.00     0.033 H 
BRANCH  14  17
ATOM     17  CAU A02 d          14.314   9.101   7.204  0.00  0.00    -0.063 C 
ATOM     18  H15 A02 d          13.243   9.138   7.453  0.00  0.00     0.033 H 
ATOM     19  H16 A02 d          14.434   8.932   6.123  0.00  0.00     0.033 H 
BRANCH  17  20
ATOM     20  CAW A02 d          14.946  10.450   7.560  0.00  0.00    -0.050 C 
ATOM     21  H17 A02 d          15.932  10.294   8.021  0.00  0.00     0.035 H 
ATOM     22  H18 A02 d          14.296  10.996   8.261  0.00  0.00     0.035 H 
BRANCH  20  23
ATOM     23  CBD A02 d          15.097  11.245   6.261  0.00  0.00    -0.005 C 
ATOM     24  H19 A02 d          15.573  10.601   5.507  0.00  0.00     0.064 H 
ATOM     25  H20 A02 d          15.737  12.118   6.455  0.00  0.00     0.064 H 
BRANCH  23  26
ATOM     26  NBR A02 d          13.805  11.716   5.730  0.00  0.00    -0.359 N 
ATOM     27  CCC A02 d          13.498  12.997   5.521  0.00  0.00     0.249 C 
ATOM     28  OAL A02 d          14.235  13.951   5.811  0.00  0.00    -0.271 OA
ATOM     29  H21 A02 d          13.112  11.029   5.512  0.00  0.00     0.162 HD
BRANCH  27  30
ATOM     30  CCM A02 d          12.129  13.275   4.873  0.00  0.00     0.144 C 
ATOM     31  OBV A02 d          11.391  12.032   4.623  0.00  0.00    -0.346 OA
ATOM     32  CCN A02 d          10.342  11.890   5.625  0.00  0.00     0.140 C 
ATOM     33  CCL A02 d          10.647  12.971   6.681  0.00  0.00     0.105 C 
ATOM     34  H10 A02 d           9.364  12.093   5.167  0.00  0.00     0.123 H 
ATOM     35  CCK A02 d          11.262  14.078   5.843  0.00  0.00     0.098 C 
ATOM     36  H8  A02 d          11.340  12.605   7.453  0.00  0.00     0.093 H 
ATOM     37  H7  A02 d          11.847  14.787   6.447  0.00  0.00     0.091 H 
ATOM     38  H9  A02 d          12.273  13.828   3.933  0.00  0.00     0.102 H 
BRANCH  32  39
ATOM     39  N9  A02 d          10.309  10.482   6.209  0.00  0.00    -0.294 N 
ATOM     40  C4  A02 d           9.870   9.390   5.592  0.00  0.00     0.167 A 
ATOM     41  N3  A02 d           9.350   9.172   4.373  0.00  0.00    -0.222 NA
ATOM     42  C5  A02 d          10.006   8.331   6.479  0.00  0.00     0.149 A 
ATOM     43  C2  A02 d           8.983   7.951   4.008  0.00  0.00     0.091 A 
ATOM     44  N1  A02 d           9.111   6.908   4.840  0.00  0.00    -0.222 NA
ATOM     45  H1  A02 d           8.570   7.793   3.017  0.00  0.00     0.146 H 
ATOM     46  C6  A02 d           9.611   7.066   6.076  0.00  0.00     0.155 A 
ATOM     47  N7  A02 d          10.530   8.798   7.611  0.00  0.00    -0.236 NA
ATOM     48  C8  A02 d          10.722  10.109   7.431  0.00  0.00     0.071 A 
ATOM     49  H4  A02 d          11.153  10.781   8.172  0.00  0.00     0.144 H 
BRANCH  46  50
ATOM     50  N6  A02 d           9.726   6.035   6.907  0.00  0.00    -0.382 N 
ATOM     51  H2  A02 d           9.486   6.147   7.902  0.00  0.00     0.157 HD
ATOM     52  H3  A02 d          10.057   5.125   6.555  0.00  0.00     0.157 HD
ENDBRANCH  46  50
ENDBRANCH  32  39
BRANCH  33  53
ATOM     53  OAO A02 d           9.444  13.435   7.276  0.00  0.00    -0.388 OA
ATOM     54  H6  A02 d           9.201  12.856   7.989  0.00  0.00     0.210 HD
ENDBRANCH  33  53
BRANCH  35  55
ATOM     55  OAN A02 d          10.230  14.760   5.104  0.00  0.00    -0.390 OA
ATOM     56  H5  A02 d          10.570  15.019   4.255  0.00  0.00     0.210 HD
ENDBRANCH  35  55
ENDBRANCH  27  30
ENDBRANCH  23  26
ENDBRANCH  20  23
ENDBRANCH  17  20
ENDBRANCH  14  17
ENDBRANCH  11  14
ENDBRANCH   8  11
ENDBRANCH   5   7
BRANCH   5  57
ATOM     57  CBJ A02 d          12.957   5.228  12.060  0.00  0.00    -0.038 C 
ATOM     58  H24 A02 d          13.484   5.914  12.740  0.00  0.00     0.036 H 
ATOM     59  H25 A02 d          13.664   4.480  11.674  0.00  0.00     0.036 H 
BRANCH  57  60
ATOM     60  CAZ A02 d          11.882   4.493  12.867  0.00  0.00    -0.061 C 
ATOM     61  H26 A02 d          12.362   3.740  13.510  0.00  0.00     0.033 H 
ATOM     62  H27 A02 d          11.187   3.995  12.176  0.00  0.00     0.033 H 
BRANCH  60  63
ATOM     63  CAS A02 d          11.101   5.491  13.747  0.00  0.00    -0.043 C 
ATOM     64  H28 A02 d          10.594   6.221  13.098  0.00  0.00     0.035 H 
ATOM     65  H29 A02 d          11.806   6.015  14.409  0.00  0.00     0.035 H 
BRANCH  63  66
ATOM     66  CAR A02 d          10.050   4.769  14.605  0.00  0.00     0.080 C 
ATOM     67  H30 A02 d          10.513   4.443  15.548  0.00  0.00     0.075 H 
ATOM     68  H31 A02 d           9.673   3.892  14.058  0.00  0.00     0.075 H 
BRANCH  66  69
ATOM     69  NAC A02 d           8.929   5.680  14.900  0.00  0.00    -0.079 N 
ATOM     70  H32 A02 d           9.289   6.548  15.267  0.00  0.00     0.274 HD
ATOM     71  H33 A02 d           8.321   5.253  15.582  0.00  0.00     0.274 HD
ATOM     72  H34 A02 d           8.411   5.860  14.054  0.00  0.00     0.274 HD
ENDBRANCH  66  69
ENDBRANCH  63  66
ENDBRANCH  60  63
ENDBRANCH  57  60
ENDBRANCH   5  57
ENDBRANCH   1   5
BRANCH   3  73
ATOM     73  CBC A02 d          11.174   3.259   8.531  0.00  0.00    -0.005 C 
ATOM     74  H43 A02 d          10.747   2.442   9.131  0.00  0.00     0.064 H 
ATOM     75  H44 A02 d          10.362   3.842   8.073  0.00  0.00     0.064 H 
BRANCH  73  76
ATOM     76  CAV A02 d          12.056   2.667   7.426  0.00  0.00    -0.050 C 
ATOM     77  H41 A02 d          11.422   2.376   6.575  0.00  0.00     0.035 H 
ATOM     78  H42 A02 d          12.783   3.424   7.099  0.00  0.00     0.035 H 
BRANCH  76  79
ATOM     79  CAT A02 d          12.807   1.433   7.941  0.00  0.00    -0.063 C 
ATOM     80  H39 A02 d          12.513   1.248   8.984  0.00  0.00     0.033 H 
ATOM     81  H40 A02 d          12.532   0.565   7.322  0.00  0.00     0.033 H 
BRANCH  79  82
ATOM     82  CAY A02 d          14.326   1.623   7.880  0.00  0.00    -0.057 C 
ATOM     83  H37 A02 d          14.543   2.665   7.600  0.00  0.00     0.033 H 
ATOM     84  H38 A02 d          14.751   1.413   8.872  0.00  0.00     0.033 H 
BRANCH  82  85
ATOM     85  CBH A02 d          14.976   0.685   6.849  0.00  0.00     0.009 C 
ATOM     86  H35 A02 d          15.595  -0.053   7.380  0.00  0.00     0.047 H 
ATOM     87  H36 A02 d          14.184   0.165   6.291  0.00  0.00     0.047 H 
BRANCH  85  88
ATOM     88  CCA A02 d          15.863   1.456   5.857  0.00  0.00     0.218 C 
ATOM     89  OAJ A02 d          16.150   0.973   4.758  0.00  0.00    -0.274 OA
ATOM     90  NBT A02 d          16.268   2.659   6.281  0.00  0.00    -0.348 N 
ATOM     91  H46 A02 d          15.975   2.970   7.185  0.00  0.00     0.163 HD
BRANCH  90  92
ATOM     92  CCJ A02 d          17.133   3.555   5.473  0.00  0.00     0.089 C 
ATOM     93  H47 A02 d          17.889   2.934   4.973  0.00  0.00     0.087 H 
BRANCH  92  94
ATOM     94  CBK A02 d          17.878   4.580   6.369  0.00  0.00    -0.036 C 
ATOM     95  H48 A02 d          17.327   4.673   7.317  0.00  0.00     0.036 H 
ATOM     96  H49 A02 d          17.882   5.550   5.851  0.00  0.00     0.036 H 
BRANCH  94  97
ATOM     97  CBB A02 d          19.333   4.203   6.695  0.00  0.00    -0.048 C 
ATOM     98  H50 A02 d          19.966   5.093   6.567  0.00  0.00     0.035 H 
ATOM     99  H51 A02 d          19.659   3.418   5.996  0.00  0.00     0.035 H 
BRANCH  97 100
ATOM    100  CBF A02 d          19.493   3.684   8.133  0.00  0.00     0.009 C 
ATOM    101  H52 A02 d          19.261   4.488   8.846  0.00  0.00     0.064 H 
ATOM    102  H53 A02 d          20.526   3.340   8.291  0.00  0.00     0.064 H 
BRANCH 100 103
ATOM    103  NBP A02 d          18.557   2.560   8.326  0.00  0.00    -0.227 N 
ATOM    104  CBX A02 d          18.677   1.641   9.293  0.00  0.00     0.665 C 
ATOM    105  NAB A02 d          19.662   1.672  10.189  0.00  0.00    -0.235 N 
ATOM    106  NAE A02 d          17.770   0.670   9.362  0.00  0.00    -0.235 N 
ATOM    107  H55 A02 d          19.720   0.946  10.918  0.00  0.00     0.174 HD
ATOM    108  H56 A02 d          20.367   2.422  10.153  0.00  0.00     0.174 HD
ATOM    109  H57 A02 d          17.003   0.633   8.676  0.00  0.00     0.174 HD
ATOM    110  H58 A02 d          17.835  -0.044  10.101  0.00  0.00     0.174 HD
ATOM    111  H54 A02 d          17.762   2.477   7.677  0.00  0.00     0.177 HD
ENDBRANCH 100 103
ENDBRANCH  97 100
ENDBRANCH  94  97
ENDBRANCH  92  94
BRANCH  92 112
ATOM    112  CCD A02 d          16.302   4.268   4.379  0.00  0.00     0.241 C 
ATOM    113  OAM A02 d          16.440   3.981   3.190  0.00  0.00    -0.271 OA
ATOM    114  N   A02 d          15.452   5.197   4.822  0.00  0.00    -0.346 N 
ATOM    115  H59 A02 d          15.405   5.367   5.807  0.00  0.00     0.163 HD
BRANCH 114 116
ATOM    116  CA  A02 d          14.574   5.990   3.932  0.00  0.00     0.089 C 
ATOM    117  H60 A02 d          14.263   5.353   3.091  0.00  0.00     0.087 H 
BRANCH 116 118
ATOM    118  CB  A02 d          15.348   7.193   3.381  0.00  0.00    -0.036 C 
ATOM    119  H61 A02 d          14.632   7.931   2.990  0.00  0.00     0.036 H 
ATOM    120  H62 A02 d          16.006   6.854   2.567  0.00  0.00     0.036 H 
BRANCH 118 121
ATOM    121  CG  A02 d          16.201   7.855   4.466  0.00  0.00    -0.048 C 
ATOM    122  H63 A02 d          16.009   7.354   5.427  0.00  0.00     0.035 H 
ATOM    123  H64 A02 d          15.923   8.916   4.544  0.00  0.00     0.035 H 
BRANCH 121 124
ATOM    124  CD  A02 d          17.688   7.753   4.141  0.00  0.00     0.009 C 
ATOM    125  H65 A02 d          18.145   6.941   4.726  0.00  0.00     0.064 H 
ATOM    126  H66 A02 d          18.190   8.703   4.376  0.00  0.00     0.064 H 
BRANCH 124 127
ATOM    127  NE  A02 d          17.805   7.467   2.715  0.00  0.00    -0.227 N 
ATOM    128  CZ  A02 d          18.589   8.125   1.862  0.00  0.00     0.665 C 
ATOM    129  NH1 A02 d          19.399   9.115   2.238  0.00  0.00    -0.235 N 
ATOM    130  NH2 A02 d          18.554   7.739   0.594  0.00  0.00    -0.235 N 
ATOM    131  H68 A02 d          19.986   9.593   1.539  0.00  0.00     0.174 HD
ATOM    132  H69 A02 d          19.438   9.402   3.226  0.00  0.00     0.174 HD
ATOM    133  H70 A02 d          17.927   6.974   0.306  0.00  0.00     0.174 HD
ATOM    134  H71 A02 d          19.153   8.205  -0.103  0.00  0.00     0.174 HD
ATOM    135  H67 A02 d          17.238   6.694   2.337  0.00  0.00     0.177 HD
ENDBRANCH 124 127
ENDBRANCH 121 124
ENDBRANCH 118 121
ENDBRANCH 116 118
BRANCH 116 136
ATOM    136  C   A02 d          13.306   6.475   4.672  0.00  0.00     0.238 C 
ATOM    137  O   A02 d          12.743   7.529   4.372  0.00  0.00    -0.271 OA
ATOM    138  NAF A02 d          12.871   5.657   5.629  0.00  0.00    -0.368 N 
ATOM    139  H72 A02 d          12.057   5.894   6.158  0.00  0.00     0.159 HD
ATOM    140  H73 A02 d          13.360   4.805   5.818  0.00  0.00     0.159 HD
ENDBRANCH 116 136
ENDBRANCH 114 116
ENDBRANCH  92 112
ENDBRANCH  90  92
ENDBRANCH  85  88
ENDBRANCH  82  85
ENDBRANCH  79  82
ENDBRANCH  76  79
ENDBRANCH  73  76
ENDBRANCH   3  73
TORSDOF 36
ENDMDL
MODEL 2
REMARK VINA RESULT:      -4.7      2.305      6.967
REMARK WARNING: 32 MAX_TORS EXCEEDED!!!
REMARK  36 active torsions:
REMARK  status: ('A' for Active; 'I' for Inactive)
REMARK    1  A    between atoms: C6_6  and  N6_7 
REMARK    2  A    between atoms: CCN_19  and  N9_10 
REMARK    3  A    between atoms: CCK_16  and  OAN_12 
REMARK    4  A    between atoms: CCL_17  and  OAO_13 
REMARK    5  A    between atoms: CCC_15  and  CCM_18 
REMARK       I    between atoms: NBR_27  and  CCC_15 
REMARK    6  A    between atoms: CBZ_20  and  CBG_22 
REMARK       I    between atoms: NBS_28  and  CBZ_20 
REMARK    7  A    between atoms: CBG_22  and  CAX_23 
REMARK    8  A    between atoms: CAX_23  and  CAU_24 
REMARK    9  A    between atoms: CAU_24  and  CAW_25 
REMARK   10  A    between atoms: CAW_25  and  CBD_26 
REMARK   11  A    between atoms: CBD_26  and  NBR_27 
REMARK   12  A    between atoms: CCI_29  and  NBS_28 
REMARK   13  A    between atoms: CCB_30  and  CCI_29 
REMARK   14  A    between atoms: CCI_29  and  CBJ_32 
REMARK       I    between atoms: NBQ_44  and  CCB_30 
REMARK   15  A    between atoms: CBJ_32  and  CAZ_33 
REMARK   16  A    between atoms: CAZ_33  and  CAS_34 
REMARK   17  A    between atoms: CAS_34  and  CAR_35 
REMARK   18  A    between atoms: CAR_35  and  NAC_36 
REMARK   19  A    between atoms: CBH_39  and  CCA_37 
REMARK       I    between atoms: CCA_37  and  NBT_45 
REMARK   20  A    between atoms: CAY_40  and  CBH_39 
REMARK   21  A    between atoms: CAT_41  and  CAY_40 
REMARK   22  A    between atoms: CAV_42  and  CAT_41 
REMARK   23  A    between atoms: CBC_43  and  CAV_42 
REMARK   24  A    between atoms: CBC_43  and  NBQ_44 
REMARK   25  A    between atoms: NBT_45  and  CCJ_46 
REMARK   26  A    between atoms: CCJ_46  and  CBK_47 
REMARK   27  A    between atoms: CCJ_46  and  CCD_54 
REMARK   28  A    between atoms: CBK_47  and  CBB_48 
REMARK   29  A    between atoms: CBB_48  and  CBF_49 
REMARK   30  A    between atoms: CBF_49  and  NBP_50 
REMARK       I    between atoms: NBP_50  and  CBX_51 
REMARK       I    between atoms: CBX_51  and  NAB_52 
REMARK       I    between atoms: CBX_51  and  NAE_53 
REMARK       I    between atoms: CCD_54  and  N_56 
REMARK   31  A    between atoms: N_56  and  CA_57 
REMARK   32  A    between atoms: CA_57  and  CB_58 
REMARK   33  A    between atoms: CA_57  and  C_65 
REMARK   34  A    between atoms: CB_58  and  CG_59 
REMARK   35  A    between atoms: CG_59  and  CD_60 
REMARK   36  A    between atoms: CD_60  and  NE_61 
REMARK       I    between atoms: NE_61  and  CZ_62 
REMARK       I    between atoms: CZ_62  and  NH1_63 
REMARK       I    between atoms: C_65  and  NAF_67 
ROOT
ATOM      1  CCB A02 d          17.762   4.786   7.941  0.00  0.00     0.240 C 
ATOM      2  OAK A02 d          16.630   5.254   7.962  0.00  0.00    -0.271 OA
ATOM      3  NBQ A02 d          18.061   3.553   8.345  0.00  0.00    -0.359 N 
ATOM      4  H45 A02 d          19.014   3.250   8.305  0.00  0.00     0.162 HD
ENDROOT
BRANCH   1   5
ATOM      5  CCI A02 d          18.957   5.643   7.459  0.00  0.00     0.089 C 
ATOM      6  H23 A02 d          19.273   6.262   8.311  0.00  0.00     0.087 H 
BRANCH   5   7
ATOM      7  NBS A02 d          18.536   6.568   6.375  0.00  0.00    -0.348 N 
ATOM      8  CBZ A02 d          18.359   7.881   6.594  0.00  0.00     0.218 C 
ATOM      9  OAI A02 d          18.481   8.425   7.698  0.00  0.00    -0.274 OA
ATOM     10  H22 A02 d          18.378   6.203   5.458  0.00  0.00     0.163 HD
BRANCH   8  11
ATOM     11  CBG A02 d          17.928   8.697   5.358  0.00  0.00     0.009 C 
ATOM     12  H11 A02 d          17.561   8.007   4.586  0.00  0.00     0.047 H 
ATOM     13  H12 A02 d          18.800   9.248   4.974  0.00  0.00     0.047 H 
BRANCH  11  14
ATOM     14  CAX A02 d          16.813   9.706   5.697  0.00  0.00    -0.057 C 
ATOM     15  H13 A02 d          17.107  10.281   6.587  0.00  0.00     0.033 H 
ATOM     16  H14 A02 d          15.883   9.155   5.907  0.00  0.00     0.033 H 
BRANCH  14  17
ATOM     17  CAU A02 d          16.567  10.674   4.534  0.00  0.00    -0.063 C 
ATOM     18  H15 A02 d          15.861  10.207   3.831  0.00  0.00     0.033 H 
ATOM     19  H16 A02 d          17.524  10.860   4.024  0.00  0.00     0.033 H 
BRANCH  17  20
ATOM     20  CAW A02 d          15.988  12.016   4.990  0.00  0.00    -0.050 C 
ATOM     21  H17 A02 d          16.758  12.600   5.515  0.00  0.00     0.035 H 
ATOM     22  H18 A02 d          15.134  11.848   5.663  0.00  0.00     0.035 H 
BRANCH  20  23
ATOM     23  CBD A02 d          15.526  12.767   3.738  0.00  0.00    -0.005 C 
ATOM     24  H19 A02 d          15.599  12.089   2.875  0.00  0.00     0.064 H 
ATOM     25  H20 A02 d          16.187  13.631   3.583  0.00  0.00     0.064 H 
BRANCH  23  26
ATOM     26  NBR A02 d          14.137  13.248   3.845  0.00  0.00    -0.359 N 
ATOM     27  CCC A02 d          13.060  12.471   3.728  0.00  0.00     0.249 C 
ATOM     28  OAL A02 d          13.092  11.264   3.449  0.00  0.00    -0.271 OA
ATOM     29  H21 A02 d          13.994  14.223   4.016  0.00  0.00     0.162 HD
BRANCH  27  30
ATOM     30  CCM A02 d          11.698  13.152   3.964  0.00  0.00     0.144 C 
ATOM     31  OBV A02 d          10.624  12.164   4.120  0.00  0.00    -0.346 OA
ATOM     32  CCN A02 d          10.270  12.066   5.530  0.00  0.00     0.140 C 
ATOM     33  CCL A02 d          11.373  12.839   6.277  0.00  0.00     0.105 C 
ATOM     34  H10 A02 d           9.300  12.555   5.703  0.00  0.00     0.123 H 
ATOM     35  CCK A02 d          11.738  13.926   5.282  0.00  0.00     0.098 C 
ATOM     36  H8  A02 d          12.233  12.196   6.518  0.00  0.00     0.093 H 
ATOM     37  H7  A02 d          12.724  14.368   5.483  0.00  0.00     0.091 H 
ATOM     38  H9  A02 d          11.475  13.827   3.124  0.00  0.00     0.102 H 
BRANCH  32  39
ATOM     39  N9  A02 d          10.153  10.613   5.980  0.00  0.00    -0.294 N 
ATOM     40  C4  A02 d          10.033   9.555   5.185  0.00  0.00     0.167 A 
ATOM     41  N3  A02 d           9.970   9.413   3.852  0.00  0.00    -0.222 NA
ATOM     42  C5  A02 d           9.947   8.434   5.999  0.00  0.00     0.149 A 
ATOM     43  C2  A02 d           9.844   8.209   3.309  0.00  0.00     0.091 A 
ATOM     44  N1  A02 d           9.767   7.109   4.070  0.00  0.00    -0.222 NA
ATOM     45  H1  A02 d           9.800   8.113   2.230  0.00  0.00     0.146 H 
ATOM     46  C6  A02 d           9.810   7.188   5.410  0.00  0.00     0.155 A 
ATOM     47  N7  A02 d          10.024   8.831   7.268  0.00  0.00    -0.236 NA
ATOM     48  C8  A02 d          10.162  10.161   7.245  0.00  0.00     0.071 A 
ATOM     49  H4  A02 d          10.266  10.790   8.128  0.00  0.00     0.144 H 
BRANCH  46  50
ATOM     50  N6  A02 d           9.722   6.099   6.165  0.00  0.00    -0.382 N 
ATOM     51  H2  A02 d           9.713   6.184   7.192  0.00  0.00     0.157 HD
ATOM     52  H3  A02 d           9.662   5.170   5.725  0.00  0.00     0.157 HD
ENDBRANCH  46  50
ENDBRANCH  32  39
BRANCH  33  53
ATOM     53  OAO A02 d          10.851  13.430   7.458  0.00  0.00    -0.388 OA
ATOM     54  H6  A02 d           9.960  13.719   7.299  0.00  0.00     0.210 HD
ENDBRANCH  33  53
BRANCH  35  55
ATOM     55  OAN A02 d          10.713  14.938   5.268  0.00  0.00    -0.390 OA
ATOM     56  H5  A02 d          11.108  15.789   5.421  0.00  0.00     0.210 HD
ENDBRANCH  35  55
ENDBRANCH  27  30
ENDBRANCH  23  26
ENDBRANCH  20  23
ENDBRANCH  17  20
ENDBRANCH  14  17
ENDBRANCH  11  14
ENDBRANCH   8  11
ENDBRANCH   5   7
BRANCH   5  57
ATOM     57  CBJ A02 d          20.182   4.797   7.045  0.00  0.00    -0.038 C 
ATOM     58  H24 A02 d          20.118   3.830   7.565  0.00  0.00     0.036 H 
ATOM     59  H25 A02 d          21.088   5.329   7.370  0.00  0.00     0.036 H 
BRANCH  57  60
ATOM     60  CAZ A02 d          20.310   4.519   5.543  0.00  0.00    -0.061 C 
ATOM     61  H26 A02 d          19.421   4.909   5.025  0.00  0.00     0.033 H 
ATOM     62  H27 A02 d          20.383   3.434   5.380  0.00  0.00     0.033 H 
BRANCH  60  63
ATOM     63  CAS A02 d          21.571   5.206   4.979  0.00  0.00    -0.043 C 
ATOM     64  H28 A02 d          22.297   5.349   5.794  0.00  0.00     0.035 H 
ATOM     65  H29 A02 d          21.291   6.184   4.561  0.00  0.00     0.035 H 
BRANCH  63  66
ATOM     66  CAR A02 d          22.219   4.356   3.875  0.00  0.00     0.080 C 
ATOM     67  H30 A02 d          23.020   3.741   4.311  0.00  0.00     0.075 H 
ATOM     68  H31 A02 d          22.642   5.020   3.106  0.00  0.00     0.075 H 
BRANCH  66  69
ATOM     69  NAC A02 d          21.209   3.477   3.258  0.00  0.00    -0.079 N 
ATOM     70  H32 A02 d          21.617   2.997   2.472  0.00  0.00     0.274 HD
ATOM     71  H33 A02 d          20.427   4.032   2.945  0.00  0.00     0.274 HD
ATOM     72  H34 A02 d          20.892   2.802   3.937  0.00  0.00     0.274 HD
ENDBRANCH  66  69
ENDBRANCH  63  66
ENDBRANCH  60  63
ENDBRANCH  57  60
ENDBRANCH   5  57
ENDBRANCH   1   5
BRANCH   3  73
ATOM     73  CBC A02 d          17.036   2.612   8.851  0.00  0.00    -0.005 C 
ATOM     74  H43 A02 d          17.357   2.217   9.826  0.00  0.00     0.064 H 
ATOM     75  H44 A02 d          16.081   3.145   8.969  0.00  0.00     0.064 H 
BRANCH  73  76
ATOM     76  CAV A02 d          16.844   1.447   7.874  0.00  0.00    -0.050 C 
ATOM     77  H41 A02 d          17.816   1.184   7.430  0.00  0.00     0.035 H 
ATOM     78  H42 A02 d          16.444   0.580   8.419  0.00  0.00     0.035 H 
BRANCH  76  79
ATOM     79  CAT A02 d          15.868   1.837   6.757  0.00  0.00    -0.063 C 
ATOM     80  H39 A02 d          14.975   1.199   6.827  0.00  0.00     0.033 H 
ATOM     81  H40 A02 d          15.578   2.890   6.890  0.00  0.00     0.033 H 
BRANCH  79  82
ATOM     82  CAY A02 d          16.492   1.665   5.368  0.00  0.00    -0.057 C 
ATOM     83  H37 A02 d          17.246   0.865   5.413  0.00  0.00     0.033 H 
ATOM     84  H38 A02 d          15.702   1.386   4.656  0.00  0.00     0.033 H 
BRANCH  82  85
ATOM     85  CBH A02 d          17.167   2.959   4.884  0.00  0.00     0.009 C 
ATOM     86  H35 A02 d          17.744   3.392   5.713  0.00  0.00     0.047 H 
ATOM     87  H36 A02 d          17.845   2.717   4.052  0.00  0.00     0.047 H 
BRANCH  85  88
ATOM     88  CCA A02 d          16.135   3.993   4.402  0.00  0.00     0.218 C 
ATOM     89  OAJ A02 d          15.992   4.230   3.198  0.00  0.00    -0.274 OA
ATOM     90  NBT A02 d          15.428   4.580   5.375  0.00  0.00    -0.348 N 
ATOM     91  H46 A02 d          15.608   4.314   6.322  0.00  0.00     0.163 HD
BRANCH  90  92
ATOM     92  CCJ A02 d          14.388   5.607   5.116  0.00  0.00     0.089 C 
ATOM     93  H47 A02 d          13.766   5.255   4.280  0.00  0.00     0.087 H 
BRANCH  92  94
ATOM     94  CBK A02 d          15.023   6.960   4.698  0.00  0.00    -0.036 C 
ATOM     95  H48 A02 d          16.073   6.779   4.428  0.00  0.00     0.036 H 
ATOM     96  H49 A02 d          14.978   7.641   5.560  0.00  0.00     0.036 H 
BRANCH  94  97
ATOM     97  CBB A02 d          14.332   7.647   3.507  0.00  0.00    -0.048 C 
ATOM     98  H50 A02 d          14.016   8.655   3.815  0.00  0.00     0.035 H 
ATOM     99  H51 A02 d          13.448   7.057   3.223  0.00  0.00     0.035 H 
BRANCH  97 100
ATOM    100  CBF A02 d          15.259   7.770   2.288  0.00  0.00     0.009 C 
ATOM    101  H52 A02 d          16.009   6.966   2.308  0.00  0.00     0.064 H 
ATOM    102  H53 A02 d          15.767   8.746   2.304  0.00  0.00     0.064 H 
BRANCH 100 103
ATOM    103  NBP A02 d          14.437   7.656   1.068  0.00  0.00    -0.227 N 
ATOM    104  CBX A02 d          14.254   6.514   0.390  0.00  0.00     0.665 C 
ATOM    105  NAB A02 d          14.797   5.361   0.776  0.00  0.00    -0.235 N 
ATOM    106  NAE A02 d          13.493   6.540  -0.700  0.00  0.00    -0.235 N 
ATOM    107  H55 A02 d          14.632   4.504   0.227  0.00  0.00     0.174 HD
ATOM    108  H56 A02 d          15.382   5.325   1.623  0.00  0.00     0.174 HD
ATOM    109  H57 A02 d          13.066   7.425  -1.010  0.00  0.00     0.174 HD
ATOM    110  H58 A02 d          13.330   5.674  -1.235  0.00  0.00     0.174 HD
ATOM    111  H54 A02 d          13.975   8.506   0.716  0.00  0.00     0.177 HD
ENDBRANCH 100 103
ENDBRANCH  97 100
ENDBRANCH  94  97
ENDBRANCH  92  94
BRANCH  92 112
ATOM    112  CCD A02 d          13.474   5.776   6.353  0.00  0.00     0.241 C 
ATOM    113  OAM A02 d          12.807   6.799   6.513  0.00  0.00    -0.271 OA
ATOM    114  N   A02 d          13.474   4.752   7.209  0.00  0.00    -0.346 N 
ATOM    115  H59 A02 d          14.049   3.959   7.000  0.00  0.00     0.163 HD
BRANCH 114 116
ATOM    116  CA  A02 d          12.669   4.726   8.451  0.00  0.00     0.089 C 
ATOM    117  H60 A02 d          12.307   5.745   8.652  0.00  0.00     0.087 H 
BRANCH 116 118
ATOM    118  CB  A02 d          13.545   4.272   9.625  0.00  0.00    -0.036 C 
ATOM    119  H61 A02 d          14.548   4.023   9.248  0.00  0.00     0.036 H 
ATOM    120  H62 A02 d          13.094   3.379  10.083  0.00  0.00     0.036 H 
BRANCH 118 121
ATOM    121  CG  A02 d          13.670   5.366  10.687  0.00  0.00    -0.048 C 
ATOM    122  H63 A02 d          13.621   6.349  10.195  0.00  0.00     0.035 H 
ATOM    123  H64 A02 d          14.638   5.261  11.199  0.00  0.00     0.035 H 
BRANCH 121 124
ATOM    124  CD  A02 d          12.550   5.268  11.717  0.00  0.00     0.009 C 
ATOM    125  H65 A02 d          11.574   5.387  11.224  0.00  0.00     0.064 H 
ATOM    126  H66 A02 d          12.673   6.051  12.481  0.00  0.00     0.064 H 
BRANCH 124 127
ATOM    127  NE  A02 d          12.638   3.950  12.337  0.00  0.00    -0.227 N 
ATOM    128  CZ  A02 d          12.188   3.641  13.552  0.00  0.00     0.665 C 
ATOM    129  NH1 A02 d          11.559   4.515  14.336  0.00  0.00    -0.235 N 
ATOM    130  NH2 A02 d          12.373   2.393  13.961  0.00  0.00    -0.235 N 
ATOM    131  H68 A02 d          11.229   4.227  15.268  0.00  0.00     0.174 HD
ATOM    132  H69 A02 d          11.401   5.480  14.010  0.00  0.00     0.174 HD
ATOM    133  H70 A02 d          12.860   1.719  13.354  0.00  0.00     0.174 HD
ATOM    134  H71 A02 d          12.029   2.098  14.886  0.00  0.00     0.174 HD
ATOM    135  H67 A02 d          13.084   3.198  11.791  0.00  0.00     0.177 HD
ENDBRANCH 124 127
ENDBRANCH 121 124
ENDBRANCH 118 121
ENDBRANCH 116 118
BRANCH 116 136
ATOM    136  C   A02 d          11.446   3.791   8.314  0.00  0.00     0.238 C 
ATOM    137  O   A02 d          10.337   4.104   8.751  0.00  0.00    -0.271 OA
ATOM    138  NAF A02 d          11.688   2.647   7.675  0.00  0.00    -0.368 N 
ATOM    139  H72 A02 d          10.952   1.983   7.543  0.00  0.00     0.159 HD
ATOM    140  H73 A02 d          12.605   2.453   7.328  0.00  0.00     0.159 HD
ENDBRANCH 116 136
ENDBRANCH 114 116
ENDBRANCH  92 112
ENDBRANCH  90  92
ENDBRANCH  85  88
ENDBRANCH  82  85
ENDBRANCH  79  82
ENDBRANCH  76  79
ENDBRANCH  73  76
ENDBRANCH   3  73
TORSDOF 36
ENDMDL
MODEL 3
REMARK VINA RESULT:      -4.4      3.150      8.055
REMARK WARNING: 32 MAX_TORS EXCEEDED!!!
REMARK  36 active torsions:
REMARK  status: ('A' for Active; 'I' for Inactive)
REMARK    1  A    between atoms: C6_6  and  N6_7 
REMARK    2  A    between atoms: CCN_19  and  N9_10 
REMARK    3  A    between atoms: CCK_16  and  OAN_12 
REMARK    4  A    between atoms: CCL_17  and  OAO_13 
REMARK    5  A    between atoms: CCC_15  and  CCM_18 
REMARK       I    between atoms: NBR_27  and  CCC_15 
REMARK    6  A    between atoms: CBZ_20  and  CBG_22 
REMARK       I    between atoms: NBS_28  and  CBZ_20 
REMARK    7  A    between atoms: CBG_22  and  CAX_23 
REMARK    8  A    between atoms: CAX_23  and  CAU_24 
REMARK    9  A    between atoms: CAU_24  and  CAW_25 
REMARK   10  A    between atoms: CAW_25  and  CBD_26 
REMARK   11  A    between atoms: CBD_26  and  NBR_27 
REMARK   12  A    between atoms: CCI_29  and  NBS_28 
REMARK   13  A    between atoms: CCB_30  and  CCI_29 
REMARK   14  A    between atoms: CCI_29  and  CBJ_32 
REMARK       I    between atoms: NBQ_44  and  CCB_30 
REMARK   15  A    between atoms: CBJ_32  and  CAZ_33 
REMARK   16  A    between atoms: CAZ_33  and  CAS_34 
REMARK   17  A    between atoms: CAS_34  and  CAR_35 
REMARK   18  A    between atoms: CAR_35  and  NAC_36 
REMARK   19  A    between atoms: CBH_39  and  CCA_37 
REMARK       I    between atoms: CCA_37  and  NBT_45 
REMARK   20  A    between atoms: CAY_40  and  CBH_39 
REMARK   21  A    between atoms: CAT_41  and  CAY_40 
REMARK   22  A    between atoms: CAV_42  and  CAT_41 
REMARK   23  A    between atoms: CBC_43  and  CAV_42 
REMARK   24  A    between atoms: CBC_43  and  NBQ_44 
REMARK   25  A    between atoms: NBT_45  and  CCJ_46 
REMARK   26  A    between atoms: CCJ_46  and  CBK_47 
REMARK   27  A    between atoms: CCJ_46  and  CCD_54 
REMARK   28  A    between atoms: CBK_47  and  CBB_48 
REMARK   29  A    between atoms: CBB_48  and  CBF_49 
REMARK   30  A    between atoms: CBF_49  and  NBP_50 
REMARK       I    between atoms: NBP_50  and  CBX_51 
REMARK       I    between atoms: CBX_51  and  NAB_52 
REMARK       I    between atoms: CBX_51  and  NAE_53 
REMARK       I    between atoms: CCD_54  and  N_56 
REMARK   31  A    between atoms: N_56  and  CA_57 
REMARK   32  A    between atoms: CA_57  and  CB_58 
REMARK   33  A    between atoms: CA_57  and  C_65 
REMARK   34  A    between atoms: CB_58  and  CG_59 
REMARK   35  A    between atoms: CG_59  and  CD_60 
REMARK   36  A    between atoms: CD_60  and  NE_61 
REMARK       I    between atoms: NE_61  and  CZ_62 
REMARK       I    between atoms: CZ_62  and  NH1_63 
REMARK       I    between atoms: C_65  and  NAF_67 
ROOT
ATOM      1  CCB A02 d          18.446   5.445   4.797  0.00  0.00     0.240 C 
ATOM      2  OAK A02 d          19.655   5.247   4.808  0.00  0.00    -0.271 OA
ATOM      3  NBQ A02 d          17.816   6.123   3.839  0.00  0.00    -0.359 N 
ATOM      4  H45 A02 d          16.826   6.250   3.910  0.00  0.00     0.162 HD
ENDROOT
BRANCH   1   5
ATOM      5  CCI A02 d          17.555   4.933   5.955  0.00  0.00     0.089 C 
ATOM      6  H23 A02 d          16.746   4.344   5.500  0.00  0.00     0.087 H 
BRANCH   5   7
ATOM      7  NBS A02 d          16.923   6.070   6.672  0.00  0.00    -0.348 N 
ATOM      8  CBZ A02 d          17.639   6.910   7.437  0.00  0.00     0.218 C 
ATOM      9  OAI A02 d          18.851   6.793   7.652  0.00  0.00    -0.274 OA
ATOM     10  H22 A02 d          15.938   6.214   6.583  0.00  0.00     0.163 HD
BRANCH   8  11
ATOM     11  CBG A02 d          16.827   8.039   8.103  0.00  0.00     0.009 C 
ATOM     12  H11 A02 d          17.501   8.880   8.323  0.00  0.00     0.047 H 
ATOM     13  H12 A02 d          16.395   7.661   9.041  0.00  0.00     0.047 H 
BRANCH  11  14
ATOM     14  CAX A02 d          15.687   8.540   7.195  0.00  0.00    -0.057 C 
ATOM     15  H13 A02 d          14.795   7.916   7.362  0.00  0.00     0.033 H 
ATOM     16  H14 A02 d          16.002   8.455   6.143  0.00  0.00     0.033 H 
BRANCH  14  17
ATOM     17  CAU A02 d          15.337  10.001   7.495  0.00  0.00    -0.063 C 
ATOM     18  H15 A02 d          15.226  10.539   6.541  0.00  0.00     0.033 H 
ATOM     19  H16 A02 d          16.160  10.448   8.073  0.00  0.00     0.033 H 
BRANCH  17  20
ATOM     20  CAW A02 d          14.040  10.152   8.295  0.00  0.00    -0.050 C 
ATOM     21  H17 A02 d          13.174   9.950   7.647  0.00  0.00     0.035 H 
ATOM     22  H18 A02 d          13.965  11.172   8.701  0.00  0.00     0.035 H 
BRANCH  20  23
ATOM     23  CBD A02 d          14.084   9.136   9.439  0.00  0.00    -0.005 C 
ATOM     24  H19 A02 d          14.279   9.673  10.379  0.00  0.00     0.064 H 
ATOM     25  H20 A02 d          14.900   8.425   9.246  0.00  0.00     0.064 H 
BRANCH  23  26
ATOM     26  NBR A02 d          12.826   8.383   9.578  0.00  0.00    -0.359 N 
ATOM     27  CCC A02 d          12.733   7.053   9.522  0.00  0.00     0.249 C 
ATOM     28  OAL A02 d          13.682   6.294   9.279  0.00  0.00    -0.271 OA
ATOM     29  H21 A02 d          11.984   8.903   9.724  0.00  0.00     0.162 HD
BRANCH  27  30
ATOM     30  CCM A02 d          11.338   6.454   9.783  0.00  0.00     0.144 C 
ATOM     31  OBV A02 d          11.424   5.038  10.157  0.00  0.00    -0.346 OA
ATOM     32  CCN A02 d          11.211   4.911  11.594  0.00  0.00     0.140 C 
ATOM     33  CCL A02 d          11.267   6.353  12.137  0.00  0.00     0.105 C 
ATOM     34  H10 A02 d          10.214   4.488  11.784  0.00  0.00     0.123 H 
ATOM     35  CCK A02 d          10.700   7.156  10.981  0.00  0.00     0.098 C 
ATOM     36  H8  A02 d          12.295   6.657  12.384  0.00  0.00     0.093 H 
ATOM     37  H7  A02 d          10.966   8.222  11.039  0.00  0.00     0.091 H 
ATOM     38  H9  A02 d          10.713   6.573   8.885  0.00  0.00     0.102 H 
BRANCH  32  39
ATOM     39  N9  A02 d          12.245   3.993  12.237  0.00  0.00    -0.294 N 
ATOM     40  C4  A02 d          12.159   3.443  13.444  0.00  0.00     0.167 A 
ATOM     41  N3  A02 d          11.236   3.506  14.416  0.00  0.00    -0.222 NA
ATOM     42  C5  A02 d          13.311   2.693  13.638  0.00  0.00     0.149 A 
ATOM     43  C2  A02 d          11.410   2.843  15.552  0.00  0.00     0.091 A 
ATOM     44  N1  A02 d          12.507   2.103  15.764  0.00  0.00    -0.222 NA
ATOM     45  H1  A02 d          10.651   2.901  16.324  0.00  0.00     0.146 H 
ATOM     46  C6  A02 d          13.472   2.013  14.834  0.00  0.00     0.155 A 
ATOM     47  N7  A02 d          14.067   2.795  12.547  0.00  0.00    -0.236 NA
ATOM     48  C8  A02 d          13.402   3.581  11.693  0.00  0.00     0.071 A 
ATOM     49  H4  A02 d          13.749   3.849  10.697  0.00  0.00     0.144 H 
BRANCH  46  50
ATOM     50  N6  A02 d          14.567   1.291  15.049  0.00  0.00    -0.382 N 
ATOM     51  H2  A02 d          14.549   0.520  15.731  0.00  0.00     0.157 HD
ATOM     52  H3  A02 d          15.433   1.502  14.533  0.00  0.00     0.157 HD
ENDBRANCH  46  50
ENDBRANCH  32  39
BRANCH  33  53
ATOM     53  OAO A02 d          10.425   6.487  13.272  0.00  0.00    -0.388 OA
ATOM     54  H6  A02 d           9.624   5.995  13.131  0.00  0.00     0.210 HD
ENDBRANCH  33  53
BRANCH  35  55
ATOM     55  OAN A02 d           9.270   6.985  10.924  0.00  0.00    -0.390 OA
ATOM     56  H5  A02 d           8.851   7.838  10.892  0.00  0.00     0.210 HD
ENDBRANCH  35  55
ENDBRANCH  27  30
ENDBRANCH  23  26
ENDBRANCH  20  23
ENDBRANCH  17  20
ENDBRANCH  14  17
ENDBRANCH  11  14
ENDBRANCH   8  11
ENDBRANCH   5   7
BRANCH   5  57
ATOM     57  CBJ A02 d          18.304   3.989   6.923  0.00  0.00    -0.038 C 
ATOM     58  H24 A02 d          18.981   4.600   7.537  0.00  0.00     0.036 H 
ATOM     59  H25 A02 d          18.892   3.282   6.321  0.00  0.00     0.036 H 
BRANCH  57  60
ATOM     60  CAZ A02 d          17.411   3.178   7.868  0.00  0.00    -0.061 C 
ATOM     61  H26 A02 d          16.732   3.860   8.402  0.00  0.00     0.033 H 
ATOM     62  H27 A02 d          18.041   2.644   8.594  0.00  0.00     0.033 H 
BRANCH  60  63
ATOM     63  CAS A02 d          16.578   2.155   7.067  0.00  0.00    -0.043 C 
ATOM     64  H28 A02 d          16.987   1.147   7.237  0.00  0.00     0.035 H 
ATOM     65  H29 A02 d          16.640   2.401   5.996  0.00  0.00     0.035 H 
BRANCH  63  66
ATOM     66  CAR A02 d          15.104   2.177   7.501  0.00  0.00     0.080 C 
ATOM     67  H30 A02 d          14.912   1.334   8.181  0.00  0.00     0.075 H 
ATOM     68  H31 A02 d          14.461   2.087   6.612  0.00  0.00     0.075 H 
BRANCH  66  69
ATOM     69  NAC A02 d          14.803   3.442   8.194  0.00  0.00    -0.079 N 
ATOM     70  H32 A02 d          15.112   4.218   7.629  0.00  0.00     0.274 HD
ATOM     71  H33 A02 d          15.282   3.462   9.082  0.00  0.00     0.274 HD
ATOM     72  H34 A02 d          13.809   3.513   8.348  0.00  0.00     0.274 HD
ENDBRANCH  66  69
ENDBRANCH  63  66
ENDBRANCH  60  63
ENDBRANCH  57  60
ENDBRANCH   5  57
ENDBRANCH   1   5
BRANCH   3  73
ATOM     73  CBC A02 d          18.525   6.695   2.672  0.00  0.00    -0.005 C 
ATOM     74  H43 A02 d          18.597   7.786   2.791  0.00  0.00     0.064 H 
ATOM     75  H44 A02 d          19.536   6.265   2.616  0.00  0.00     0.064 H 
BRANCH  73  76
ATOM     76  CAV A02 d          17.771   6.378   1.375  0.00  0.00    -0.050 C 
ATOM     77  H41 A02 d          17.307   7.299   0.992  0.00  0.00     0.035 H 
ATOM     78  H42 A02 d          18.480   5.987   0.631  0.00  0.00     0.035 H 
BRANCH  76  79
ATOM     79  CAT A02 d          16.679   5.332   1.631  0.00  0.00    -0.063 C 
ATOM     80  H39 A02 d          16.992   4.376   1.187  0.00  0.00     0.033 H 
ATOM     81  H40 A02 d          16.551   5.209   2.717  0.00  0.00     0.033 H 
BRANCH  79  82
ATOM     82  CAY A02 d          15.337   5.747   1.018  0.00  0.00    -0.057 C 
ATOM     83  H37 A02 d          15.431   6.765   0.611  0.00  0.00     0.033 H 
ATOM     84  H38 A02 d          15.086   5.049   0.207  0.00  0.00     0.033 H 
BRANCH  82  85
ATOM     85  CBH A02 d          14.206   5.730   2.060  0.00  0.00     0.009 C 
ATOM     86  H35 A02 d          13.260   5.987   1.562  0.00  0.00     0.047 H 
ATOM     87  H36 A02 d          14.132   4.719   2.489  0.00  0.00     0.047 H 
BRANCH  85  88
ATOM     88  CCA A02 d          14.461   6.736   3.194  0.00  0.00     0.218 C 
ATOM     89  OAJ A02 d          14.753   6.349   4.330  0.00  0.00    -0.274 OA
ATOM     90  NBT A02 d          14.352   8.023   2.842  0.00  0.00    -0.348 N 
ATOM     91  H46 A02 d          14.122   8.239   1.893  0.00  0.00     0.163 HD
BRANCH  90  92
ATOM     92  CCJ A02 d          14.556   9.144   3.792  0.00  0.00     0.089 C 
ATOM     93  H47 A02 d          14.819   8.716   4.770  0.00  0.00     0.087 H 
BRANCH  92  94
ATOM     94  CBK A02 d          13.257   9.975   3.972  0.00  0.00    -0.036 C 
ATOM     95  H48 A02 d          13.086  10.550   3.050  0.00  0.00     0.036 H 
ATOM     96  H49 A02 d          13.406  10.667   4.814  0.00  0.00     0.036 H 
BRANCH  94  97
ATOM     97  CBB A02 d          11.999   9.137   4.256  0.00  0.00    -0.048 C 
ATOM     98  H50 A02 d          12.082   8.181   3.718  0.00  0.00     0.035 H 
ATOM     99  H51 A02 d          11.118   9.687   3.893  0.00  0.00     0.035 H 
BRANCH  97 100
ATOM    100  CBF A02 d          11.817   8.846   5.754  0.00  0.00     0.009 C 
ATOM    101  H52 A02 d          10.745   8.813   5.999  0.00  0.00     0.064 H 
ATOM    102  H53 A02 d          12.305   9.634   6.347  0.00  0.00     0.064 H 
BRANCH 100 103
ATOM    103  NBP A02 d          12.438   7.541   6.051  0.00  0.00    -0.227 N 
ATOM    104  CBX A02 d          11.768   6.381   6.083  0.00  0.00     0.665 C 
ATOM    105  NAB A02 d          10.463   6.304   5.830  0.00  0.00    -0.235 N 
ATOM    106  NAE A02 d          12.439   5.269   6.369  0.00  0.00    -0.235 N 
ATOM    107  H55 A02 d           9.984   5.392   5.864  0.00  0.00     0.174 HD
ATOM    108  H56 A02 d           9.931   7.156   5.599  0.00  0.00     0.174 HD
ATOM    109  H57 A02 d          13.449   5.314   6.567  0.00  0.00     0.174 HD
ATOM    110  H58 A02 d          11.950   4.363   6.392  0.00  0.00     0.174 HD
ATOM    111  H54 A02 d          13.449   7.521   6.246  0.00  0.00     0.177 HD
ENDBRANCH 100 103
ENDBRANCH  97 100
ENDBRANCH  94  97
ENDBRANCH  92  94
BRANCH  92 112
ATOM    112  CCD A02 d          15.732  10.039   3.330  0.00  0.00     0.241 C 
ATOM    113  OAM A02 d          16.465  10.594   4.149  0.00  0.00    -0.271 OA
ATOM    114  N   A02 d          15.875  10.157   2.008  0.00  0.00    -0.346 N 
ATOM    115  H59 A02 d          15.232   9.671   1.416  0.00  0.00     0.163 HD
BRANCH 114 116
ATOM    116  CA  A02 d          16.937  10.970   1.373  0.00  0.00     0.089 C 
ATOM    117  H60 A02 d          17.270  11.732   2.092  0.00  0.00     0.087 H 
BRANCH 116 118
ATOM    118  CB  A02 d          16.375  11.674   0.132  0.00  0.00    -0.036 C 
ATOM    119  H61 A02 d          16.588  11.060  -0.756  0.00  0.00     0.036 H 
ATOM    120  H62 A02 d          16.863  12.655   0.025  0.00  0.00     0.036 H 
BRANCH 118 121
ATOM    121  CG  A02 d          14.863  11.881   0.242  0.00  0.00    -0.048 C 
ATOM    122  H63 A02 d          14.649  12.960   0.261  0.00  0.00     0.035 H 
ATOM    123  H64 A02 d          14.504  11.420   1.174  0.00  0.00     0.035 H 
BRANCH 121 124
ATOM    124  CD  A02 d          14.130  11.250  -0.937  0.00  0.00     0.009 C 
ATOM    125  H65 A02 d          14.591  10.285  -1.193  0.00  0.00     0.064 H 
ATOM    126  H66 A02 d          14.173  11.920  -1.809  0.00  0.00     0.064 H 
BRANCH 124 127
ATOM    127  NE  A02 d          12.742  11.047  -0.533  0.00  0.00    -0.227 N 
ATOM    128  CZ  A02 d          12.195   9.871  -0.230  0.00  0.00     0.665 C 
ATOM    129  NH1 A02 d          12.884   8.730  -0.226  0.00  0.00    -0.235 N 
ATOM    130  NH2 A02 d          10.910   9.874   0.098  0.00  0.00    -0.235 N 
ATOM    131  H68 A02 d          12.414   7.846   0.016  0.00  0.00     0.174 HD
ATOM    132  H69 A02 d          13.886   8.732  -0.465  0.00  0.00     0.174 HD
ATOM    133  H70 A02 d          10.379  10.756   0.095  0.00  0.00     0.174 HD
ATOM    134  H71 A02 d          10.443   8.992   0.357  0.00  0.00     0.174 HD
ATOM    135  H67 A02 d          12.137  11.879  -0.477  0.00  0.00     0.177 HD
ENDBRANCH 124 127
ENDBRANCH 121 124
ENDBRANCH 118 121
ENDBRANCH 116 118
BRANCH 116 136
ATOM    136  C   A02 d          18.155  10.103   0.979  0.00  0.00     0.238 C 
ATOM    137  O   A02 d          19.057   9.850   1.779  0.00  0.00    -0.271 OA
ATOM    138  NAF A02 d          18.131   9.645  -0.271  0.00  0.00    -0.368 N 
ATOM    139  H72 A02 d          18.881   9.076  -0.609  0.00  0.00     0.159 HD
ATOM    140  H73 A02 d          17.364   9.870  -0.872  0.00  0.00     0.159 HD
ENDBRANCH 116 136
ENDBRANCH 114 116
ENDBRANCH  92 112
ENDBRANCH  90  92
ENDBRANCH  85  88
ENDBRANCH  82  85
ENDBRANCH  79  82
ENDBRANCH  76  79
ENDBRANCH  73  76
ENDBRANCH   3  73
TORSDOF 36
ENDMDL
MODEL 4
REMARK VINA RESULT:      -4.2      3.112      5.534
REMARK WARNING: 32 MAX_TORS EXCEEDED!!!
REMARK  36 active torsions:
REMARK  status: ('A' for Active; 'I' for Inactive)
REMARK    1  A    between atoms: C6_6  and  N6_7 
REMARK    2  A    between atoms: CCN_19  and  N9_10 
REMARK    3  A    between atoms: CCK_16  and  OAN_12 
REMARK    4  A    between atoms: CCL_17  and  OAO_13 
REMARK    5  A    between atoms: CCC_15  and  CCM_18 
REMARK       I    between atoms: NBR_27  and  CCC_15 
REMARK    6  A    between atoms: CBZ_20  and  CBG_22 
REMARK       I    between atoms: NBS_28  and  CBZ_20 
REMARK    7  A    between atoms: CBG_22  and  CAX_23 
REMARK    8  A    between atoms: CAX_23  and  CAU_24 
REMARK    9  A    between atoms: CAU_24  and  CAW_25 
REMARK   10  A    between atoms: CAW_25  and  CBD_26 
REMARK   11  A    between atoms: CBD_26  and  NBR_27 
REMARK   12  A    between atoms: CCI_29  and  NBS_28 
REMARK   13  A    between atoms: CCB_30  and  CCI_29 
REMARK   14  A    between atoms: CCI_29  and  CBJ_32 
REMARK       I    between atoms: NBQ_44  and  CCB_30 
REMARK   15  A    between atoms: CBJ_32  and  CAZ_33 
REMARK   16  A    between atoms: CAZ_33  and  CAS_34 
REMARK   17  A    between atoms: CAS_34  and  CAR_35 
REMARK   18  A    between atoms: CAR_35  and  NAC_36 
REMARK   19  A    between atoms: CBH_39  and  CCA_37 
REMARK       I    between atoms: CCA_37  and  NBT_45 
REMARK   20  A    between atoms: CAY_40  and  CBH_39 
REMARK   21  A    between atoms: CAT_41  and  CAY_40 
REMARK   22  A    between atoms: CAV_42  and  CAT_41 
REMARK   23  A    between atoms: CBC_43  and  CAV_42 
REMARK   24  A    between atoms: CBC_43  and  NBQ_44 
REMARK   25  A    between atoms: NBT_45  and  CCJ_46 
REMARK   26  A    between atoms: CCJ_46  and  CBK_47 
REMARK   27  A    between atoms: CCJ_46  and  CCD_54 
REMARK   28  A    between atoms: CBK_47  and  CBB_48 
REMARK   29  A    between atoms: CBB_48  and  CBF_49 
REMARK   30  A    between atoms: CBF_49  and  NBP_50 
REMARK       I    between atoms: NBP_50  and  CBX_51 
REMARK       I    between atoms: CBX_51  and  NAB_52 
REMARK       I    between atoms: CBX_51  and  NAE_53 
REMARK       I    between atoms: CCD_54  and  N_56 
REMARK   31  A    between atoms: N_56  and  CA_57 
REMARK   32  A    between atoms: CA_57  and  CB_58 
REMARK   33  A    between atoms: CA_57  and  C_65 
REMARK   34  A    between atoms: CB_58  and  CG_59 
REMARK   35  A    between atoms: CG_59  and  CD_60 
REMARK   36  A    between atoms: CD_60  and  NE_61 
REMARK       I    between atoms: NE_61  and  CZ_62 
REMARK       I    between atoms: CZ_62  and  NH1_63 
REMARK       I    between atoms: C_65  and  NAF_67 
ROOT
ATOM      1  CCB A02 d          15.173   7.354   7.485  0.00  0.00     0.240 C 
ATOM      2  OAK A02 d          14.091   7.630   6.981  0.00  0.00    -0.271 OA
ATOM      3  NBQ A02 d          15.392   6.261   8.215  0.00  0.00    -0.359 N 
ATOM      4  H45 A02 d          16.304   6.114   8.600  0.00  0.00     0.162 HD
ENDROOT
BRANCH   1   5
ATOM      5  CCI A02 d          16.381   8.309   7.325  0.00  0.00     0.089 C 
ATOM      6  H23 A02 d          16.443   8.905   8.247  0.00  0.00     0.087 H 
BRANCH   5   7
ATOM      7  NBS A02 d          16.156   9.255   6.202  0.00  0.00    -0.348 N 
ATOM      8  CBZ A02 d          15.915  10.559   6.413  0.00  0.00     0.218 C 
ATOM      9  OAI A02 d          15.812  11.075   7.532  0.00  0.00    -0.274 OA
ATOM     10  H22 A02 d          16.185   8.911   5.263  0.00  0.00     0.163 HD
BRANCH   8  11
ATOM     11  CBG A02 d          15.713  11.400   5.136  0.00  0.00     0.009 C 
ATOM     12  H11 A02 d          14.733  11.155   4.700  0.00  0.00     0.047 H 
ATOM     13  H12 A02 d          16.507  11.152   4.416  0.00  0.00     0.047 H 
BRANCH  11  14
ATOM     14  CAX A02 d          15.762  12.912   5.431  0.00  0.00    -0.057 C 
ATOM     15  H13 A02 d          16.793  13.271   5.292  0.00  0.00     0.033 H 
ATOM     16  H14 A02 d          15.451  13.085   6.473  0.00  0.00     0.033 H 
BRANCH  14  17
ATOM     17  CAU A02 d          14.831  13.692   4.496  0.00  0.00    -0.063 C 
ATOM     18  H15 A02 d          13.997  13.036   4.204  0.00  0.00     0.033 H 
ATOM     19  H16 A02 d          15.398  13.984   3.600  0.00  0.00     0.033 H 
BRANCH  17  20
ATOM     20  CAW A02 d          14.257  14.955   5.144  0.00  0.00    -0.050 C 
ATOM     21  H17 A02 d          15.061  15.683   5.327  0.00  0.00     0.035 H 
ATOM     22  H18 A02 d          13.770  14.699   6.098  0.00  0.00     0.035 H 
BRANCH  20  23
ATOM     23  CBD A02 d          13.230  15.544   4.175  0.00  0.00    -0.005 C 
ATOM     24  H19 A02 d          13.613  15.438   3.149  0.00  0.00     0.064 H 
ATOM     25  H20 A02 d          13.097  16.610   4.408  0.00  0.00     0.064 H 
BRANCH  23  26
ATOM     26  NBR A02 d          11.919  14.875   4.261  0.00  0.00    -0.359 N 
ATOM     27  CCC A02 d          10.746  15.506   4.192  0.00  0.00     0.249 C 
ATOM     28  OAL A02 d          10.614  16.736   4.117  0.00  0.00    -0.271 OA
ATOM     29  H21 A02 d          11.909  13.882   4.378  0.00  0.00     0.162 HD
BRANCH  27  30
ATOM     30  CCM A02 d           9.489  14.615   4.210  0.00  0.00     0.144 C 
ATOM     31  OBV A02 d           9.825  13.220   4.519  0.00  0.00    -0.346 OA
ATOM     32  CCN A02 d           9.451  12.935   5.898  0.00  0.00     0.140 C 
ATOM     33  CCL A02 d           9.123  14.308   6.518  0.00  0.00     0.105 C 
ATOM     34  H10 A02 d           8.551  12.303   5.914  0.00  0.00     0.123 H 
ATOM     35  CCK A02 d           8.559  15.071   5.333  0.00  0.00     0.098 C 
ATOM     36  H8  A02 d          10.019  14.794   6.932  0.00  0.00     0.093 H 
ATOM     37  H7  A02 d           8.581  16.160   5.485  0.00  0.00     0.091 H 
ATOM     38  H9  A02 d           8.981  14.677   3.236  0.00  0.00     0.102 H 
BRANCH  32  39
ATOM     39  N9  A02 d          10.560  12.197   6.640  0.00  0.00    -0.294 N 
ATOM     40  C4  A02 d          10.431  11.050   7.298  0.00  0.00     0.167 A 
ATOM     41  N3  A02 d           9.390  10.233   7.522  0.00  0.00    -0.222 NA
ATOM     42  C5  A02 d          11.675  10.738   7.832  0.00  0.00     0.149 A 
ATOM     43  C2  A02 d           9.545   9.125   8.235  0.00  0.00     0.091 A 
ATOM     44  N1  A02 d          10.736   8.794   8.754  0.00  0.00    -0.222 NA
ATOM     45  H1  A02 d           8.694   8.474   8.400  0.00  0.00     0.146 H 
ATOM     46  C6  A02 d          11.811   9.578   8.576  0.00  0.00     0.155 A 
ATOM     47  N7  A02 d          12.532  11.695   7.482  0.00  0.00    -0.236 NA
ATOM     48  C8  A02 d          11.844  12.574   6.745  0.00  0.00     0.071 A 
ATOM     49  H4  A02 d          12.267  13.470   6.294  0.00  0.00     0.144 H 
BRANCH  46  50
ATOM     50  N6  A02 d          12.988   9.258   9.102  0.00  0.00    -0.382 N 
ATOM     51  H2  A02 d          13.044   8.544   9.842  0.00  0.00     0.157 HD
ATOM     52  H3  A02 d          13.845   9.723   8.770  0.00  0.00     0.157 HD
ENDBRANCH  46  50
ENDBRANCH  32  39
BRANCH  33  53
ATOM     53  OAO A02 d           8.125  14.173   7.519  0.00  0.00    -0.388 OA
ATOM     54  H6  A02 d           7.276  14.382   7.148  0.00  0.00     0.210 HD
ENDBRANCH  33  53
BRANCH  35  55
ATOM     55  OAN A02 d           7.220  14.617   5.054  0.00  0.00    -0.390 OA
ATOM     56  H5  A02 d           6.684  15.357   4.793  0.00  0.00     0.210 HD
ENDBRANCH  35  55
ENDBRANCH  27  30
ENDBRANCH  23  26
ENDBRANCH  20  23
ENDBRANCH  17  20
ENDBRANCH  14  17
ENDBRANCH  11  14
ENDBRANCH   8  11
ENDBRANCH   5   7
BRANCH   5  57
ATOM     57  CBJ A02 d          17.728   7.564   7.185  0.00  0.00    -0.038 C 
ATOM     58  H24 A02 d          18.227   7.931   6.276  0.00  0.00     0.036 H 
ATOM     59  H25 A02 d          17.513   6.490   7.077  0.00  0.00     0.036 H 
BRANCH  57  60
ATOM     60  CAZ A02 d          18.697   7.737   8.360  0.00  0.00    -0.061 C 
ATOM     61  H26 A02 d          18.570   6.900   9.062  0.00  0.00     0.033 H 
ATOM     62  H27 A02 d          18.478   8.684   8.874  0.00  0.00     0.033 H 
BRANCH  60  63
ATOM     63  CAS A02 d          20.154   7.758   7.850  0.00  0.00    -0.043 C 
ATOM     64  H28 A02 d          20.723   6.964   8.357  0.00  0.00     0.035 H 
ATOM     65  H29 A02 d          20.601   8.736   8.083  0.00  0.00     0.035 H 
BRANCH  63  66
ATOM     66  CAR A02 d          20.215   7.527   6.333  0.00  0.00     0.080 C 
ATOM     67  H30 A02 d          19.192   7.425   5.939  0.00  0.00     0.075 H 
ATOM     68  H31 A02 d          20.781   6.607   6.127  0.00  0.00     0.075 H 
BRANCH  66  69
ATOM     69  NAC A02 d          20.880   8.667   5.676  0.00  0.00    -0.079 N 
ATOM     70  H32 A02 d          20.447   8.838   4.781  0.00  0.00     0.274 HD
ATOM     71  H33 A02 d          21.856   8.454   5.542  0.00  0.00     0.274 HD
ATOM     72  H34 A02 d          20.791   9.487   6.255  0.00  0.00     0.274 HD
ENDBRANCH  66  69
ENDBRANCH  63  66
ENDBRANCH  60  63
ENDBRANCH  57  60
ENDBRANCH   5  57
ENDBRANCH   1   5
BRANCH   3  73
ATOM     73  CBC A02 d          14.337   5.256   8.478  0.00  0.00    -0.005 C 
ATOM     74  H43 A02 d          14.023   5.328   9.530  0.00  0.00     0.064 H 
ATOM     75  H44 A02 d          13.476   5.456   7.824  0.00  0.00     0.064 H 
BRANCH  73  76
ATOM     76  CAV A02 d          14.861   3.842   8.203  0.00  0.00    -0.050 C 
ATOM     77  H41 A02 d          15.781   3.677   8.785  0.00  0.00     0.035 H 
ATOM     78  H42 A02 d          14.100   3.109   8.507  0.00  0.00     0.035 H 
BRANCH  76  79
ATOM     79  CAT A02 d          15.168   3.662   6.712  0.00  0.00    -0.063 C 
ATOM     80  H39 A02 d          14.312   3.171   6.229  0.00  0.00     0.033 H 
ATOM     81  H40 A02 d          15.326   4.653   6.259  0.00  0.00     0.033 H 
BRANCH  79  82
ATOM     82  CAY A02 d          16.421   2.809   6.486  0.00  0.00    -0.057 C 
ATOM     83  H37 A02 d          16.718   2.353   7.442  0.00  0.00     0.033 H 
ATOM     84  H38 A02 d          16.186   2.018   5.759  0.00  0.00     0.033 H 
BRANCH  82  85
ATOM     85  CBH A02 d          17.592   3.648   5.950  0.00  0.00     0.009 C 
ATOM     86  H35 A02 d          17.818   4.447   6.671  0.00  0.00     0.047 H 
ATOM     87  H36 A02 d          18.473   2.999   5.834  0.00  0.00     0.047 H 
BRANCH  85  88
ATOM     88  CCA A02 d          17.260   4.285   4.590  0.00  0.00     0.218 C 
ATOM     89  OAJ A02 d          16.919   3.586   3.630  0.00  0.00    -0.274 OA
ATOM     90  NBT A02 d          17.362   5.619   4.551  0.00  0.00    -0.348 N 
ATOM     91  H46 A02 d          17.636   6.100   5.384  0.00  0.00     0.163 HD
BRANCH  90  92
ATOM     92  CCJ A02 d          17.089   6.419   3.332  0.00  0.00     0.089 C 
ATOM     93  H47 A02 d          17.250   5.770   2.458  0.00  0.00     0.087 H 
BRANCH  92  94
ATOM     94  CBK A02 d          18.062   7.622   3.215  0.00  0.00    -0.036 C 
ATOM     95  H48 A02 d          18.540   7.774   4.194  0.00  0.00     0.036 H 
ATOM     96  H49 A02 d          17.476   8.514   2.951  0.00  0.00     0.036 H 
BRANCH  94  97
ATOM     97  CBB A02 d          19.169   7.446   2.162  0.00  0.00    -0.048 C 
ATOM     98  H50 A02 d          19.555   8.439   1.885  0.00  0.00     0.035 H 
ATOM     99  H51 A02 d          18.739   6.959   1.274  0.00  0.00     0.035 H 
BRANCH  97 100
ATOM    100  CBF A02 d          20.336   6.590   2.679  0.00  0.00     0.009 C 
ATOM    101  H52 A02 d          20.235   6.442   3.765  0.00  0.00     0.064 H 
ATOM    102  H53 A02 d          21.290   7.093   2.465  0.00  0.00     0.064 H 
BRANCH 100 103
ATOM    103  NBP A02 d          20.292   5.285   1.992  0.00  0.00    -0.227 N 
ATOM    104  CBX A02 d          20.506   4.109   2.598  0.00  0.00     0.665 C 
ATOM    105  NAB A02 d          20.765   4.016   3.901  0.00  0.00    -0.235 N 
ATOM    106  NAE A02 d          20.445   3.000   1.868  0.00  0.00    -0.235 N 
ATOM    107  H55 A02 d          20.923   3.092   4.330  0.00  0.00     0.174 HD
ATOM    108  H56 A02 d          20.807   4.866   4.481  0.00  0.00     0.174 HD
ATOM    109  H57 A02 d          20.245   3.057   0.859  0.00  0.00     0.174 HD
ATOM    110  H58 A02 d          20.597   2.082   2.312  0.00  0.00     0.174 HD
ATOM    111  H54 A02 d          20.086   5.278   0.983  0.00  0.00     0.177 HD
ENDBRANCH 100 103
ENDBRANCH  97 100
ENDBRANCH  94  97
ENDBRANCH  92  94
BRANCH  92 112
ATOM    112  CCD A02 d          15.614   6.889   3.311  0.00  0.00     0.241 C 
ATOM    113  OAM A02 d          15.304   8.019   3.688  0.00  0.00    -0.271 OA
ATOM    114  N   A02 d          14.733   5.989   2.868  0.00  0.00    -0.346 N 
ATOM    115  H59 A02 d          15.074   5.092   2.583  0.00  0.00     0.163 HD
BRANCH 114 116
ATOM    116  CA  A02 d          13.279   6.248   2.777  0.00  0.00     0.089 C 
ATOM    117  H60 A02 d          12.779   5.323   2.455  0.00  0.00     0.087 H 
BRANCH 116 118
ATOM    118  CB  A02 d          13.014   7.342   1.735  0.00  0.00    -0.036 C 
ATOM    119  H61 A02 d          13.865   7.388   1.039  0.00  0.00     0.036 H 
ATOM    120  H62 A02 d          12.909   8.308   2.250  0.00  0.00     0.036 H 
BRANCH 118 121
ATOM    121  CG  A02 d          11.737   7.061   0.941  0.00  0.00    -0.048 C 
ATOM    122  H63 A02 d          11.114   6.349   1.504  0.00  0.00     0.035 H 
ATOM    123  H64 A02 d          12.008   6.622  -0.031  0.00  0.00     0.035 H 
BRANCH 121 124
ATOM    124  CD  A02 d          10.939   8.339   0.703  0.00  0.00     0.009 C 
ATOM    125  H65 A02 d          10.116   8.143   0.001  0.00  0.00     0.064 H 
ATOM    126  H66 A02 d          11.596   9.120   0.290  0.00  0.00     0.064 H 
BRANCH 124 127
ATOM    127  NE  A02 d          10.405   8.768   1.992  0.00  0.00    -0.227 N 
ATOM    128  CZ  A02 d          10.581   9.972   2.533  0.00  0.00     0.665 C 
ATOM    129  NH1 A02 d          11.248  10.952   1.923  0.00  0.00    -0.235 N 
ATOM    130  NH2 A02 d          10.038  10.180   3.725  0.00  0.00    -0.235 N 
ATOM    131  H68 A02 d          11.356  11.866   2.384  0.00  0.00     0.174 HD
ATOM    132  H69 A02 d          11.655  10.794   0.990  0.00  0.00     0.174 HD
ATOM    133  H70 A02 d           9.523   9.422   4.195  0.00  0.00     0.174 HD
ATOM    134  H71 A02 d          10.131  11.099   4.180  0.00  0.00     0.174 HD
ATOM    135  H67 A02 d           9.847   8.085   2.525  0.00  0.00     0.177 HD
ENDBRANCH 124 127
ENDBRANCH 121 124
ENDBRANCH 118 121
ENDBRANCH 116 118
BRANCH 116 136
ATOM    136  C   A02 d          12.692   6.670   4.143  0.00  0.00     0.238 C 
ATOM    137  O   A02 d          12.138   7.760   4.303  0.00  0.00    -0.271 OA
ATOM    138  NAF A02 d          12.814   5.760   5.107  0.00  0.00    -0.368 N 
ATOM    139  H72 A02 d          12.462   5.952   6.024  0.00  0.00     0.159 HD
ATOM    140  H73 A02 d          13.259   4.885   4.916  0.00  0.00     0.159 HD
ENDBRANCH 116 136
ENDBRANCH 114 116
ENDBRANCH  92 112
ENDBRANCH  90  92
ENDBRANCH  85  88
ENDBRANCH  82  85
ENDBRANCH  79  82
ENDBRANCH  76  79
ENDBRANCH  73  76
ENDBRANCH   3  73
TORSDOF 36
ENDMDL
MODEL 5
REMARK VINA RESULT:      -4.1      2.988      4.933
REMARK WARNING: 32 MAX_TORS EXCEEDED!!!
REMARK  36 active torsions:
REMARK  status: ('A' for Active; 'I' for Inactive)
REMARK    1  A    between atoms: C6_6  and  N6_7 
REMARK    2  A    between atoms: CCN_19  and  N9_10 
REMARK    3  A    between atoms: CCK_16  and  OAN_12 
REMARK    4  A    between atoms: CCL_17  and  OAO_13 
REMARK    5  A    between atoms: CCC_15  and  CCM_18 
REMARK       I    between atoms: NBR_27  and  CCC_15 
REMARK    6  A    between atoms: CBZ_20  and  CBG_22 
REMARK       I    between atoms: NBS_28  and  CBZ_20 
REMARK    7  A    between atoms: CBG_22  and  CAX_23 
REMARK    8  A    between atoms: CAX_23  and  CAU_24 
REMARK    9  A    between atoms: CAU_24  and  CAW_25 
REMARK   10  A    between atoms: CAW_25  and  CBD_26 
REMARK   11  A    between atoms: CBD_26  and  NBR_27 
REMARK   12  A    between atoms: CCI_29  and  NBS_28 
REMARK   13  A    between atoms: CCB_30  and  CCI_29 
REMARK   14  A    between atoms: CCI_29  and  CBJ_32 
REMARK       I    between atoms: NBQ_44  and  CCB_30 
REMARK   15  A    between atoms: CBJ_32  and  CAZ_33 
REMARK   16  A    between atoms: CAZ_33  and  CAS_34 
REMARK   17  A    between atoms: CAS_34  and  CAR_35 
REMARK   18  A    between atoms: CAR_35  and  NAC_36 
REMARK   19  A    between atoms: CBH_39  and  CCA_37 
REMARK       I    between atoms: CCA_37  and  NBT_45 
REMARK   20  A    between atoms: CAY_40  and  CBH_39 
REMARK   21  A    between atoms: CAT_41  and  CAY_40 
REMARK   22  A    between atoms: CAV_42  and  CAT_41 
REMARK   23  A    between atoms: CBC_43  and  CAV_42 
REMARK   24  A    between atoms: CBC_43  and  NBQ_44 
REMARK   25  A    between atoms: NBT_45  and  CCJ_46 
REMARK   26  A    between atoms: CCJ_46  and  CBK_47 
REMARK   27  A    between atoms: CCJ_46  and  CCD_54 
REMARK   28  A    between atoms: CBK_47  and  CBB_48 
REMARK   29  A    between atoms: CBB_48  and  CBF_49 
REMARK   30  A    between atoms: CBF_49  and  NBP_50 
REMARK       I    between atoms: NBP_50  and  CBX_51 
REMARK       I    between atoms: CBX_51  and  NAB_52 
REMARK       I    between atoms: CBX_51  and  NAE_53 
REMARK       I    between atoms: CCD_54  and  N_56 
REMARK   31  A    between atoms: N_56  and  CA_57 
REMARK   32  A    between atoms: CA_57  and  CB_58 
REMARK   33  A    between atoms: CA_57  and  C_65 
REMARK   34  A    between atoms: CB_58  and  CG_59 
REMARK   35  A    between atoms: CG_59  and  CD_60 
REMARK   36  A    between atoms: CD_60  and  NE_61 
REMARK       I    between atoms: NE_61  and  CZ_62 
REMARK       I    between atoms: CZ_62  and  NH1_63 
REMARK       I    between atoms: C_65  and  NAF_67 
ROOT
ATOM      1  CCB A02 d          11.014   6.849   9.429  0.00  0.00     0.240 C 
ATOM      2  OAK A02 d           9.818   6.917   9.172  0.00  0.00    -0.271 OA
ATOM      3  NBQ A02 d          11.743   5.745   9.272  0.00  0.00    -0.359 N 
ATOM      4  H45 A02 d          12.713   5.770   9.516  0.00  0.00     0.162 HD
ENDROOT
BRANCH   1   5
ATOM      5  CCI A02 d          11.766   8.074  10.004  0.00  0.00     0.089 C 
ATOM      6  H23 A02 d          11.130   8.498  10.795  0.00  0.00     0.087 H 
BRANCH   5   7
ATOM      7  NBS A02 d          11.933   9.122   8.964  0.00  0.00    -0.348 N 
ATOM      8  CBZ A02 d          13.059   9.847   8.866  0.00  0.00     0.218 C 
ATOM      9  OAI A02 d          14.019   9.750   9.639  0.00  0.00    -0.274 OA
ATOM     10  H22 A02 d          11.188   9.291   8.320  0.00  0.00     0.163 HD
BRANCH   8  11
ATOM     11  CBG A02 d          13.069  10.885   7.725  0.00  0.00     0.009 C 
ATOM     12  H11 A02 d          13.459  10.410   6.814  0.00  0.00     0.047 H 
ATOM     13  H12 A02 d          13.723  11.722   8.011  0.00  0.00     0.047 H 
BRANCH  11  14
ATOM     14  CAX A02 d          11.657  11.434   7.435  0.00  0.00    -0.057 C 
ATOM     15  H13 A02 d          11.006  11.220   8.296  0.00  0.00     0.033 H 
ATOM     16  H14 A02 d          11.256  10.937   6.539  0.00  0.00     0.033 H 
BRANCH  14  17
ATOM     17  CAU A02 d          11.688  12.948   7.196  0.00  0.00    -0.063 C 
ATOM     18  H15 A02 d          11.866  13.452   8.157  0.00  0.00     0.033 H 
ATOM     19  H16 A02 d          10.712  13.259   6.793  0.00  0.00     0.033 H 
BRANCH  17  20
ATOM     20  CAW A02 d          12.781  13.373   6.211  0.00  0.00    -0.050 C 
ATOM     21  H17 A02 d          13.253  12.484   5.767  0.00  0.00     0.035 H 
ATOM     22  H18 A02 d          13.543  13.971   6.732  0.00  0.00     0.035 H 
BRANCH  20  23
ATOM     23  CBD A02 d          12.115  14.212   5.118  0.00  0.00    -0.005 C 
ATOM     24  H19 A02 d          11.153  14.585   5.498  0.00  0.00     0.064 H 
ATOM     25  H20 A02 d          11.940  13.572   4.241  0.00  0.00     0.064 H 
BRANCH  23  26
ATOM     26  NBR A02 d          12.938  15.362   4.705  0.00  0.00    -0.359 N 
ATOM     27  CCC A02 d          12.745  16.065   3.588  0.00  0.00     0.249 C 
ATOM     28  OAL A02 d          11.894  15.794   2.728  0.00  0.00    -0.271 OA
ATOM     29  H21 A02 d          13.691  15.635   5.303  0.00  0.00     0.162 HD
BRANCH  27  30
ATOM     30  CCM A02 d          13.657  17.289   3.384  0.00  0.00     0.144 C 
ATOM     31  OBV A02 d          14.922  17.143   4.113  0.00  0.00    -0.346 OA
ATOM     32  CCN A02 d          15.980  16.809   3.167  0.00  0.00     0.140 C 
ATOM     33  CCL A02 d          15.252  16.478   1.850  0.00  0.00     0.105 C 
ATOM     34  H10 A02 d          16.630  17.683   3.016  0.00  0.00     0.123 H 
ATOM     35  CCK A02 d          14.043  17.395   1.909  0.00  0.00     0.098 C 
ATOM     36  H8  A02 d          14.962  15.418   1.797  0.00  0.00     0.093 H 
ATOM     37  H7  A02 d          13.236  17.071   1.236  0.00  0.00     0.091 H 
ATOM     38  H9  A02 d          13.131  18.198   3.714  0.00  0.00     0.102 H 
BRANCH  32  39
ATOM     39  N9  A02 d          16.844  15.659   3.674  0.00  0.00    -0.294 N 
ATOM     40  C4  A02 d          16.482  14.382   3.745  0.00  0.00     0.167 A 
ATOM     41  N3  A02 d          15.349  13.731   3.438  0.00  0.00    -0.222 NA
ATOM     42  C5  A02 d          17.558  13.677   4.270  0.00  0.00     0.149 A 
ATOM     43  C2  A02 d          15.257  12.420   3.617  0.00  0.00     0.091 A 
ATOM     44  N1  A02 d          16.282  11.713   4.112  0.00  0.00    -0.222 NA
ATOM     45  H1  A02 d          14.335  11.911   3.357  0.00  0.00     0.146 H 
ATOM     46  C6  A02 d          17.436  12.310   4.452  0.00  0.00     0.155 A 
ATOM     47  N7  A02 d          18.550  14.535   4.498  0.00  0.00    -0.236 NA
ATOM     48  C8  A02 d          18.108  15.740   4.120  0.00  0.00     0.071 A 
ATOM     49  H4  A02 d          18.691  16.658   4.167  0.00  0.00     0.144 H 
BRANCH  46  50
ATOM     50  N6  A02 d          18.447  11.611   4.955  0.00  0.00    -0.382 N 
ATOM     51  H2  A02 d          18.322  11.080   5.829  0.00  0.00     0.157 HD
ATOM     52  H3  A02 d          19.357  11.601   4.473  0.00  0.00     0.157 HD
ENDBRANCH  46  50
ENDBRANCH  32  39
BRANCH  33  53
ATOM     53  OAO A02 d          16.061  16.826   0.736  0.00  0.00    -0.388 OA
ATOM     54  H6  A02 d          16.390  17.710   0.849  0.00  0.00     0.210 HD
ENDBRANCH  33  53
BRANCH  35  55
ATOM     55  OAN A02 d          14.443  18.749   1.620  0.00  0.00    -0.390 OA
ATOM     56  H5  A02 d          15.290  18.919   2.017  0.00  0.00     0.210 HD
ENDBRANCH  35  55
ENDBRANCH  27  30
ENDBRANCH  23  26
ENDBRANCH  20  23
ENDBRANCH  17  20
ENDBRANCH  14  17
ENDBRANCH  11  14
ENDBRANCH   8  11
ENDBRANCH   5   7
BRANCH   5  57
ATOM     57  CBJ A02 d          13.112   7.703  10.666  0.00  0.00    -0.038 C 
ATOM     58  H24 A02 d          13.869   8.424  10.324  0.00  0.00     0.036 H 
ATOM     59  H25 A02 d          13.389   6.693  10.329  0.00  0.00     0.036 H 
BRANCH  57  60
ATOM     60  CAZ A02 d          13.112   7.707  12.198  0.00  0.00    -0.061 C 
ATOM     61  H26 A02 d          13.729   8.542  12.560  0.00  0.00     0.033 H 
ATOM     62  H27 A02 d          13.530   6.757  12.564  0.00  0.00     0.033 H 
BRANCH  60  63
ATOM     63  CAS A02 d          11.673   7.868  12.731  0.00  0.00    -0.043 C 
ATOM     64  H28 A02 d          11.033   8.257  11.924  0.00  0.00     0.035 H 
ATOM     65  H29 A02 d          11.678   8.580  13.570  0.00  0.00     0.035 H 
BRANCH  63  66
ATOM     66  CAR A02 d          11.107   6.525  13.217  0.00  0.00     0.080 C 
ATOM     67  H30 A02 d          11.435   6.345  14.251  0.00  0.00     0.075 H 
ATOM     68  H31 A02 d          11.477   5.718  12.568  0.00  0.00     0.075 H 
BRANCH  66  69
ATOM     69  NAC A02 d           9.633   6.553  13.169  0.00  0.00    -0.079 N 
ATOM     70  H32 A02 d           9.333   7.047  12.343  0.00  0.00     0.274 HD
ATOM     71  H33 A02 d           9.279   7.022  13.989  0.00  0.00     0.274 HD
ATOM     72  H34 A02 d           9.281   5.609  13.143  0.00  0.00     0.274 HD
ENDBRANCH  66  69
ENDBRANCH  63  66
ENDBRANCH  60  63
ENDBRANCH  57  60
ENDBRANCH   5  57
ENDBRANCH   1   5
BRANCH   3  73
ATOM     73  CBC A02 d          11.171   4.483   8.749  0.00  0.00    -0.005 C 
ATOM     74  H43 A02 d          11.032   3.777   9.582  0.00  0.00     0.064 H 
ATOM     75  H44 A02 d          10.199   4.693   8.280  0.00  0.00     0.064 H 
BRANCH  73  76
ATOM     76  CAV A02 d          12.108   3.858   7.710  0.00  0.00    -0.050 C 
ATOM     77  H41 A02 d          11.507   3.366   6.930  0.00  0.00     0.035 H 
ATOM     78  H42 A02 d          12.722   4.648   7.255  0.00  0.00     0.035 H 
BRANCH  76  79
ATOM     79  CAT A02 d          13.026   2.821   8.368  0.00  0.00    -0.063 C 
ATOM     80  H39 A02 d          12.500   2.372   9.222  0.00  0.00     0.033 H 
ATOM     81  H40 A02 d          13.266   2.039   7.632  0.00  0.00     0.033 H 
BRANCH  79  82
ATOM     82  CAY A02 d          14.332   3.450   8.865  0.00  0.00    -0.057 C 
ATOM     83  H37 A02 d          14.628   4.252   8.173  0.00  0.00     0.033 H 
ATOM     84  H38 A02 d          14.164   3.873   9.867  0.00  0.00     0.033 H 
BRANCH  82  85
ATOM     85  CBH A02 d          15.468   2.416   8.945  0.00  0.00     0.009 C 
ATOM     86  H35 A02 d          16.013   2.557   9.889  0.00  0.00     0.047 H 
ATOM     87  H36 A02 d          15.033   1.406   8.920  0.00  0.00     0.047 H 
BRANCH  85  88
ATOM     88  CCA A02 d          16.454   2.564   7.774  0.00  0.00     0.218 C 
ATOM     89  OAJ A02 d          16.607   1.651   6.956  0.00  0.00    -0.274 OA
ATOM     90  NBT A02 d          17.098   3.736   7.723  0.00  0.00    -0.348 N 
ATOM     91  H46 A02 d          16.900   4.420   8.426  0.00  0.00     0.163 HD
BRANCH  90  92
ATOM     92  CCJ A02 d          18.092   4.071   6.674  0.00  0.00     0.089 C 
ATOM     93  H47 A02 d          18.333   3.147   6.128  0.00  0.00     0.087 H 
BRANCH  92  94
ATOM     94  CBK A02 d          19.408   4.612   7.294  0.00  0.00    -0.036 C 
ATOM     95  H48 A02 d          19.288   4.637   8.387  0.00  0.00     0.036 H 
ATOM     96  H49 A02 d          19.571   5.633   6.920  0.00  0.00     0.036 H 
BRANCH  94  97
ATOM     97  CBB A02 d          20.658   3.776   6.967  0.00  0.00    -0.048 C 
ATOM     98  H50 A02 d          21.392   4.421   6.461  0.00  0.00     0.035 H 
ATOM     99  H51 A02 d          20.367   2.954   6.295  0.00  0.00     0.035 H 
BRANCH  97 100
ATOM    100  CBF A02 d          21.307   3.180   8.226  0.00  0.00     0.009 C 
ATOM    101  H52 A02 d          21.992   3.915   8.674  0.00  0.00     0.064 H 
ATOM    102  H53 A02 d          21.866   2.271   7.961  0.00  0.00     0.064 H 
BRANCH 100 103
ATOM    103  NBP A02 d          20.236   2.847   9.185  0.00  0.00    -0.227 N 
ATOM    104  CBX A02 d          20.059   1.631   9.720  0.00  0.00     0.665 C 
ATOM    105  NAB A02 d          20.858   0.604   9.438  0.00  0.00    -0.235 N 
ATOM    106  NAE A02 d          19.052   1.454  10.571  0.00  0.00    -0.235 N 
ATOM    107  H55 A02 d          20.688  -0.316   9.870  0.00  0.00     0.174 HD
ATOM    108  H56 A02 d          21.647   0.729   8.787  0.00  0.00     0.174 HD
ATOM    109  H57 A02 d          18.426   2.240  10.799  0.00  0.00     0.174 HD
ATOM    110  H58 A02 d          18.899   0.531  11.002  0.00  0.00     0.174 HD
ATOM    111  H54 A02 d          19.585   3.596   9.461  0.00  0.00     0.177 HD
ENDBRANCH 100 103
ENDBRANCH  97 100
ENDBRANCH  94  97
ENDBRANCH  92  94
BRANCH  92 112
ATOM    112  CCD A02 d          17.495   5.080   5.663  0.00  0.00     0.241 C 
ATOM    113  OAM A02 d          16.632   4.733   4.856  0.00  0.00    -0.271 OA
ATOM    114  N   A02 d          17.985   6.320   5.736  0.00  0.00    -0.346 N 
ATOM    115  H59 A02 d          18.686   6.513   6.422  0.00  0.00     0.163 HD
BRANCH 114 116
ATOM    116  CA  A02 d          17.544   7.423   4.854  0.00  0.00     0.089 C 
ATOM    117  H60 A02 d          16.818   7.024   4.131  0.00  0.00     0.087 H 
BRANCH 116 118
ATOM    118  CB  A02 d          18.748   7.984   4.087  0.00  0.00    -0.036 C 
ATOM    119  H61 A02 d          19.663   7.490   4.446  0.00  0.00     0.036 H 
ATOM    120  H62 A02 d          18.819   9.066   4.273  0.00  0.00     0.036 H 
BRANCH 118 121
ATOM    121  CG  A02 d          18.613   7.747   2.581  0.00  0.00    -0.048 C 
ATOM    122  H63 A02 d          18.661   6.666   2.383  0.00  0.00     0.035 H 
ATOM    123  H64 A02 d          19.441   8.252   2.063  0.00  0.00     0.035 H 
BRANCH 121 124
ATOM    124  CD  A02 d          17.290   8.291   2.051  0.00  0.00     0.009 C 
ATOM    125  H65 A02 d          16.483   8.080   2.768  0.00  0.00     0.064 H 
ATOM    126  H66 A02 d          17.053   7.824   1.083  0.00  0.00     0.064 H 
BRANCH 124 127
ATOM    127  NE  A02 d          17.444   9.733   1.885  0.00  0.00    -0.227 N 
ATOM    128  CZ  A02 d          16.971  10.443   0.862  0.00  0.00     0.665 C 
ATOM    129  NH1 A02 d          16.255   9.904  -0.124  0.00  0.00    -0.235 N 
ATOM    130  NH2 A02 d          17.225  11.744   0.866  0.00  0.00    -0.235 N 
ATOM    131  H68 A02 d          15.911  10.497  -0.894  0.00  0.00     0.174 HD
ATOM    132  H69 A02 d          16.044   8.896  -0.117  0.00  0.00     0.174 HD
ATOM    133  H70 A02 d          17.778  12.158   1.629  0.00  0.00     0.174 HD
ATOM    134  H71 A02 d          16.867  12.341   0.106  0.00  0.00     0.174 HD
ATOM    135  H67 A02 d          17.960  10.242   2.617  0.00  0.00     0.177 HD
ENDBRANCH 124 127
ENDBRANCH 121 124
ENDBRANCH 118 121
ENDBRANCH 116 118
BRANCH 116 136
ATOM    136  C   A02 d          16.861   8.553   5.658  0.00  0.00     0.238 C 
ATOM    137  O   A02 d          17.450   9.161   6.554  0.00  0.00    -0.271 OA
ATOM    138  NAF A02 d          15.610   8.823   5.289  0.00  0.00    -0.368 N 
ATOM    139  H72 A02 d          15.094   9.540   5.757  0.00  0.00     0.159 HD
ATOM    140  H73 A02 d          15.187   8.308   4.543  0.00  0.00     0.159 HD
ENDBRANCH 116 136
ENDBRANCH 114 116
ENDBRANCH  92 112
ENDBRANCH  90  92
ENDBRANCH  85  88
ENDBRANCH  82  85
ENDBRANCH  79  82
ENDBRANCH  76  79
ENDBRANCH  73  76
ENDBRANCH   3  73
TORSDOF 36
ENDMDL
MODEL 6
REMARK VINA RESULT:      -3.9      2.835      8.408
REMARK WARNING: 32 MAX_TORS EXCEEDED!!!
REMARK  36 active torsions:
REMARK  status: ('A' for Active; 'I' for Inactive)
REMARK    1  A    between atoms: C6_6  and  N6_7 
REMARK    2  A    between atoms: CCN_19  and  N9_10 
REMARK    3  A    between atoms: CCK_16  and  OAN_12 
REMARK    4  A    between atoms: CCL_17  and  OAO_13 
REMARK    5  A    between atoms: CCC_15  and  CCM_18 
REMARK       I    between atoms: NBR_27  and  CCC_15 
REMARK    6  A    between atoms: CBZ_20  and  CBG_22 
REMARK       I    between atoms: NBS_28  and  CBZ_20 
REMARK    7  A    between atoms: CBG_22  and  CAX_23 
REMARK    8  A    between atoms: CAX_23  and  CAU_24 
REMARK    9  A    between atoms: CAU_24  and  CAW_25 
REMARK   10  A    between atoms: CAW_25  and  CBD_26 
REMARK   11  A    between atoms: CBD_26  and  NBR_27 
REMARK   12  A    between atoms: CCI_29  and  NBS_28 
REMARK   13  A    between atoms: CCB_30  and  CCI_29 
REMARK   14  A    between atoms: CCI_29  and  CBJ_32 
REMARK       I    between atoms: NBQ_44  and  CCB_30 
REMARK   15  A    between atoms: CBJ_32  and  CAZ_33 
REMARK   16  A    between atoms: CAZ_33  and  CAS_34 
REMARK   17  A    between atoms: CAS_34  and  CAR_35 
REMARK   18  A    between atoms: CAR_35  and  NAC_36 
REMARK   19  A    between atoms: CBH_39  and  CCA_37 
REMARK       I    between atoms: CCA_37  and  NBT_45 
REMARK   20  A    between atoms: CAY_40  and  CBH_39 
REMARK   21  A    between atoms: CAT_41  and  CAY_40 
REMARK   22  A    between atoms: CAV_42  and  CAT_41 
REMARK   23  A    between atoms: CBC_43  and  CAV_42 
REMARK   24  A    between atoms: CBC_43  and  NBQ_44 
REMARK   25  A    between atoms: NBT_45  and  CCJ_46 
REMARK   26  A    between atoms: CCJ_46  and  CBK_47 
REMARK   27  A    between atoms: CCJ_46  and  CCD_54 
REMARK   28  A    between atoms: CBK_47  and  CBB_48 
REMARK   29  A    between atoms: CBB_48  and  CBF_49 
REMARK   30  A    between atoms: CBF_49  and  NBP_50 
REMARK       I    between atoms: NBP_50  and  CBX_51 
REMARK       I    between atoms: CBX_51  and  NAB_52 
REMARK       I    between atoms: CBX_51  and  NAE_53 
REMARK       I    between atoms: CCD_54  and  N_56 
REMARK   31  A    between atoms: N_56  and  CA_57 
REMARK   32  A    between atoms: CA_57  and  CB_58 
REMARK   33  A    between atoms: CA_57  and  C_65 
REMARK   34  A    between atoms: CB_58  and  CG_59 
REMARK   35  A    between atoms: CG_59  and  CD_60 
REMARK   36  A    between atoms: CD_60  and  NE_61 
REMARK       I    between atoms: NE_61  and  CZ_62 
REMARK       I    between atoms: CZ_62  and  NH1_63 
REMARK       I    between atoms: C_65  and  NAF_67 
ROOT
ATOM      1  CCB A02 d          17.705   5.500   5.442  0.00  0.00     0.240 C 
ATOM      2  OAK A02 d          18.782   4.946   5.619  0.00  0.00    -0.271 OA
ATOM      3  NBQ A02 d          17.443   6.294   4.405  0.00  0.00    -0.359 N 
ATOM      4  H45 A02 d          16.539   6.718   4.339  0.00  0.00     0.162 HD
ENDROOT
BRANCH   1   5
ATOM      5  CCI A02 d          16.556   5.332   6.467  0.00  0.00     0.089 C 
ATOM      6  H23 A02 d          15.713   4.872   5.931  0.00  0.00     0.087 H 
BRANCH   5   7
ATOM      7  NBS A02 d          16.095   6.656   6.959  0.00  0.00    -0.348 N 
ATOM      8  CBZ A02 d          16.876   7.439   7.720  0.00  0.00     0.218 C 
ATOM      9  OAI A02 d          18.005   7.122   8.115  0.00  0.00    -0.274 OA
ATOM     10  H22 A02 d          15.179   6.973   6.716  0.00  0.00     0.163 HD
BRANCH   8  11
ATOM     11  CBG A02 d          16.245   8.783   8.137  0.00  0.00     0.009 C 
ATOM     12  H11 A02 d          17.015   9.567   8.090  0.00  0.00     0.047 H 
ATOM     13  H12 A02 d          15.872   8.696   9.168  0.00  0.00     0.047 H 
BRANCH  11  14
ATOM     14  CAX A02 d          15.075   9.179   7.215  0.00  0.00    -0.057 C 
ATOM     15  H13 A02 d          14.260   8.448   7.337  0.00  0.00     0.033 H 
ATOM     16  H14 A02 d          15.422   9.170   6.171  0.00  0.00     0.033 H 
BRANCH  14  17
ATOM     17  CAU A02 d          14.547  10.577   7.556  0.00  0.00    -0.063 C 
ATOM     18  H15 A02 d          14.570  11.192   6.644  0.00  0.00     0.033 H 
ATOM     19  H16 A02 d          15.204  11.025   8.316  0.00  0.00     0.033 H 
BRANCH  17  20
ATOM     20  CAW A02 d          13.115  10.558   8.097  0.00  0.00    -0.050 C 
ATOM     21  H17 A02 d          12.434  10.133   7.344  0.00  0.00     0.035 H 
ATOM     22  H18 A02 d          12.794  11.580   8.346  0.00  0.00     0.035 H 
BRANCH  20  23
ATOM     23  CBD A02 d          13.110   9.687   9.356  0.00  0.00    -0.005 C 
ATOM     24  H19 A02 d          12.798  10.306  10.210  0.00  0.00     0.064 H 
ATOM     25  H20 A02 d          14.129   9.311   9.527  0.00  0.00     0.064 H 
BRANCH  23  26
ATOM     26  NBR A02 d          12.195   8.537   9.247  0.00  0.00    -0.359 N 
ATOM     27  CCC A02 d          12.546   7.270   9.473  0.00  0.00     0.249 C 
ATOM     28  OAL A02 d          13.699   6.899   9.736  0.00  0.00    -0.271 OA
ATOM     29  H21 A02 d          11.247   8.719   8.986  0.00  0.00     0.162 HD
BRANCH  27  30
ATOM     30  CCM A02 d          11.418   6.224   9.396  0.00  0.00     0.144 C 
ATOM     31  OBV A02 d          11.912   4.879   9.711  0.00  0.00    -0.346 OA
ATOM     32  CCN A02 d          11.490   4.520  11.059  0.00  0.00     0.140 C 
ATOM     33  CCL A02 d          10.946   5.826  11.670  0.00  0.00     0.105 C 
ATOM     34  H10 A02 d          10.681   3.777  11.007  0.00  0.00     0.123 H 
ATOM     35  CCK A02 d          10.365   6.533  10.460  0.00  0.00     0.098 C 
ATOM     36  H8  A02 d          11.742   6.415  12.150  0.00  0.00     0.093 H 
ATOM     37  H7  A02 d          10.235   7.613  10.626  0.00  0.00     0.091 H 
ATOM     38  H9  A02 d          10.971   6.240   8.391  0.00  0.00     0.102 H 
BRANCH  32  39
ATOM     39  N9  A02 d          12.635   3.917  11.865  0.00  0.00    -0.294 N 
ATOM     40  C4  A02 d          12.531   3.330  13.053  0.00  0.00     0.167 A 
ATOM     41  N3  A02 d          11.494   3.096  13.872  0.00  0.00    -0.222 NA
ATOM     42  C5  A02 d          13.807   2.935  13.432  0.00  0.00     0.149 A 
ATOM     43  C2  A02 d          11.678   2.476  15.030  0.00  0.00     0.091 A 
ATOM     44  N1  A02 d          12.897   2.076  15.418  0.00  0.00    -0.222 NA
ATOM     45  H1  A02 d          10.827   2.290  15.676  0.00  0.00     0.146 H 
ATOM     46  C6  A02 d          13.975   2.295  14.648  0.00  0.00     0.155 A 
ATOM     47  N7  A02 d          14.657   3.282  12.467  0.00  0.00    -0.236 NA
ATOM     48  C8  A02 d          13.930   3.870  11.510  0.00  0.00     0.071 A 
ATOM     49  H4  A02 d          14.331   4.257  10.575  0.00  0.00     0.144 H 
BRANCH  46  50
ATOM     50  N6  A02 d          15.186   1.909  15.037  0.00  0.00    -0.382 N 
ATOM     51  H2  A02 d          15.547   2.199  15.957  0.00  0.00     0.157 HD
ATOM     52  H3  A02 d          15.764   1.322  14.419  0.00  0.00     0.157 HD
ENDBRANCH  46  50
ENDBRANCH  32  39
BRANCH  33  53
ATOM     53  OAO A02 d           9.911   5.543  12.601  0.00  0.00    -0.388 OA
ATOM     54  H6  A02 d           9.640   4.638  12.506  0.00  0.00     0.210 HD
ENDBRANCH  33  53
BRANCH  35  55
ATOM     55  OAN A02 d           9.118   5.915  10.086  0.00  0.00    -0.390 OA
ATOM     56  H5  A02 d           9.247   4.979   9.991  0.00  0.00     0.210 HD
ENDBRANCH  35  55
ENDBRANCH  27  30
ENDBRANCH  23  26
ENDBRANCH  20  23
ENDBRANCH  17  20
ENDBRANCH  14  17
ENDBRANCH  11  14
ENDBRANCH   8  11
ENDBRANCH   5   7
BRANCH   5  57
ATOM     57  CBJ A02 d          16.917   4.382   7.631  0.00  0.00    -0.038 C 
ATOM     58  H24 A02 d          16.008   3.830   7.913  0.00  0.00     0.036 H 
ATOM     59  H25 A02 d          17.251   4.997   8.480  0.00  0.00     0.036 H 
BRANCH  57  60
ATOM     60  CAZ A02 d          18.016   3.360   7.325  0.00  0.00    -0.061 C 
ATOM     61  H26 A02 d          18.874   3.874   6.867  0.00  0.00     0.033 H 
ATOM     62  H27 A02 d          17.626   2.604   6.628  0.00  0.00     0.033 H 
BRANCH  60  63
ATOM     63  CAS A02 d          18.475   2.665   8.625  0.00  0.00    -0.043 C 
ATOM     64  H28 A02 d          18.266   1.587   8.549  0.00  0.00     0.035 H 
ATOM     65  H29 A02 d          17.917   3.088   9.474  0.00  0.00     0.035 H 
BRANCH  63  66
ATOM     66  CAR A02 d          19.979   2.868   8.862  0.00  0.00     0.080 C 
ATOM     67  H30 A02 d          20.540   2.463   8.007  0.00  0.00     0.075 H 
ATOM     68  H31 A02 d          20.278   2.341   9.781  0.00  0.00     0.075 H 
BRANCH  66  69
ATOM     69  NAC A02 d          20.277   4.305   9.005  0.00  0.00    -0.079 N 
ATOM     70  H32 A02 d          21.202   4.493   8.651  0.00  0.00     0.274 HD
ATOM     71  H33 A02 d          20.231   4.562   9.979  0.00  0.00     0.274 HD
ATOM     72  H34 A02 d          19.601   4.842   8.484  0.00  0.00     0.274 HD
ENDBRANCH  66  69
ENDBRANCH  63  66
ENDBRANCH  60  63
ENDBRANCH  57  60
ENDBRANCH   5  57
ENDBRANCH   1   5
BRANCH   3  73
ATOM     73  CBC A02 d          18.439   6.574   3.346  0.00  0.00    -0.005 C 
ATOM     74  H43 A02 d          18.995   7.487   3.604  0.00  0.00     0.064 H 
ATOM     75  H44 A02 d          19.137   5.727   3.274  0.00  0.00     0.064 H 
BRANCH  73  76
ATOM     76  CAV A02 d          17.745   6.772   1.993  0.00  0.00    -0.050 C 
ATOM     77  H41 A02 d          17.208   7.732   1.999  0.00  0.00     0.035 H 
ATOM     78  H42 A02 d          18.503   6.781   1.197  0.00  0.00     0.035 H 
BRANCH  76  79
ATOM     79  CAT A02 d          16.748   5.637   1.729  0.00  0.00    -0.063 C 
ATOM     80  H39 A02 d          17.180   4.951   0.987  0.00  0.00     0.033 H 
ATOM     81  H40 A02 d          16.569   5.094   2.670  0.00  0.00     0.033 H 
BRANCH  79  82
ATOM     82  CAY A02 d          15.411   6.164   1.199  0.00  0.00    -0.057 C 
ATOM     83  H37 A02 d          15.482   7.256   1.077  0.00  0.00     0.033 H 
ATOM     84  H38 A02 d          15.206   5.698   0.225  0.00  0.00     0.033 H 
BRANCH  82  85
ATOM     85  CBH A02 d          14.252   5.845   2.159  0.00  0.00     0.009 C 
ATOM     86  H35 A02 d          13.342   5.661   1.570  0.00  0.00     0.047 H 
ATOM     87  H36 A02 d          14.505   4.941   2.734  0.00  0.00     0.047 H 
BRANCH  85  88
ATOM     88  CCA A02 d          13.988   7.002   3.137  0.00  0.00     0.218 C 
ATOM     89  OAJ A02 d          14.557   7.047   4.232  0.00  0.00    -0.274 OA
ATOM     90  NBT A02 d          13.123   7.924   2.698  0.00  0.00    -0.348 N 
ATOM     91  H46 A02 d          12.720   7.806   1.790  0.00  0.00     0.163 HD
BRANCH  90  92
ATOM     92  CCJ A02 d          12.732   9.113   3.495  0.00  0.00     0.089 C 
ATOM     93  H47 A02 d          12.954   8.902   4.550  0.00  0.00     0.087 H 
BRANCH  92  94
ATOM     94  CBK A02 d          11.210   9.397   3.378  0.00  0.00    -0.036 C 
ATOM     95  H48 A02 d          11.059  10.486   3.419  0.00  0.00     0.036 H 
ATOM     96  H49 A02 d          10.706   8.924   4.232  0.00  0.00     0.036 H 
BRANCH  94  97
ATOM     97  CBB A02 d          10.562   8.872   2.085  0.00  0.00    -0.048 C 
ATOM     98  H50 A02 d          11.328   8.351   1.492  0.00  0.00     0.035 H 
ATOM     99  H51 A02 d          10.173   9.726   1.512  0.00  0.00     0.035 H 
BRANCH  97 100
ATOM    100  CBF A02 d           9.407   7.897   2.367  0.00  0.00     0.009 C 
ATOM    101  H52 A02 d           8.532   8.454   2.733  0.00  0.00     0.064 H 
ATOM    102  H53 A02 d           9.717   7.162   3.124  0.00  0.00     0.064 H 
BRANCH 100 103
ATOM    103  NBP A02 d           9.068   7.206   1.108  0.00  0.00    -0.227 N 
ATOM    104  CBX A02 d           9.515   5.987   0.777  0.00  0.00     0.665 C 
ATOM    105  NAB A02 d          10.307   5.276   1.578  0.00  0.00    -0.235 N 
ATOM    106  NAE A02 d           9.142   5.471  -0.390  0.00  0.00    -0.235 N 
ATOM    107  H55 A02 d          10.630   4.342   1.286  0.00  0.00     0.174 HD
ATOM    108  H56 A02 d          10.597   5.660   2.488  0.00  0.00     0.174 HD
ATOM    109  H57 A02 d           8.529   6.009  -1.020  0.00  0.00     0.174 HD
ATOM    110  H58 A02 d           9.465   4.532  -0.665  0.00  0.00     0.174 HD
ATOM    111  H54 A02 d           8.448   7.690   0.443  0.00  0.00     0.177 HD
ENDBRANCH 100 103
ENDBRANCH  97 100
ENDBRANCH  94  97
ENDBRANCH  92  94
BRANCH  92 112
ATOM    112  CCD A02 d          13.565  10.347   3.070  0.00  0.00     0.241 C 
ATOM    113  OAM A02 d          13.770  10.594   1.881  0.00  0.00    -0.271 OA
ATOM    114  N   A02 d          14.031  11.095   4.072  0.00  0.00    -0.346 N 
ATOM    115  H59 A02 d          13.816  10.819   5.010  0.00  0.00     0.163 HD
BRANCH 114 116
ATOM    116  CA  A02 d          14.849  12.312   3.870  0.00  0.00     0.089 C 
ATOM    117  H60 A02 d          15.258  12.291   2.849  0.00  0.00     0.087 H 
BRANCH 116 118
ATOM    118  CB  A02 d          16.013  12.324   4.869  0.00  0.00    -0.036 C 
ATOM    119  H61 A02 d          16.106  11.325   5.322  0.00  0.00     0.036 H 
ATOM    120  H62 A02 d          15.803  13.064   5.654  0.00  0.00     0.036 H 
BRANCH 118 121
ATOM    121  CG  A02 d          17.334  12.684   4.185  0.00  0.00    -0.048 C 
ATOM    122  H63 A02 d          17.895  13.375   4.832  0.00  0.00     0.035 H 
ATOM    123  H64 A02 d          17.118  13.175   3.225  0.00  0.00     0.035 H 
BRANCH 121 124
ATOM    124  CD  A02 d          18.182  11.443   3.929  0.00  0.00     0.009 C 
ATOM    125  H65 A02 d          18.459  11.390   2.866  0.00  0.00     0.064 H 
ATOM    126  H66 A02 d          17.619  10.539   4.207  0.00  0.00     0.064 H 
BRANCH 124 127
ATOM    127  NE  A02 d          19.382  11.555   4.752  0.00  0.00    -0.227 N 
ATOM    128  CZ  A02 d          20.463  10.785   4.642  0.00  0.00     0.665 C 
ATOM    129  NH1 A02 d          20.583   9.831   3.718  0.00  0.00    -0.235 N 
ATOM    130  NH2 A02 d          21.455  11.017   5.490  0.00  0.00    -0.235 N 
ATOM    131  H68 A02 d          21.441   9.262   3.674  0.00  0.00     0.174 HD
ATOM    132  H69 A02 d          19.818   9.663   3.049  0.00  0.00     0.174 HD
ATOM    133  H70 A02 d          21.361  11.755   6.203  0.00  0.00     0.174 HD
ATOM    134  H71 A02 d          22.320  10.461   5.436  0.00  0.00     0.174 HD
ATOM    135  H67 A02 d          19.394  12.288   5.476  0.00  0.00     0.177 HD
ENDBRANCH 124 127
ENDBRANCH 121 124
ENDBRANCH 118 121
ENDBRANCH 116 118
BRANCH 116 136
ATOM    136  C   A02 d          14.004  13.596   4.032  0.00  0.00     0.238 C 
ATOM    137  O   A02 d          13.739  14.063   5.142  0.00  0.00    -0.271 OA
ATOM    138  NAF A02 d          13.615  14.156   2.889  0.00  0.00    -0.368 N 
ATOM    139  H72 A02 d          13.064  14.991   2.902  0.00  0.00     0.159 HD
ATOM    140  H73 A02 d          13.873  13.742   2.015  0.00  0.00     0.159 HD
ENDBRANCH 116 136
ENDBRANCH 114 116
ENDBRANCH  92 112
ENDBRANCH  90  92
ENDBRANCH  85  88
ENDBRANCH  82  85
ENDBRANCH  79  82
ENDBRANCH  76  79
ENDBRANCH  73  76
ENDBRANCH   3  73
TORSDOF 36
ENDMDL
MODEL 7
REMARK VINA RESULT:      -3.9      3.419      9.146
REMARK WARNING: 32 MAX_TORS EXCEEDED!!!
REMARK  36 active torsions:
REMARK  status: ('A' for Active; 'I' for Inactive)
REMARK    1  A    between atoms: C6_6  and  N6_7 
REMARK    2  A    between atoms: CCN_19  and  N9_10 
REMARK    3  A    between atoms: CCK_16  and  OAN_12 
REMARK    4  A    between atoms: CCL_17  and  OAO_13 
REMARK    5  A    between atoms: CCC_15  and  CCM_18 
REMARK       I    between atoms: NBR_27  and  CCC_15 
REMARK    6  A    between atoms: CBZ_20  and  CBG_22 
REMARK       I    between atoms: NBS_28  and  CBZ_20 
REMARK    7  A    between atoms: CBG_22  and  CAX_23 
REMARK    8  A    between atoms: CAX_23  and  CAU_24 
REMARK    9  A    between atoms: CAU_24  and  CAW_25 
REMARK   10  A    between atoms: CAW_25  and  CBD_26 
REMARK   11  A    between atoms: CBD_26  and  NBR_27 
REMARK   12  A    between atoms: CCI_29  and  NBS_28 
REMARK   13  A    between atoms: CCB_30  and  CCI_29 
REMARK   14  A    between atoms: CCI_29  and  CBJ_32 
REMARK       I    between atoms: NBQ_44  and  CCB_30 
REMARK   15  A    between atoms: CBJ_32  and  CAZ_33 
REMARK   16  A    between atoms: CAZ_33  and  CAS_34 
REMARK   17  A    between atoms: CAS_34  and  CAR_35 
REMARK   18  A    between atoms: CAR_35  and  NAC_36 
REMARK   19  A    between atoms: CBH_39  and  CCA_37 
REMARK       I    between atoms: CCA_37  and  NBT_45 
REMARK   20  A    between atoms: CAY_40  and  CBH_39 
REMARK   21  A    between atoms: CAT_41  and  CAY_40 
REMARK   22  A    between atoms: CAV_42  and  CAT_41 
REMARK   23  A    between atoms: CBC_43  and  CAV_42 
REMARK   24  A    between atoms: CBC_43  and  NBQ_44 
REMARK   25  A    between atoms: NBT_45  and  CCJ_46 
REMARK   26  A    between atoms: CCJ_46  and  CBK_47 
REMARK   27  A    between atoms: CCJ_46  and  CCD_54 
REMARK   28  A    between atoms: CBK_47  and  CBB_48 
REMARK   29  A    between atoms: CBB_48  and  CBF_49 
REMARK   30  A    between atoms: CBF_49  and  NBP_50 
REMARK       I    between atoms: NBP_50  and  CBX_51 
REMARK       I    between atoms: CBX_51  and  NAB_52 
REMARK       I    between atoms: CBX_51  and  NAE_53 
REMARK       I    between atoms: CCD_54  and  N_56 
REMARK   31  A    between atoms: N_56  and  CA_57 
REMARK   32  A    between atoms: CA_57  and  CB_58 
REMARK   33  A    between atoms: CA_57  and  C_65 
REMARK   34  A    between atoms: CB_58  and  CG_59 
REMARK   35  A    between atoms: CG_59  and  CD_60 
REMARK   36  A    between atoms: CD_60  and  NE_61 
REMARK       I    between atoms: NE_61  and  CZ_62 
REMARK       I    between atoms: CZ_62  and  NH1_63 
REMARK       I    between atoms: C_65  and  NAF_67 
ROOT
ATOM      1  CCB A02 d          12.489  13.157   2.358  0.00  0.00     0.240 C 
ATOM      2  OAK A02 d          11.673  12.437   1.797  0.00  0.00    -0.271 OA
ATOM      3  NBQ A02 d          13.171  12.796   3.444  0.00  0.00    -0.359 N 
ATOM      4  H45 A02 d          13.813  13.449   3.849  0.00  0.00     0.162 HD
ENDROOT
BRANCH   1   5
ATOM      5  CCI A02 d          12.759  14.591   1.841  0.00  0.00     0.089 C 
ATOM      6  H23 A02 d          13.460  14.501   0.998  0.00  0.00     0.087 H 
BRANCH   5   7
ATOM      7  NBS A02 d          13.429  15.407   2.886  0.00  0.00    -0.348 N 
ATOM      8  CBZ A02 d          14.363  16.322   2.579  0.00  0.00     0.218 C 
ATOM      9  OAI A02 d          14.780  16.533   1.434  0.00  0.00    -0.274 OA
ATOM     10  H22 A02 d          13.177  15.273   3.844  0.00  0.00     0.163 HD
BRANCH   8  11
ATOM     11  CBG A02 d          14.950  17.086   3.783  0.00  0.00     0.009 C 
ATOM     12  H11 A02 d          14.686  16.551   4.707  0.00  0.00     0.047 H 
ATOM     13  H12 A02 d          14.517  18.097   3.808  0.00  0.00     0.047 H 
BRANCH  11  14
ATOM     14  CAX A02 d          16.485  17.202   3.697  0.00  0.00    -0.057 C 
ATOM     15  H13 A02 d          16.752  18.243   3.459  0.00  0.00     0.033 H 
ATOM     16  H14 A02 d          16.851  16.538   2.900  0.00  0.00     0.033 H 
BRANCH  14  17
ATOM     17  CAU A02 d          17.148  16.806   5.021  0.00  0.00    -0.063 C 
ATOM     18  H15 A02 d          16.410  16.269   5.636  0.00  0.00     0.033 H 
ATOM     19  H16 A02 d          17.463  17.722   5.543  0.00  0.00     0.033 H 
BRANCH  17  20
ATOM     20  CAW A02 d          18.371  15.906   4.829  0.00  0.00    -0.050 C 
ATOM     21  H17 A02 d          19.232  16.320   5.376  0.00  0.00     0.035 H 
ATOM     22  H18 A02 d          18.619  15.832   3.759  0.00  0.00     0.035 H 
BRANCH  20  23
ATOM     23  CBD A02 d          18.018  14.524   5.380  0.00  0.00    -0.005 C 
ATOM     24  H19 A02 d          16.991  14.554   5.775  0.00  0.00     0.064 H 
ATOM     25  H20 A02 d          18.716  14.280   6.194  0.00  0.00     0.064 H 
BRANCH  23  26
ATOM     26  NBR A02 d          18.098  13.466   4.357  0.00  0.00    -0.359 N 
ATOM     27  CCC A02 d          17.090  13.109   3.562  0.00  0.00     0.249 C 
ATOM     28  OAL A02 d          15.943  13.574   3.631  0.00  0.00    -0.271 OA
ATOM     29  H21 A02 d          18.968  12.985   4.252  0.00  0.00     0.162 HD
BRANCH  27  30
ATOM     30  CCM A02 d          17.405  12.044   2.494  0.00  0.00     0.144 C 
ATOM     31  OBV A02 d          18.568  11.233   2.872  0.00  0.00    -0.346 OA
ATOM     32  CCN A02 d          18.109   9.930   3.336  0.00  0.00     0.140 C 
ATOM     33  CCL A02 d          16.582  10.073   3.491  0.00  0.00     0.105 C 
ATOM     34  H10 A02 d          18.328   9.168   2.574  0.00  0.00     0.123 H 
ATOM     35  CCK A02 d          16.237  11.063   2.394  0.00  0.00     0.098 C 
ATOM     36  H8  A02 d          16.306  10.449   4.487  0.00  0.00     0.093 H 
ATOM     37  H7  A02 d          15.262  11.547   2.555  0.00  0.00     0.091 H 
ATOM     38  H9  A02 d          17.583  12.536   1.526  0.00  0.00     0.102 H 
BRANCH  32  39
ATOM     39  N9  A02 d          18.802   9.517   4.630  0.00  0.00    -0.294 N 
ATOM     40  C4  A02 d          18.518   8.443   5.361  0.00  0.00     0.167 A 
ATOM     41  N3  A02 d          17.614   7.460   5.233  0.00  0.00    -0.222 NA
ATOM     42  C5  A02 d          19.374   8.451   6.455  0.00  0.00     0.149 A 
ATOM     43  C2  A02 d          17.545   6.488   6.134  0.00  0.00     0.091 A 
ATOM     44  N1  A02 d          18.364   6.465   7.194  0.00  0.00    -0.222 NA
ATOM     45  H1  A02 d          16.812   5.699   6.010  0.00  0.00     0.146 H 
ATOM     46  C6  A02 d          19.279   7.429   7.384  0.00  0.00     0.155 A 
ATOM     47  N7  A02 d          20.162   9.520   6.362  0.00  0.00    -0.236 NA
ATOM     48  C8  A02 d          19.813  10.157   5.239  0.00  0.00     0.071 A 
ATOM     49  H4  A02 d          20.282  11.068   4.870  0.00  0.00     0.144 H 
BRANCH  46  50
ATOM     50  N6  A02 d          20.083   7.413   8.442  0.00  0.00    -0.382 N 
ATOM     51  H2  A02 d          20.552   8.278   8.745  0.00  0.00     0.157 HD
ATOM     52  H3  A02 d          20.237   6.536   8.959  0.00  0.00     0.157 HD
ENDBRANCH  46  50
ENDBRANCH  32  39
BRANCH  33  53
ATOM     53  OAO A02 d          15.940   8.833   3.235  0.00  0.00    -0.388 OA
ATOM     54  H6  A02 d          15.166   8.981   2.704  0.00  0.00     0.210 HD
ENDBRANCH  33  53
BRANCH  35  55
ATOM     55  OAN A02 d          16.279  10.405   1.113  0.00  0.00    -0.390 OA
ATOM     56  H5  A02 d          16.675   9.547   1.212  0.00  0.00     0.210 HD
ENDBRANCH  35  55
ENDBRANCH  27  30
ENDBRANCH  23  26
ENDBRANCH  20  23
ENDBRANCH  17  20
ENDBRANCH  14  17
ENDBRANCH  11  14
ENDBRANCH   8  11
ENDBRANCH   5   7
BRANCH   5  57
ATOM     57  CBJ A02 d          11.492  15.287   1.295  0.00  0.00    -0.038 C 
ATOM     58  H24 A02 d          10.740  14.511   1.090  0.00  0.00     0.036 H 
ATOM     59  H25 A02 d          11.761  15.793   0.356  0.00  0.00     0.036 H 
BRANCH  57  60
ATOM     60  CAZ A02 d          10.861  16.325   2.228  0.00  0.00    -0.061 C 
ATOM     61  H26 A02 d          10.394  17.119   1.626  0.00  0.00     0.033 H 
ATOM     62  H27 A02 d          11.642  16.761   2.867  0.00  0.00     0.033 H 
BRANCH  60  63
ATOM     63  CAS A02 d           9.788  15.660   3.116  0.00  0.00    -0.043 C 
ATOM     64  H28 A02 d          10.192  14.723   3.527  0.00  0.00     0.035 H 
ATOM     65  H29 A02 d           8.900  15.441   2.504  0.00  0.00     0.035 H 
BRANCH  63  66
ATOM     66  CAR A02 d           9.381  16.581   4.277  0.00  0.00     0.080 C 
ATOM     67  H30 A02 d          10.136  16.517   5.075  0.00  0.00     0.075 H 
ATOM     68  H31 A02 d           8.404  16.262   4.670  0.00  0.00     0.075 H 
BRANCH  66  69
ATOM     69  NAC A02 d           9.285  17.974   3.806  0.00  0.00    -0.079 N 
ATOM     70  H32 A02 d           8.487  18.069   3.198  0.00  0.00     0.274 HD
ATOM     71  H33 A02 d          10.124  18.216   3.300  0.00  0.00     0.274 HD
ATOM     72  H34 A02 d           9.182  18.590   4.597  0.00  0.00     0.274 HD
ENDBRANCH  66  69
ENDBRANCH  63  66
ENDBRANCH  60  63
ENDBRANCH  57  60
ENDBRANCH   5  57
ENDBRANCH   1   5
BRANCH   3  73
ATOM     73  CBC A02 d          13.016  11.466   4.075  0.00  0.00    -0.005 C 
ATOM     74  H43 A02 d          12.466  10.803   3.391  0.00  0.00     0.064 H 
ATOM     75  H44 A02 d          14.011  11.042   4.275  0.00  0.00     0.064 H 
BRANCH  73  76
ATOM     76  CAV A02 d          12.244  11.582   5.394  0.00  0.00    -0.050 C 
ATOM     77  H41 A02 d          12.242  12.633   5.721  0.00  0.00     0.035 H 
ATOM     78  H42 A02 d          11.208  11.246   5.238  0.00  0.00     0.035 H 
BRANCH  76  79
ATOM     79  CAT A02 d          12.898  10.718   6.478  0.00  0.00    -0.063 C 
ATOM     80  H39 A02 d          13.568  11.349   7.080  0.00  0.00     0.033 H 
ATOM     81  H40 A02 d          12.110  10.300   7.124  0.00  0.00     0.033 H 
BRANCH  79  82
ATOM     82  CAY A02 d          13.709   9.566   5.877  0.00  0.00    -0.057 C 
ATOM     83  H37 A02 d          13.021   8.752   5.601  0.00  0.00     0.033 H 
ATOM     84  H38 A02 d          14.229   9.928   4.978  0.00  0.00     0.033 H 
BRANCH  82  85
ATOM     85  CBH A02 d          14.749   9.022   6.871  0.00  0.00     0.009 C 
ATOM     86  H35 A02 d          15.713   8.915   6.353  0.00  0.00     0.047 H 
ATOM     87  H36 A02 d          14.856   9.736   7.701  0.00  0.00     0.047 H 
BRANCH  85  88
ATOM     88  CCA A02 d          14.333   7.655   7.439  0.00  0.00     0.218 C 
ATOM     89  OAJ A02 d          13.545   6.928   6.826  0.00  0.00    -0.274 OA
ATOM     90  NBT A02 d          14.895   7.337   8.612  0.00  0.00    -0.348 N 
ATOM     91  H46 A02 d          15.531   7.987   9.027  0.00  0.00     0.163 HD
BRANCH  90  92
ATOM     92  CCJ A02 d          14.619   6.066   9.325  0.00  0.00     0.089 C 
ATOM     93  H47 A02 d          15.261   6.031  10.216  0.00  0.00     0.087 H 
BRANCH  92  94
ATOM     94  CBK A02 d          14.963   4.836   8.443  0.00  0.00    -0.036 C 
ATOM     95  H48 A02 d          15.682   5.155   7.674  0.00  0.00     0.036 H 
ATOM     96  H49 A02 d          14.039   4.490   7.960  0.00  0.00     0.036 H 
BRANCH  94  97
ATOM     97  CBB A02 d          15.576   3.653   9.212  0.00  0.00    -0.048 C 
ATOM     98  H50 A02 d          14.762   3.028   9.607  0.00  0.00     0.035 H 
ATOM     99  H51 A02 d          16.175   4.046  10.047  0.00  0.00     0.035 H 
BRANCH  97 100
ATOM    100  CBF A02 d          16.479   2.784   8.322  0.00  0.00     0.009 C 
ATOM    101  H52 A02 d          15.980   2.594   7.360  0.00  0.00     0.064 H 
ATOM    102  H53 A02 d          16.685   1.827   8.823  0.00  0.00     0.064 H 
BRANCH 100 103
ATOM    103  NBP A02 d          17.742   3.511   8.094  0.00  0.00    -0.227 N 
ATOM    104  CBX A02 d          18.882   3.259   8.751  0.00  0.00     0.665 C 
ATOM    105  NAB A02 d          18.978   2.302   9.673  0.00  0.00    -0.235 N 
ATOM    106  NAE A02 d          19.956   3.987   8.460  0.00  0.00    -0.235 N 
ATOM    107  H55 A02 d          19.874   2.139  10.156  0.00  0.00     0.174 HD
ATOM    108  H56 A02 d          18.157   1.724   9.903  0.00  0.00     0.174 HD
ATOM    109  H57 A02 d          19.897   4.731   7.749  0.00  0.00     0.174 HD
ATOM    110  H58 A02 d          20.847   3.808   8.945  0.00  0.00     0.174 HD
ATOM    111  H54 A02 d          17.748   4.258   7.386  0.00  0.00     0.177 HD
ENDBRANCH 100 103
ENDBRANCH  97 100
ENDBRANCH  94  97
ENDBRANCH  92  94
BRANCH  92 112
ATOM    112  CCD A02 d          13.145   6.019   9.798  0.00  0.00     0.241 C 
ATOM    113  OAM A02 d          12.408   5.085   9.483  0.00  0.00    -0.271 OA
ATOM    114  N   A02 d          12.753   7.050  10.550  0.00  0.00    -0.346 N 
ATOM    115  H59 A02 d          13.419   7.767  10.756  0.00  0.00     0.163 HD
BRANCH 114 116
ATOM    116  CA  A02 d          11.383   7.187  11.094  0.00  0.00     0.089 C 
ATOM    117  H60 A02 d          10.911   6.194  11.105  0.00  0.00     0.087 H 
BRANCH 116 118
ATOM    118  CB  A02 d          10.560   8.116  10.192  0.00  0.00    -0.036 C 
ATOM    119  H61 A02 d          11.198   8.475   9.371  0.00  0.00     0.036 H 
ATOM    120  H62 A02 d          10.210   8.974  10.786  0.00  0.00     0.036 H 
BRANCH 118 121
ATOM    121  CG  A02 d           9.348   7.393   9.601  0.00  0.00    -0.048 C 
ATOM    122  H63 A02 d           8.917   6.732  10.368  0.00  0.00     0.035 H 
ATOM    123  H64 A02 d           9.674   6.792   8.740  0.00  0.00     0.035 H 
BRANCH 121 124
ATOM    124  CD  A02 d           8.282   8.383   9.142  0.00  0.00     0.009 C 
ATOM    125  H65 A02 d           8.357   9.312   9.725  0.00  0.00     0.064 H 
ATOM    126  H66 A02 d           7.281   7.945   9.274  0.00  0.00     0.064 H 
BRANCH 124 127
ATOM    127  NE  A02 d           8.522   8.660   7.729  0.00  0.00    -0.227 N 
ATOM    128  CZ  A02 d           9.031   9.792   7.245  0.00  0.00     0.665 C 
ATOM    129  NH1 A02 d           9.421  10.803   8.022  0.00  0.00    -0.235 N 
ATOM    130  NH2 A02 d           9.161   9.877   5.928  0.00  0.00    -0.235 N 
ATOM    131  H68 A02 d           9.808  11.658   7.598  0.00  0.00     0.174 HD
ATOM    132  H69 A02 d           9.334  10.729   9.046  0.00  0.00     0.174 HD
ATOM    133  H70 A02 d           8.859   9.095   5.330  0.00  0.00     0.174 HD
ATOM    134  H71 A02 d           9.564  10.725   5.504  0.00  0.00     0.174 HD
ATOM    135  H67 A02 d           8.280   7.922   7.052  0.00  0.00     0.177 HD
ENDBRANCH 124 127
ENDBRANCH 121 124
ENDBRANCH 118 121
ENDBRANCH 116 118
BRANCH 116 136
ATOM    136  C   A02 d          11.400   7.737  12.539  0.00  0.00     0.238 C 
ATOM    137  O   A02 d          11.283   6.996  13.517  0.00  0.00    -0.271 OA
ATOM    138  NAF A02 d          11.572   9.054  12.632  0.00  0.00    -0.368 N 
ATOM    139  H72 A02 d          11.595   9.493  13.530  0.00  0.00     0.159 HD
ATOM    140  H73 A02 d          11.677   9.605  11.803  0.00  0.00     0.159 HD
ENDBRANCH 116 136
ENDBRANCH 114 116
ENDBRANCH  92 112
ENDBRANCH  90  92
ENDBRANCH  85  88
ENDBRANCH  82  85
ENDBRANCH  79  82
ENDBRANCH  76  79
ENDBRANCH  73  76
ENDBRANCH   3  73
TORSDOF 36
ENDMDL
MODEL 8
REMARK VINA RESULT:      -3.8      2.997      8.076
REMARK WARNING: 32 MAX_TORS EXCEEDED!!!
REMARK  36 active torsions:
REMARK  status: ('A' for Active; 'I' for Inactive)
REMARK    1  A    between atoms: C6_6  and  N6_7 
REMARK    2  A    between atoms: CCN_19  and  N9_10 
REMARK    3  A    between atoms: CCK_16  and  OAN_12 
REMARK    4  A    between atoms: CCL_17  and  OAO_13 
REMARK    5  A    between atoms: CCC_15  and  CCM_18 
REMARK       I    between atoms: NBR_27  and  CCC_15 
REMARK    6  A    between atoms: CBZ_20  and  CBG_22 
REMARK       I    between atoms: NBS_28  and  CBZ_20 
REMARK    7  A    between atoms: CBG_22  and  CAX_23 
REMARK    8  A    between atoms: CAX_23  and  CAU_24 
REMARK    9  A    between atoms: CAU_24  and  CAW_25 
REMARK   10  A    between atoms: CAW_25  and  CBD_26 
REMARK   11  A    between atoms: CBD_26  and  NBR_27 
REMARK   12  A    between atoms: CCI_29  and  NBS_28 
REMARK   13  A    between atoms: CCB_30  and  CCI_29 
REMARK   14  A    between atoms: CCI_29  and  CBJ_32 
REMARK       I    between atoms: NBQ_44  and  CCB_30 
REMARK   15  A    between atoms: CBJ_32  and  CAZ_33 
REMARK   16  A    between atoms: CAZ_33  and  CAS_34 
REMARK   17  A    between atoms: CAS_34  and  CAR_35 
REMARK   18  A    between atoms: CAR_35  and  NAC_36 
REMARK   19  A    between atoms: CBH_39  and  CCA_37 
REMARK       I    between atoms: CCA_37  and  NBT_45 
REMARK   20  A    between atoms: CAY_40  and  CBH_39 
REMARK   21  A    between atoms: CAT_41  and  CAY_40 
REMARK   22  A    between atoms: CAV_42  and  CAT_41 
REMARK   23  A    between atoms: CBC_43  and  CAV_42 
REMARK   24  A    between atoms: CBC_43  and  NBQ_44 
REMARK   25  A    between atoms: NBT_45  and  CCJ_46 
REMARK   26  A    between atoms: CCJ_46  and  CBK_47 
REMARK   27  A    between atoms: CCJ_46  and  CCD_54 
REMARK   28  A    between atoms: CBK_47  and  CBB_48 
REMARK   29  A    between atoms: CBB_48  and  CBF_49 
REMARK   30  A    between atoms: CBF_49  and  NBP_50 
REMARK       I    between atoms: NBP_50  and  CBX_51 
REMARK       I    between atoms: CBX_51  and  NAB_52 
REMARK       I    between atoms: CBX_51  and  NAE_53 
REMARK       I    between atoms: CCD_54  and  N_56 
REMARK   31  A    between atoms: N_56  and  CA_57 
REMARK   32  A    between atoms: CA_57  and  CB_58 
REMARK   33  A    between atoms: CA_57  and  C_65 
REMARK   34  A    between atoms: CB_58  and  CG_59 
REMARK   35  A    between atoms: CG_59  and  CD_60 
REMARK   36  A    between atoms: CD_60  and  NE_61 
REMARK       I    between atoms: NE_61  and  CZ_62 
REMARK       I    between atoms: CZ_62  and  NH1_63 
REMARK       I    between atoms: C_65  and  NAF_67 
ROOT
ATOM      1  CCB A02 d          18.378   9.318   3.756  0.00  0.00     0.240 C 
ATOM      2  OAK A02 d          19.591   9.189   3.873  0.00  0.00    -0.271 OA
ATOM      3  NBQ A02 d          17.493   8.432   4.207  0.00  0.00    -0.359 N 
ATOM      4  H45 A02 d          16.518   8.608   4.061  0.00  0.00     0.162 HD
ENDROOT
BRANCH   1   5
ATOM      5  CCI A02 d          17.786  10.546   3.021  0.00  0.00     0.089 C 
ATOM      6  H23 A02 d          16.729  10.617   3.316  0.00  0.00     0.087 H 
BRANCH   5   7
ATOM      7  NBS A02 d          17.820  10.342   1.550  0.00  0.00    -0.348 N 
ATOM      8  CBZ A02 d          16.899   9.597   0.917  0.00  0.00     0.218 C 
ATOM      9  OAI A02 d          15.987   8.986   1.487  0.00  0.00    -0.274 OA
ATOM     10  H22 A02 d          18.548  10.771   1.016  0.00  0.00     0.163 HD
BRANCH   8  11
ATOM     11  CBG A02 d          17.078   9.497  -0.611  0.00  0.00     0.009 C 
ATOM     12  H11 A02 d          16.847   8.470  -0.930  0.00  0.00     0.047 H 
ATOM     13  H12 A02 d          18.122   9.733  -0.864  0.00  0.00     0.047 H 
BRANCH  11  14
ATOM     14  CAX A02 d          16.151  10.472  -1.364  0.00  0.00    -0.057 C 
ATOM     15  H13 A02 d          16.444  10.499  -2.424  0.00  0.00     0.033 H 
ATOM     16  H14 A02 d          16.259  11.477  -0.928  0.00  0.00     0.033 H 
BRANCH  14  17
ATOM     17  CAU A02 d          14.685  10.037  -1.260  0.00  0.00    -0.063 C 
ATOM     18  H15 A02 d          14.559   9.442  -0.344  0.00  0.00     0.033 H 
ATOM     19  H16 A02 d          14.440   9.417  -2.136  0.00  0.00     0.033 H 
BRANCH  17  20
ATOM     20  CAW A02 d          13.715  11.220  -1.212  0.00  0.00    -0.050 C 
ATOM     21  H17 A02 d          12.876  11.047  -1.903  0.00  0.00     0.035 H 
ATOM     22  H18 A02 d          14.237  12.146  -1.495  0.00  0.00     0.035 H 
BRANCH  20  23
ATOM     23  CBD A02 d          13.195  11.332   0.223  0.00  0.00    -0.005 C 
ATOM     24  H19 A02 d          12.153  11.683   0.193  0.00  0.00     0.064 H 
ATOM     25  H20 A02 d          13.812  12.062   0.765  0.00  0.00     0.064 H 
BRANCH  23  26
ATOM     26  NBR A02 d          13.240  10.048   0.944  0.00  0.00    -0.359 N 
ATOM     27  CCC A02 d          12.223   9.188   1.017  0.00  0.00     0.249 C 
ATOM     28  OAL A02 d          11.095   9.394   0.546  0.00  0.00    -0.271 OA
ATOM     29  H21 A02 d          14.091   9.805   1.410  0.00  0.00     0.162 HD
BRANCH  27  30
ATOM     30  CCM A02 d          12.503   7.858   1.743  0.00  0.00     0.144 C 
ATOM     31  OBV A02 d          12.954   8.083   3.120  0.00  0.00    -0.346 OA
ATOM     32  CCN A02 d          11.858   7.789   4.035  0.00  0.00     0.140 C 
ATOM     33  CCL A02 d          10.615   7.639   3.136  0.00  0.00     0.105 C 
ATOM     34  H10 A02 d          12.052   6.837   4.551  0.00  0.00     0.123 H 
ATOM     35  CCK A02 d          11.204   7.061   1.862  0.00  0.00     0.098 C 
ATOM     36  H8  A02 d          10.119   8.605   2.960  0.00  0.00     0.093 H 
ATOM     37  H7  A02 d          10.543   7.197   0.994  0.00  0.00     0.091 H 
ATOM     38  H9  A02 d          13.259   7.286   1.183  0.00  0.00     0.102 H 
BRANCH  32  39
ATOM     39  N9  A02 d          11.700   8.876   5.092  0.00  0.00    -0.294 N 
ATOM     40  C4  A02 d          11.840  10.184   4.896  0.00  0.00     0.167 A 
ATOM     41  N3  A02 d          12.146  10.921   3.817  0.00  0.00    -0.222 NA
ATOM     42  C5  A02 d          11.622  10.810   6.116  0.00  0.00     0.149 A 
ATOM     43  C2  A02 d          12.224  12.243   3.907  0.00  0.00     0.091 A 
ATOM     44  N1  A02 d          12.010  12.874   5.069  0.00  0.00    -0.222 NA
ATOM     45  H1  A02 d          12.467  12.822   3.023  0.00  0.00     0.146 H 
ATOM     46  C6  A02 d          11.714  12.190   6.185  0.00  0.00     0.155 A 
ATOM     47  N7  A02 d          11.347   9.874   7.023  0.00  0.00    -0.236 NA
ATOM     48  C8  A02 d          11.385   8.700   6.385  0.00  0.00     0.071 A 
ATOM     49  H4  A02 d          11.190   7.734   6.850  0.00  0.00     0.144 H 
BRANCH  46  50
ATOM     50  N6  A02 d          11.514  12.814   7.341  0.00  0.00    -0.382 N 
ATOM     51  H2  A02 d          12.137  12.630   8.140  0.00  0.00     0.157 HD
ATOM     52  H3  A02 d          10.737  13.482   7.438  0.00  0.00     0.157 HD
ENDBRANCH  46  50
ENDBRANCH  32  39
BRANCH  33  53
ATOM     53  OAO A02 d           9.703   6.711   3.705  0.00  0.00    -0.388 OA
ATOM     54  H6  A02 d           9.523   6.955   4.605  0.00  0.00     0.210 HD
ENDBRANCH  33  53
BRANCH  35  55
ATOM     55  OAN A02 d          11.518   5.669   2.058  0.00  0.00    -0.390 OA
ATOM     56  H5  A02 d          12.219   5.418   1.467  0.00  0.00     0.210 HD
ENDBRANCH  35  55
ENDBRANCH  27  30
ENDBRANCH  23  26
ENDBRANCH  20  23
ENDBRANCH  17  20
ENDBRANCH  14  17
ENDBRANCH  11  14
ENDBRANCH   8  11
ENDBRANCH   5   7
BRANCH   5  57
ATOM     57  CBJ A02 d          18.454  11.878   3.431  0.00  0.00    -0.038 C 
ATOM     58  H24 A02 d          18.174  12.641   2.689  0.00  0.00     0.036 H 
ATOM     59  H25 A02 d          19.544  11.731   3.411  0.00  0.00     0.036 H 
BRANCH  57  60
ATOM     60  CAZ A02 d          18.072  12.403   4.818  0.00  0.00    -0.061 C 
ATOM     61  H26 A02 d          18.987  12.641   5.381  0.00  0.00     0.033 H 
ATOM     62  H27 A02 d          17.502  11.630   5.354  0.00  0.00     0.033 H 
BRANCH  60  63
ATOM     63  CAS A02 d          17.208  13.675   4.688  0.00  0.00    -0.043 C 
ATOM     64  H28 A02 d          17.518  14.229   3.789  0.00  0.00     0.035 H 
ATOM     65  H29 A02 d          17.359  14.304   5.577  0.00  0.00     0.035 H 
BRANCH  63  66
ATOM     66  CAR A02 d          15.717  13.323   4.570  0.00  0.00     0.080 C 
ATOM     67  H30 A02 d          15.612  12.250   4.353  0.00  0.00     0.075 H 
ATOM     68  H31 A02 d          15.268  13.909   3.754  0.00  0.00     0.075 H 
BRANCH  66  69
ATOM     69  NAC A02 d          15.025  13.636   5.834  0.00  0.00    -0.079 N 
ATOM     70  H32 A02 d          14.086  13.271   5.801  0.00  0.00     0.274 HD
ATOM     71  H33 A02 d          14.992  14.636   5.960  0.00  0.00     0.274 HD
ATOM     72  H34 A02 d          15.523  13.217   6.603  0.00  0.00     0.274 HD
ENDBRANCH  66  69
ENDBRANCH  63  66
ENDBRANCH  60  63
ENDBRANCH  57  60
ENDBRANCH   5  57
ENDBRANCH   1   5
BRANCH   3  73
ATOM     73  CBC A02 d          17.895   7.195   4.915  0.00  0.00    -0.005 C 
ATOM     74  H43 A02 d          18.255   6.459   4.182  0.00  0.00     0.064 H 
ATOM     75  H44 A02 d          18.703   7.431   5.624  0.00  0.00     0.064 H 
BRANCH  73  76
ATOM     76  CAV A02 d          16.708   6.604   5.683  0.00  0.00    -0.050 C 
ATOM     77  H41 A02 d          15.920   6.321   4.968  0.00  0.00     0.035 H 
ATOM     78  H42 A02 d          17.041   5.712   6.233  0.00  0.00     0.035 H 
BRANCH  76  79
ATOM     79  CAT A02 d          16.145   7.628   6.675  0.00  0.00    -0.063 C 
ATOM     80  H39 A02 d          16.884   7.794   7.472  0.00  0.00     0.033 H 
ATOM     81  H40 A02 d          15.959   8.574   6.144  0.00  0.00     0.033 H 
BRANCH  79  82
ATOM     82  CAY A02 d          14.834   7.149   7.307  0.00  0.00    -0.057 C 
ATOM     83  H37 A02 d          15.058   6.660   8.266  0.00  0.00     0.033 H 
ATOM     84  H38 A02 d          14.184   8.019   7.481  0.00  0.00     0.033 H 
BRANCH  82  85
ATOM     85  CBH A02 d          14.096   6.150   6.400  0.00  0.00     0.009 C 
ATOM     86  H35 A02 d          13.562   6.708   5.617  0.00  0.00     0.047 H 
ATOM     87  H36 A02 d          14.833   5.480   5.934  0.00  0.00     0.047 H 
BRANCH  85  88
ATOM     88  CCA A02 d          13.082   5.306   7.190  0.00  0.00     0.218 C 
ATOM     89  OAJ A02 d          11.872   5.386   6.955  0.00  0.00    -0.274 OA
ATOM     90  NBT A02 d          13.618   4.499   8.113  0.00  0.00    -0.348 N 
ATOM     91  H46 A02 d          14.612   4.495   8.223  0.00  0.00     0.163 HD
BRANCH  90  92
ATOM     92  CCJ A02 d          12.808   3.609   8.982  0.00  0.00     0.089 C 
ATOM     93  H47 A02 d          13.462   2.802   9.342  0.00  0.00     0.087 H 
BRANCH  92  94
ATOM     94  CBK A02 d          11.641   2.958   8.193  0.00  0.00    -0.036 C 
ATOM     95  H48 A02 d          11.218   3.717   7.517  0.00  0.00     0.036 H 
ATOM     96  H49 A02 d          10.874   2.640   8.913  0.00  0.00     0.036 H 
BRANCH  94  97
ATOM     97  CBB A02 d          12.045   1.737   7.350  0.00  0.00    -0.048 C 
ATOM     98  H50 A02 d          12.156   2.051   6.301  0.00  0.00     0.035 H 
ATOM     99  H51 A02 d          11.252   0.978   7.423  0.00  0.00     0.035 H 
BRANCH  97 100
ATOM    100  CBF A02 d          13.370   1.115   7.822  0.00  0.00     0.009 C 
ATOM    101  H52 A02 d          13.176   0.139   8.290  0.00  0.00     0.064 H 
ATOM    102  H53 A02 d          13.854   1.781   8.550  0.00  0.00     0.064 H 
BRANCH 100 103
ATOM    103  NBP A02 d          14.244   0.940   6.646  0.00  0.00    -0.227 N 
ATOM    104  CBX A02 d          15.489   1.428   6.558  0.00  0.00     0.665 C 
ATOM    105  NAB A02 d          16.059   2.112   7.548  0.00  0.00    -0.235 N 
ATOM    106  NAE A02 d          16.177   1.208   5.441  0.00  0.00    -0.235 N 
ATOM    107  H55 A02 d          17.020   2.470   7.440  0.00  0.00     0.174 HD
ATOM    108  H56 A02 d          15.541   2.283   8.421  0.00  0.00     0.174 HD
ATOM    109  H57 A02 d          15.749   0.680   4.667  0.00  0.00     0.174 HD
ATOM    110  H58 A02 d          17.139   1.565   5.351  0.00  0.00     0.174 HD
ATOM    111  H54 A02 d          13.874   0.411   5.844  0.00  0.00     0.177 HD
ENDBRANCH 100 103
ENDBRANCH  97 100
ENDBRANCH  94  97
ENDBRANCH  92  94
BRANCH  92 112
ATOM    112  CCD A02 d          12.285   4.386  10.215  0.00  0.00     0.241 C 
ATOM    113  OAM A02 d          12.919   4.401  11.270  0.00  0.00    -0.271 OA
ATOM    114  N   A02 d          11.120   5.014  10.042  0.00  0.00    -0.346 N 
ATOM    115  H59 A02 d          10.672   4.946   9.150  0.00  0.00     0.163 HD
BRANCH 114 116
ATOM    116  CA  A02 d          10.456   5.805  11.102  0.00  0.00     0.089 C 
ATOM    117  H60 A02 d          10.210   6.797  10.696  0.00  0.00     0.087 H 
BRANCH 116 118
ATOM    118  CB  A02 d          11.410   5.979  12.291  0.00  0.00    -0.036 C 
ATOM    119  H61 A02 d          12.436   5.763  11.960  0.00  0.00     0.036 H 
ATOM    120  H62 A02 d          11.124   5.274  13.086  0.00  0.00     0.036 H 
BRANCH 118 121
ATOM    121  CG  A02 d          11.356   7.404  12.847  0.00  0.00    -0.048 C 
ATOM    122  H63 A02 d          12.148   7.524  13.601  0.00  0.00     0.035 H 
ATOM    123  H64 A02 d          10.375   7.569  13.316  0.00  0.00     0.035 H 
BRANCH 121 124
ATOM    124  CD  A02 d          11.560   8.437  11.744  0.00  0.00     0.009 C 
ATOM    125  H65 A02 d          11.271   9.435  12.106  0.00  0.00     0.064 H 
ATOM    126  H66 A02 d          10.950   8.175  10.866  0.00  0.00     0.064 H 
BRANCH 124 127
ATOM    127  NE  A02 d          12.976   8.426  11.389  0.00  0.00    -0.227 N 
ATOM    128  CZ  A02 d          13.531   9.157  10.424  0.00  0.00     0.665 C 
ATOM    129  NH1 A02 d          12.842  10.028   9.686  0.00  0.00    -0.235 N 
ATOM    130  NH2 A02 d          14.833   9.003  10.228  0.00  0.00    -0.235 N 
ATOM    131  H68 A02 d          13.319  10.570   8.951  0.00  0.00     0.174 HD
ATOM    132  H69 A02 d          11.834  10.159   9.851  0.00  0.00     0.174 HD
ATOM    133  H70 A02 d          15.364   8.329  10.799  0.00  0.00     0.174 HD
ATOM    134  H71 A02 d          15.314   9.557   9.505  0.00  0.00     0.174 HD
ATOM    135  H67 A02 d          13.595   7.803  11.928  0.00  0.00     0.177 HD
ENDBRANCH 124 127
ENDBRANCH 121 124
ENDBRANCH 118 121
ENDBRANCH 116 118
BRANCH 116 136
ATOM    136  C   A02 d           9.146   5.133  11.574  0.00  0.00     0.238 C 
ATOM    137  O   A02 d           9.135   4.297  12.481  0.00  0.00    -0.271 OA
ATOM    138  NAF A02 d           8.049   5.544  10.942  0.00  0.00    -0.368 N 
ATOM    139  H72 A02 d           7.158   5.160  11.186  0.00  0.00     0.159 HD
ATOM    140  H73 A02 d           8.116   6.237  10.224  0.00  0.00     0.159 HD
ENDBRANCH 116 136
ENDBRANCH 114 116
ENDBRANCH  92 112
ENDBRANCH  90  92
ENDBRANCH  85  88
ENDBRANCH  82  85
ENDBRANCH  79  82
ENDBRANCH  76  79
ENDBRANCH  73  76
ENDBRANCH   3  73
TORSDOF 36
ENDMDL
MODEL 9
REMARK VINA RESULT:      -3.5      2.824     10.014
REMARK WARNING: 32 MAX_TORS EXCEEDED!!!
REMARK  36 active torsions:
REMARK  status: ('A' for Active; 'I' for Inactive)
REMARK    1  A    between atoms: C6_6  and  N6_7 
REMARK    2  A    between atoms: CCN_19  and  N9_10 
REMARK    3  A    between atoms: CCK_16  and  OAN_12 
REMARK    4  A    between atoms: CCL_17  and  OAO_13 
REMARK    5  A    between atoms: CCC_15  and  CCM_18 
REMARK       I    between atoms: NBR_27  and  CCC_15 
REMARK    6  A    between atoms: CBZ_20  and  CBG_22 
REMARK       I    between atoms: NBS_28  and  CBZ_20 
REMARK    7  A    between atoms: CBG_22  and  CAX_23 
REMARK    8  A    between atoms: CAX_23  and  CAU_24 
REMARK    9  A    between atoms: CAU_24  and  CAW_25 
REMARK   10  A    between atoms: CAW_25  and  CBD_26 
REMARK   11  A    between atoms: CBD_26  and  NBR_27 
REMARK   12  A    between atoms: CCI_29  and  NBS_28 
REMARK   13  A    between atoms: CCB_30  and  CCI_29 
REMARK   14  A    between atoms: CCI_29  and  CBJ_32 
REMARK       I    between atoms: NBQ_44  and  CCB_30 
REMARK   15  A    between atoms: CBJ_32  and  CAZ_33 
REMARK   16  A    between atoms: CAZ_33  and  CAS_34 
REMARK   17  A    between atoms: CAS_34  and  CAR_35 
REMARK   18  A    between atoms: CAR_35  and  NAC_36 
REMARK   19  A    between atoms: CBH_39  and  CCA_37 
REMARK       I    between atoms: CCA_37  and  NBT_45 
REMARK   20  A    between atoms: CAY_40  and  CBH_39 
REMARK   21  A    between atoms: CAT_41  and  CAY_40 
REMARK   22  A    between atoms: CAV_42  and  CAT_41 
REMARK   23  A    between atoms: CBC_43  and  CAV_42 
REMARK   24  A    between atoms: CBC_43  and  NBQ_44 
REMARK   25  A    between atoms: NBT_45  and  CCJ_46 
REMARK   26  A    between atoms: CCJ_46  and  CBK_47 
REMARK   27  A    between atoms: CCJ_46  and  CCD_54 
REMARK   28  A    between atoms: CBK_47  and  CBB_48 
REMARK   29  A    between atoms: CBB_48  and  CBF_49 
REMARK   30  A    between atoms: CBF_49  and  NBP_50 
REMARK       I    between atoms: NBP_50  and  CBX_51 
REMARK       I    between atoms: CBX_51  and  NAB_52 
REMARK       I    between atoms: CBX_51  and  NAE_53 
REMARK       I    between atoms: CCD_54  and  N_56 
REMARK   31  A    between atoms: N_56  and  CA_57 
REMARK   32  A    between atoms: CA_57  and  CB_58 
REMARK   33  A    between atoms: CA_57  and  C_65 
REMARK   34  A    between atoms: CB_58  and  CG_59 
REMARK   35  A    between atoms: CG_59  and  CD_60 
REMARK   36  A    between atoms: CD_60  and  NE_61 
REMARK       I    between atoms: NE_61  and  CZ_62 
REMARK       I    between atoms: CZ_62  and  NH1_63 
REMARK       I    between atoms: C_65  and  NAF_67 
ROOT
ATOM      1  CCB A02 d          15.846   6.087   2.581  0.00  0.00     0.240 C 
ATOM      2  OAK A02 d          15.518   4.909   2.642  0.00  0.00    -0.271 OA
ATOM      3  NBQ A02 d          15.059   7.051   2.105  0.00  0.00    -0.359 N 
ATOM      4  H45 A02 d          15.406   7.989   2.080  0.00  0.00     0.162 HD
ENDROOT
BRANCH   1   5
ATOM      5  CCI A02 d          17.255   6.536   3.038  0.00  0.00     0.089 C 
ATOM      6  H23 A02 d          17.747   6.987   2.164  0.00  0.00     0.087 H 
BRANCH   5   7
ATOM      7  NBS A02 d          18.071   5.364   3.446  0.00  0.00    -0.348 N 
ATOM      8  CBZ A02 d          19.303   5.504   3.963  0.00  0.00     0.218 C 
ATOM      9  OAI A02 d          19.880   6.589   4.101  0.00  0.00    -0.274 OA
ATOM     10  H22 A02 d          17.694   4.445   3.333  0.00  0.00     0.163 HD
BRANCH   8  11
ATOM     11  CBG A02 d          20.007   4.185   4.340  0.00  0.00     0.009 C 
ATOM     12  H11 A02 d          20.894   4.060   3.703  0.00  0.00     0.047 H 
ATOM     13  H12 A02 d          19.312   3.349   4.170  0.00  0.00     0.047 H 
BRANCH  11  14
ATOM     14  CAX A02 d          20.449   4.171   5.817  0.00  0.00    -0.057 C 
ATOM     15  H13 A02 d          20.964   5.117   6.045  0.00  0.00     0.033 H 
ATOM     16  H14 A02 d          21.140   3.330   5.977  0.00  0.00     0.033 H 
BRANCH  14  17
ATOM     17  CAU A02 d          19.247   4.017   6.755  0.00  0.00    -0.063 C 
ATOM     18  H15 A02 d          19.022   4.997   7.202  0.00  0.00     0.033 H 
ATOM     19  H16 A02 d          19.512   3.304   7.550  0.00  0.00     0.033 H 
BRANCH  17  20
ATOM     20  CAW A02 d          17.994   3.507   6.039  0.00  0.00    -0.050 C 
ATOM     21  H17 A02 d          17.778   2.474   6.350  0.00  0.00     0.035 H 
ATOM     22  H18 A02 d          18.145   3.538   4.949  0.00  0.00     0.035 H 
BRANCH  20  23
ATOM     23  CBD A02 d          16.833   4.424   6.432  0.00  0.00    -0.005 C 
ATOM     24  H19 A02 d          16.569   5.048   5.565  0.00  0.00     0.064 H 
ATOM     25  H20 A02 d          17.159   5.068   7.261  0.00  0.00     0.064 H 
BRANCH  23  26
ATOM     26  NBR A02 d          15.638   3.676   6.858  0.00  0.00    -0.359 N 
ATOM     27  CCC A02 d          15.494   3.101   8.053  0.00  0.00     0.249 C 
ATOM     28  OAL A02 d          16.374   3.068   8.925  0.00  0.00    -0.271 OA
ATOM     29  H21 A02 d          14.883   3.594   6.208  0.00  0.00     0.162 HD
BRANCH  27  30
ATOM     30  CCM A02 d          14.130   2.445   8.337  0.00  0.00     0.144 C 
ATOM     31  OBV A02 d          13.499   3.014   9.532  0.00  0.00    -0.346 OA
ATOM     32  CCN A02 d          12.430   3.917   9.122  0.00  0.00     0.140 C 
ATOM     33  CCL A02 d          12.616   4.095   7.602  0.00  0.00     0.105 C 
ATOM     34  H10 A02 d          11.455   3.449   9.318  0.00  0.00     0.123 H 
ATOM     35  CCK A02 d          13.172   2.746   7.184  0.00  0.00     0.098 C 
ATOM     36  H8  A02 d          13.308   4.917   7.368  0.00  0.00     0.093 H 
ATOM     37  H7  A02 d          13.680   2.784   6.210  0.00  0.00     0.091 H 
ATOM     38  H9  A02 d          14.263   1.359   8.457  0.00  0.00     0.102 H 
BRANCH  32  39
ATOM     39  N9  A02 d          12.485   5.236   9.885  0.00  0.00    -0.294 N 
ATOM     40  C4  A02 d          11.446   5.881  10.407  0.00  0.00     0.167 A 
ATOM     41  N3  A02 d          10.128   5.627  10.432  0.00  0.00    -0.222 NA
ATOM     42  C5  A02 d          11.934   7.037  11.002  0.00  0.00     0.149 A 
ATOM     43  C2  A02 d           9.294   6.464  11.036  0.00  0.00     0.091 A 
ATOM     44  N1  A02 d           9.737   7.582  11.627  0.00  0.00    -0.222 NA
ATOM     45  H1  A02 d           8.233   6.240  11.051  0.00  0.00     0.146 H 
ATOM     46  C6  A02 d          11.043   7.897  11.622  0.00  0.00     0.155 A 
ATOM     47  N7  A02 d          13.255   7.067  10.838  0.00  0.00    -0.236 NA
ATOM     48  C8  A02 d          13.582   5.957  10.166  0.00  0.00     0.071 A 
ATOM     49  H4  A02 d          14.596   5.678   9.884  0.00  0.00     0.144 H 
BRANCH  46  50
ATOM     50  N6  A02 d          11.482   9.012  12.196  0.00  0.00    -0.382 N 
ATOM     51  H2  A02 d          10.866   9.835  12.259  0.00  0.00     0.157 HD
ATOM     52  H3  A02 d          12.438   9.053  12.577  0.00  0.00     0.157 HD
ENDBRANCH  46  50
ENDBRANCH  32  39
BRANCH  33  53
ATOM     53  OAO A02 d          11.361   4.310   6.972  0.00  0.00    -0.388 OA
ATOM     54  H6  A02 d          10.809   3.548   7.099  0.00  0.00     0.210 HD
ENDBRANCH  33  53
BRANCH  35  55
ATOM     55  OAN A02 d          12.117   1.765   7.176  0.00  0.00    -0.390 OA
ATOM     56  H5  A02 d          12.154   1.255   7.978  0.00  0.00     0.210 HD
ENDBRANCH  35  55
ENDBRANCH  27  30
ENDBRANCH  23  26
ENDBRANCH  20  23
ENDBRANCH  17  20
ENDBRANCH  14  17
ENDBRANCH  11  14
ENDBRANCH   8  11
ENDBRANCH   5   7
BRANCH   5  57
ATOM     57  CBJ A02 d          17.219   7.620   4.138  0.00  0.00    -0.038 C 
ATOM     58  H24 A02 d          18.071   7.448   4.813  0.00  0.00     0.036 H 
ATOM     59  H25 A02 d          16.280   7.504   4.698  0.00  0.00     0.036 H 
BRANCH  57  60
ATOM     60  CAZ A02 d          17.296   9.066   3.637  0.00  0.00    -0.061 C 
ATOM     61  H26 A02 d          16.861   9.124   2.628  0.00  0.00     0.033 H 
ATOM     62  H27 A02 d          18.349   9.382   3.600  0.00  0.00     0.033 H 
BRANCH  60  63
ATOM     63  CAS A02 d          16.516  10.001   4.584  0.00  0.00    -0.043 C 
ATOM     64  H28 A02 d          17.104  10.917   4.749  0.00  0.00     0.035 H 
ATOM     65  H29 A02 d          16.357   9.489   5.544  0.00  0.00     0.035 H 
BRANCH  63  66
ATOM     66  CAR A02 d          15.152  10.383   3.988  0.00  0.00     0.080 C 
ATOM     67  H30 A02 d          15.134  10.114   2.921  0.00  0.00     0.075 H 
ATOM     68  H31 A02 d          14.997  11.467   4.096  0.00  0.00     0.075 H 
BRANCH  66  69
ATOM     69  NAC A02 d          14.076   9.663   4.691  0.00  0.00    -0.079 N 
ATOM     70  H32 A02 d          13.338   9.443   4.041  0.00  0.00     0.274 HD
ATOM     71  H33 A02 d          13.710  10.244   5.430  0.00  0.00     0.274 HD
ATOM     72  H34 A02 d          14.443   8.811   5.085  0.00  0.00     0.274 HD
ENDBRANCH  66  69
ENDBRANCH  63  66
ENDBRANCH  60  63
ENDBRANCH  57  60
ENDBRANCH   5  57
ENDBRANCH   1   5
BRANCH   3  73
ATOM     73  CBC A02 d          13.688   6.786   1.611  0.00  0.00    -0.005 C 
ATOM     74  H43 A02 d          13.744   6.373   0.593  0.00  0.00     0.064 H 
ATOM     75  H44 A02 d          13.198   6.059   2.275  0.00  0.00     0.064 H 
BRANCH  73  76
ATOM     76  CAV A02 d          12.866   8.079   1.586  0.00  0.00    -0.050 C 
ATOM     77  H41 A02 d          13.529   8.934   1.788  0.00  0.00     0.035 H 
ATOM     78  H42 A02 d          12.407   8.197   0.593  0.00  0.00     0.035 H 
BRANCH  76  79
ATOM     79  CAT A02 d          11.762   8.035   2.650  0.00  0.00    -0.063 C 
ATOM     80  H39 A02 d          11.191   7.103   2.531  0.00  0.00     0.033 H 
ATOM     81  H40 A02 d          12.227   8.057   3.647  0.00  0.00     0.033 H 
BRANCH  79  82
ATOM     82  CAY A02 d          10.802   9.223   2.525  0.00  0.00    -0.057 C 
ATOM     83  H37 A02 d          10.990   9.921   3.354  0.00  0.00     0.033 H 
ATOM     84  H38 A02 d          10.987   9.731   1.568  0.00  0.00     0.033 H 
BRANCH  82  85
ATOM     85  CBH A02 d           9.332   8.774   2.576  0.00  0.00     0.009 C 
ATOM     86  H35 A02 d           8.817   9.138   1.675  0.00  0.00     0.047 H 
ATOM     87  H36 A02 d           9.295   7.675   2.601  0.00  0.00     0.047 H 
BRANCH  85  88
ATOM     88  CCA A02 d           8.612   9.326   3.818  0.00  0.00     0.218 C 
ATOM     89  OAJ A02 d           7.778   8.643   4.422  0.00  0.00    -0.274 OA
ATOM     90  NBT A02 d           8.970  10.566   4.174  0.00  0.00    -0.348 N 
ATOM     91  H46 A02 d           9.663  11.037   3.628  0.00  0.00     0.163 HD
BRANCH  90  92
ATOM     92  CCJ A02 d           8.387  11.276   5.339  0.00  0.00     0.089 C 
ATOM     93  H47 A02 d           7.418  10.811   5.569  0.00  0.00     0.087 H 
BRANCH  92  94
ATOM     94  CBK A02 d           8.132  12.773   5.019  0.00  0.00    -0.036 C 
ATOM     95  H48 A02 d           8.494  13.372   5.868  0.00  0.00     0.036 H 
ATOM     96  H49 A02 d           7.049  12.920   4.902  0.00  0.00     0.036 H 
BRANCH  94  97
ATOM     97  CBB A02 d           8.827  13.279   3.743  0.00  0.00    -0.048 C 
ATOM     98  H50 A02 d           8.081  13.346   2.937  0.00  0.00     0.035 H 
ATOM     99  H51 A02 d           9.611  12.561   3.459  0.00  0.00     0.035 H 
BRANCH  97 100
ATOM    100  CBF A02 d           9.470  14.662   3.938  0.00  0.00     0.009 C 
ATOM    101  H52 A02 d           9.391  15.243   3.008  0.00  0.00     0.064 H 
ATOM    102  H53 A02 d          10.529  14.544   4.208  0.00  0.00     0.064 H 
BRANCH 100 103
ATOM    103  NBP A02 d           8.752  15.357   5.024  0.00  0.00    -0.227 N 
ATOM    104  CBX A02 d           7.798  16.277   4.825  0.00  0.00     0.665 C 
ATOM    105  NAB A02 d           7.400  16.639   3.606  0.00  0.00    -0.235 N 
ATOM    106  NAE A02 d           7.227  16.838   5.886  0.00  0.00    -0.235 N 
ATOM    107  H55 A02 d           6.663  17.351   3.495  0.00  0.00     0.174 HD
ATOM    108  H56 A02 d           7.828  16.207   2.775  0.00  0.00     0.174 HD
ATOM    109  H57 A02 d           7.525  16.568   6.835  0.00  0.00     0.174 HD
ATOM    110  H58 A02 d           6.486  17.542   5.761  0.00  0.00     0.174 HD
ATOM    111  H54 A02 d           8.998  15.119   5.995  0.00  0.00     0.177 HD
ENDBRANCH 100 103
ENDBRANCH  97 100
ENDBRANCH  94  97
ENDBRANCH  92  94
BRANCH  92 112
ATOM    112  CCD A02 d           9.298  11.117   6.581  0.00  0.00     0.241 C 
ATOM    113  OAM A02 d           8.855  10.669   7.638  0.00  0.00    -0.271 OA
ATOM    114  N   A02 d          10.565  11.501   6.413  0.00  0.00    -0.346 N 
ATOM    115  H59 A02 d          10.839  11.856   5.519  0.00  0.00     0.163 HD
BRANCH 114 116
ATOM    116  CA  A02 d          11.587  11.430   7.482  0.00  0.00     0.089 C 
ATOM    117  H60 A02 d          11.116  11.715   8.434  0.00  0.00     0.087 H 
BRANCH 116 118
ATOM    118  CB  A02 d          12.723  12.415   7.177  0.00  0.00    -0.036 C 
ATOM    119  H61 A02 d          13.648  11.848   6.995  0.00  0.00     0.036 H 
ATOM    120  H62 A02 d          12.864  13.078   8.043  0.00  0.00     0.036 H 
BRANCH 118 121
ATOM    121  CG  A02 d          12.410  13.266   5.945  0.00  0.00    -0.048 C 
ATOM    122  H63 A02 d          11.386  13.659   6.031  0.00  0.00     0.035 H 
ATOM    123  H64 A02 d          12.486  12.636   5.045  0.00  0.00     0.035 H 
BRANCH 121 124
ATOM    124  CD  A02 d          13.383  14.433   5.817  0.00  0.00     0.009 C 
ATOM    125  H65 A02 d          13.226  15.144   6.641  0.00  0.00     0.064 H 
ATOM    126  H66 A02 d          13.229  14.946   4.855  0.00  0.00     0.064 H 
BRANCH 124 127
ATOM    127  NE  A02 d          14.735  13.887   5.880  0.00  0.00    -0.227 N 
ATOM    128  CZ  A02 d          15.662  14.022   4.933  0.00  0.00     0.665 C 
ATOM    129  NH1 A02 d          15.462  14.721   3.816  0.00  0.00    -0.235 N 
ATOM    130  NH2 A02 d          16.833  13.439   5.153  0.00  0.00    -0.235 N 
ATOM    131  H68 A02 d          16.212  14.795   3.114  0.00  0.00     0.174 HD
ATOM    132  H69 A02 d          14.558  15.187   3.655  0.00  0.00     0.174 HD
ATOM    133  H70 A02 d          16.985  12.899   6.016  0.00  0.00     0.174 HD
ATOM    134  H71 A02 d          17.590  13.527   4.459  0.00  0.00     0.174 HD
ATOM    135  H67 A02 d          14.992  13.354   6.723  0.00  0.00     0.177 HD
ENDBRANCH 124 127
ENDBRANCH 121 124
ENDBRANCH 118 121
ENDBRANCH 116 118
BRANCH 116 136
ATOM    136  C   A02 d          12.156  10.000   7.628  0.00  0.00     0.238 C 
ATOM    137  O   A02 d          11.895   9.112   6.814  0.00  0.00    -0.271 OA
ATOM    138  NAF A02 d          12.955   9.823   8.677  0.00  0.00    -0.368 N 
ATOM    139  H72 A02 d          13.367   8.927   8.847  0.00  0.00     0.159 HD
ATOM    140  H73 A02 d          13.145  10.585   9.297  0.00  0.00     0.159 HD
ENDBRANCH 116 136
ENDBRANCH 114 116
ENDBRANCH  92 112
ENDBRANCH  90  92
ENDBRANCH  85  88
ENDBRANCH  82  85
ENDBRANCH  79  82
ENDBRANCH  76  79
ENDBRANCH  73  76
ENDBRANCH   3  73
TORSDOF 36
ENDMDL
MODEL 10
REMARK VINA RESULT:      -3.2      2.916      7.818
REMARK WARNING: 32 MAX_TORS EXCEEDED!!!
REMARK  36 active torsions:
REMARK  status: ('A' for Active; 'I' for Inactive)
REMARK    1  A    between atoms: C6_6  and  N6_7 
REMARK    2  A    between atoms: CCN_19  and  N9_10 
REMARK    3  A    between atoms: CCK_16  and  OAN_12 
REMARK    4  A    between atoms: CCL_17  and  OAO_13 
REMARK    5  A    between atoms: CCC_15  and  CCM_18 
REMARK       I    between atoms: NBR_27  and  CCC_15 
REMARK    6  A    between atoms: CBZ_20  and  CBG_22 
REMARK       I    between atoms: NBS_28  and  CBZ_20 
REMARK    7  A    between atoms: CBG_22  and  CAX_23 
REMARK    8  A    between atoms: CAX_23  and  CAU_24 
REMARK    9  A    between atoms: CAU_24  and  CAW_25 
REMARK   10  A    between atoms: CAW_25  and  CBD_26 
REMARK   11  A    between atoms: CBD_26  and  NBR_27 
REMARK   12  A    between atoms: CCI_29  and  NBS_28 
REMARK   13  A    between atoms: CCB_30  and  CCI_29 
REMARK   14  A    between atoms: CCI_29  and  CBJ_32 
REMARK       I    between atoms: NBQ_44  and  CCB_30 
REMARK   15  A    between atoms: CBJ_32  and  CAZ_33 
REMARK   16  A    between atoms: CAZ_33  and  CAS_34 
REMARK   17  A    between atoms: CAS_34  and  CAR_35 
REMARK   18  A    between atoms: CAR_35  and  NAC_36 
REMARK   19  A    between atoms: CBH_39  and  CCA_37 
REMARK       I    between atoms: CCA_37  and  NBT_45 
REMARK   20  A    between atoms: CAY_40  and  CBH_39 
REMARK   21  A    between atoms: CAT_41  and  CAY_40 
REMARK   22  A    between atoms: CAV_42  and  CAT_41 
REMARK   23  A    between atoms: CBC_43  and  CAV_42 
REMARK   24  A    between atoms: CBC_43  and  NBQ_44 
REMARK   25  A    between atoms: NBT_45  and  CCJ_46 
REMARK   26  A    between atoms: CCJ_46  and  CBK_47 
REMARK   27  A    between atoms: CCJ_46  and  CCD_54 
REMARK   28  A    between atoms: CBK_47  and  CBB_48 
REMARK   29  A    between atoms: CBB_48  and  CBF_49 
REMARK   30  A    between atoms: CBF_49  and  NBP_50 
REMARK       I    between atoms: NBP_50  and  CBX_51 
REMARK       I    between atoms: CBX_51  and  NAB_52 
REMARK       I    between atoms: CBX_51  and  NAE_53 
REMARK       I    between atoms: CCD_54  and  N_56 
REMARK   31  A    between atoms: N_56  and  CA_57 
REMARK   32  A    between atoms: CA_57  and  CB_58 
REMARK   33  A    between atoms: CA_57  and  C_65 
REMARK   34  A    between atoms: CB_58  and  CG_59 
REMARK   35  A    between atoms: CG_59  and  CD_60 
REMARK   36  A    between atoms: CD_60  and  NE_61 
REMARK       I    between atoms: NE_61  and  CZ_62 
REMARK       I    between atoms: CZ_62  and  NH1_63 
REMARK       I    between atoms: C_65  and  NAF_67 
ROOT
ATOM      1  CCB A02 d          18.653   7.509   3.267  0.00  0.00     0.240 C 
ATOM      2  OAK A02 d          19.725   7.431   2.680  0.00  0.00    -0.271 OA
ATOM      3  NBQ A02 d          17.993   6.456   3.747  0.00  0.00    -0.359 N 
ATOM      4  H45 A02 d          17.116   6.604   4.205  0.00  0.00     0.162 HD
ENDROOT
BRANCH   1   5
ATOM      5  CCI A02 d          17.961   8.880   3.462  0.00  0.00     0.089 C 
ATOM      6  H23 A02 d          17.177   8.739   4.220  0.00  0.00     0.087 H 
BRANCH   5   7
ATOM      7  NBS A02 d          17.290   9.311   2.209  0.00  0.00    -0.348 N 
ATOM      8  CBZ A02 d          16.104   8.807   1.832  0.00  0.00     0.218 C 
ATOM      9  OAI A02 d          15.495   7.924   2.449  0.00  0.00    -0.274 OA
ATOM     10  H22 A02 d          17.733   9.995   1.630  0.00  0.00     0.163 HD
BRANCH   8  11
ATOM     11  CBG A02 d          15.545   9.369   0.509  0.00  0.00     0.009 C 
ATOM     12  H11 A02 d          15.851   8.710  -0.316  0.00  0.00     0.047 H 
ATOM     13  H12 A02 d          15.959  10.376   0.347  0.00  0.00     0.047 H 
BRANCH  11  14
ATOM     14  CAX A02 d          14.006   9.462   0.528  0.00  0.00    -0.057 C 
ATOM     15  H13 A02 d          13.611   8.706   1.224  0.00  0.00     0.033 H 
ATOM     16  H14 A02 d          13.622   9.264  -0.484  0.00  0.00     0.033 H 
BRANCH  14  17
ATOM     17  CAU A02 d          13.538  10.850   0.978  0.00  0.00    -0.063 C 
ATOM     18  H15 A02 d          14.269  11.251   1.697  0.00  0.00     0.033 H 
ATOM     19  H16 A02 d          12.559  10.748   1.470  0.00  0.00     0.033 H 
BRANCH  17  20
ATOM     20  CAW A02 d          13.402  11.838  -0.183  0.00  0.00    -0.050 C 
ATOM     21  H17 A02 d          13.147  11.299  -1.108  0.00  0.00     0.035 H 
ATOM     22  H18 A02 d          14.347  12.383  -0.326  0.00  0.00     0.035 H 
BRANCH  20  23
ATOM     23  CBD A02 d          12.283  12.818   0.175  0.00  0.00    -0.005 C 
ATOM     24  H19 A02 d          11.513  12.280   0.746  0.00  0.00     0.064 H 
ATOM     25  H20 A02 d          11.844  13.206  -0.756  0.00  0.00     0.064 H 
BRANCH  23  26
ATOM     26  NBR A02 d          12.760  13.956   0.981  0.00  0.00    -0.359 N 
ATOM     27  CCC A02 d          11.982  14.942   1.428  0.00  0.00     0.249 C 
ATOM     28  OAL A02 d          10.776  15.058   1.165  0.00  0.00    -0.271 OA
ATOM     29  H21 A02 d          13.733  13.990   1.208  0.00  0.00     0.162 HD
BRANCH  27  30
ATOM     30  CCM A02 d          12.658  15.989   2.333  0.00  0.00     0.144 C 
ATOM     31  OBV A02 d          12.263  15.822   3.736  0.00  0.00    -0.346 OA
ATOM     32  CCN A02 d          13.358  15.197   4.467  0.00  0.00     0.140 C 
ATOM     33  CCL A02 d          14.350  14.729   3.384  0.00  0.00     0.105 C 
ATOM     34  H10 A02 d          13.846  15.944   5.110  0.00  0.00     0.123 H 
ATOM     35  CCK A02 d          14.172  15.783   2.305  0.00  0.00     0.098 C 
ATOM     36  H8  A02 d          14.109  13.720   3.018  0.00  0.00     0.093 H 
ATOM     37  H7  A02 d          14.536  15.446   1.324  0.00  0.00     0.091 H 
ATOM     38  H9  A02 d          12.398  16.999   1.982  0.00  0.00     0.102 H 
BRANCH  32  39
ATOM     39  N9  A02 d          12.866  14.059   5.354  0.00  0.00    -0.294 N 
ATOM     40  C4  A02 d          11.601  13.815   5.683  0.00  0.00     0.167 A 
ATOM     41  N3  A02 d          10.443  14.426   5.388  0.00  0.00    -0.222 NA
ATOM     42  C5  A02 d          11.598  12.698   6.509  0.00  0.00     0.149 A 
ATOM     43  C2  A02 d           9.297  13.960   5.866  0.00  0.00     0.091 A 
ATOM     44  N1  A02 d           9.262  12.879   6.658  0.00  0.00    -0.222 NA
ATOM     45  H1  A02 d           8.370  14.463   5.612  0.00  0.00     0.146 H 
ATOM     46  C6  A02 d          10.389  12.234   6.999  0.00  0.00     0.155 A 
ATOM     47  N7  A02 d          12.854  12.283   6.658  0.00  0.00    -0.236 NA
ATOM     48  C8  A02 d          13.619  13.113   5.939  0.00  0.00     0.071 A 
ATOM     49  H4  A02 d          14.700  13.034   5.843  0.00  0.00     0.144 H 
BRANCH  46  50
ATOM     50  N6  A02 d          10.356  11.170   7.794  0.00  0.00    -0.382 N 
ATOM     51  H2  A02 d           9.872  10.314   7.489  0.00  0.00     0.157 HD
ATOM     52  H3  A02 d          10.815  11.201   8.716  0.00  0.00     0.157 HD
ENDBRANCH  46  50
ENDBRANCH  32  39
BRANCH  33  53
ATOM     53  OAO A02 d          15.680  14.772   3.879  0.00  0.00    -0.388 OA
ATOM     54  H6  A02 d          16.209  15.325   3.315  0.00  0.00     0.210 HD
ENDBRANCH  33  53
BRANCH  35  55
ATOM     55  OAN A02 d          14.824  17.004   2.705  0.00  0.00    -0.390 OA
ATOM     56  H5  A02 d          14.433  17.321   3.511  0.00  0.00     0.210 HD
ENDBRANCH  35  55
ENDBRANCH  27  30
ENDBRANCH  23  26
ENDBRANCH  20  23
ENDBRANCH  17  20
ENDBRANCH  14  17
ENDBRANCH  11  14
ENDBRANCH   8  11
ENDBRANCH   5   7
BRANCH   5  57
ATOM     57  CBJ A02 d          18.915   9.968   4.004  0.00  0.00    -0.038 C 
ATOM     58  H24 A02 d          19.159  10.650   3.175  0.00  0.00     0.036 H 
ATOM     59  H25 A02 d          19.833   9.472   4.353  0.00  0.00     0.036 H 
BRANCH  57  60
ATOM     60  CAZ A02 d          18.362  10.808   5.160  0.00  0.00    -0.061 C 
ATOM     61  H26 A02 d          18.752  10.418   6.112  0.00  0.00     0.033 H 
ATOM     62  H27 A02 d          17.264  10.745   5.161  0.00  0.00     0.033 H 
BRANCH  60  63
ATOM     63  CAS A02 d          18.788  12.283   5.000  0.00  0.00    -0.043 C 
ATOM     64  H28 A02 d          18.635  12.589   3.954  0.00  0.00     0.035 H 
ATOM     65  H29 A02 d          19.853  12.378   5.259  0.00  0.00     0.035 H 
BRANCH  63  66
ATOM     66  CAR A02 d          17.965  13.201   5.917  0.00  0.00     0.080 C 
ATOM     67  H30 A02 d          18.330  13.105   6.950  0.00  0.00     0.075 H 
ATOM     68  H31 A02 d          16.906  12.906   5.872  0.00  0.00     0.075 H 
BRANCH  66  69
ATOM     69  NAC A02 d          18.100  14.602   5.479  0.00  0.00    -0.079 N 
ATOM     70  H32 A02 d          18.871  14.679   4.833  0.00  0.00     0.274 HD
ATOM     71  H33 A02 d          18.274  15.189   6.281  0.00  0.00     0.274 HD
ATOM     72  H34 A02 d          17.250  14.896   5.025  0.00  0.00     0.274 HD
ENDBRANCH  66  69
ENDBRANCH  63  66
ENDBRANCH  60  63
ENDBRANCH  57  60
ENDBRANCH   5  57
ENDBRANCH   1   5
BRANCH   3  73
ATOM     73  CBC A02 d          18.509   5.073   3.627  0.00  0.00    -0.005 C 
ATOM     74  H43 A02 d          17.957   4.549   2.832  0.00  0.00     0.064 H 
ATOM     75  H44 A02 d          19.578   5.106   3.370  0.00  0.00     0.064 H 
BRANCH  73  76
ATOM     76  CAV A02 d          18.330   4.315   4.947  0.00  0.00    -0.050 C 
ATOM     77  H41 A02 d          17.281   3.999   5.044  0.00  0.00     0.035 H 
ATOM     78  H42 A02 d          18.981   3.429   4.947  0.00  0.00     0.035 H 
BRANCH  76  79
ATOM     79  CAT A02 d          18.699   5.212   6.135  0.00  0.00    -0.063 C 
ATOM     80  H39 A02 d          19.575   4.786   6.644  0.00  0.00     0.033 H 
ATOM     81  H40 A02 d          18.945   6.217   5.760  0.00  0.00     0.033 H 
BRANCH  79  82
ATOM     82  CAY A02 d          17.549   5.327   7.142  0.00  0.00    -0.057 C 
ATOM     83  H37 A02 d          17.970   5.419   8.154  0.00  0.00     0.033 H 
ATOM     84  H38 A02 d          16.959   6.224   6.906  0.00  0.00     0.033 H 
BRANCH  82  85
ATOM     85  CBH A02 d          16.628   4.096   7.096  0.00  0.00     0.009 C 
ATOM     86  H35 A02 d          17.083   3.334   6.448  0.00  0.00     0.047 H 
ATOM     87  H36 A02 d          16.519   3.695   8.115  0.00  0.00     0.047 H 
BRANCH  85  88
ATOM     88  CCA A02 d          15.235   4.449   6.548  0.00  0.00     0.218 C 
ATOM     89  OAJ A02 d          14.409   3.565   6.301  0.00  0.00    -0.274 OA
ATOM     90  NBT A02 d          15.009   5.758   6.383  0.00  0.00    -0.348 N 
ATOM     91  H46 A02 d          15.736   6.401   6.621  0.00  0.00     0.163 HD
BRANCH  90  92
ATOM     92  CCJ A02 d          13.730   6.301   5.861  0.00  0.00     0.089 C 
ATOM     93  H47 A02 d          13.466   5.735   4.956  0.00  0.00     0.087 H 
BRANCH  92  94
ATOM     94  CBK A02 d          13.871   7.794   5.463  0.00  0.00    -0.036 C 
ATOM     95  H48 A02 d          13.003   8.069   4.845  0.00  0.00     0.036 H 
ATOM     96  H49 A02 d          14.791   7.908   4.872  0.00  0.00     0.036 H 
BRANCH  94  97
ATOM     97  CBB A02 d          13.940   8.767   6.653  0.00  0.00    -0.048 C 
ATOM     98  H50 A02 d          13.728   8.210   7.577  0.00  0.00     0.035 H 
ATOM     99  H51 A02 d          13.180   9.550   6.514  0.00  0.00     0.035 H 
BRANCH  97 100
ATOM    100  CBF A02 d          15.319   9.433   6.782  0.00  0.00     0.009 C 
ATOM    101  H52 A02 d          15.208  10.435   7.223  0.00  0.00     0.064 H 
ATOM    102  H53 A02 d          15.784   9.520   5.789  0.00  0.00     0.064 H 
BRANCH 100 103
ATOM    103  NBP A02 d          16.159   8.593   7.655  0.00  0.00    -0.227 N 
ATOM    104  CBX A02 d          16.206   8.708   8.990  0.00  0.00     0.665 C 
ATOM    105  NAB A02 d          15.472   9.599   9.654  0.00  0.00    -0.235 N 
ATOM    106  NAE A02 d          17.009   7.894   9.669  0.00  0.00    -0.235 N 
ATOM    107  H55 A02 d          15.536   9.656  10.681  0.00  0.00     0.174 HD
ATOM    108  H56 A02 d          14.840  10.231   9.142  0.00  0.00     0.174 HD
ATOM    109  H57 A02 d          17.582   7.200   9.168  0.00  0.00     0.174 HD
ATOM    110  H58 A02 d          17.057   7.957  10.696  0.00  0.00     0.174 HD
ATOM    111  H54 A02 d          16.747   7.872   7.212  0.00  0.00     0.177 HD
ENDBRANCH 100 103
ENDBRANCH  97 100
ENDBRANCH  94  97
ENDBRANCH  92  94
BRANCH  92 112
ATOM    112  CCD A02 d          12.595   6.103   6.895  0.00  0.00     0.241 C 
ATOM    113  OAM A02 d          11.429   6.384   6.617  0.00  0.00    -0.271 OA
ATOM    114  N   A02 d          12.979   5.620   8.079  0.00  0.00    -0.346 N 
ATOM    115  H59 A02 d          13.949   5.420   8.218  0.00  0.00     0.163 HD
BRANCH 114 116
ATOM    116  CA  A02 d          12.043   5.365   9.197  0.00  0.00     0.089 C 
ATOM    117  H60 A02 d          11.403   6.250   9.325  0.00  0.00     0.087 H 
BRANCH 116 118
ATOM    118  CB  A02 d          12.834   5.135  10.491  0.00  0.00    -0.036 C 
ATOM    119  H61 A02 d          13.295   4.137  10.456  0.00  0.00     0.036 H 
ATOM    120  H62 A02 d          12.145   5.191  11.346  0.00  0.00     0.036 H 
BRANCH 118 121
ATOM    121  CG  A02 d          13.933   6.185  10.668  0.00  0.00    -0.048 C 
ATOM    122  H63 A02 d          14.185   6.610   9.685  0.00  0.00     0.035 H 
ATOM    123  H64 A02 d          14.824   5.702  11.097  0.00  0.00     0.035 H 
BRANCH 121 124
ATOM    124  CD  A02 d          13.482   7.309  11.595  0.00  0.00     0.009 C 
ATOM    125  H65 A02 d          13.379   8.245  11.027  0.00  0.00     0.064 H 
ATOM    126  H66 A02 d          14.217   7.448  12.402  0.00  0.00     0.064 H 
BRANCH 124 127
ATOM    127  NE  A02 d          12.191   6.922  12.156  0.00  0.00    -0.227 N 
ATOM    128  CZ  A02 d          11.227   7.767  12.517  0.00  0.00     0.665 C 
ATOM    129  NH1 A02 d          11.324   9.087  12.363  0.00  0.00    -0.235 N 
ATOM    130  NH2 A02 d          10.125   7.236  13.029  0.00  0.00    -0.235 N 
ATOM    131  H68 A02 d          10.549   9.698  12.658  0.00  0.00     0.174 HD
ATOM    132  H69 A02 d          12.175   9.496  11.949  0.00  0.00     0.174 HD
ATOM    133  H70 A02 d          10.051   6.216  13.147  0.00  0.00     0.174 HD
ATOM    134  H71 A02 d           9.342   7.845  13.308  0.00  0.00     0.174 HD
ATOM    135  H67 A02 d          12.012   5.915  12.284  0.00  0.00     0.177 HD
ENDBRANCH 124 127
ENDBRANCH 121 124
ENDBRANCH 118 121
ENDBRANCH 116 118
BRANCH 116 136
ATOM    136  C   A02 d          11.138   4.145   8.911  0.00  0.00     0.238 C 
ATOM    137  O   A02 d          10.066   3.979   9.498  0.00  0.00    -0.271 OA
ATOM    138  NAF A02 d          11.598   3.316   7.976  0.00  0.00    -0.368 N 
ATOM    139  H72 A02 d          11.075   2.500   7.729  0.00  0.00     0.159 HD
ATOM    140  H73 A02 d          12.468   3.509   7.521  0.00  0.00     0.159 HD
ENDBRANCH 116 136
ENDBRANCH 114 116
ENDBRANCH  92 112
ENDBRANCH  90  92
ENDBRANCH  85  88
ENDBRANCH  82  85
ENDBRANCH  79  82
ENDBRANCH  76  79
ENDBRANCH  73  76
ENDBRANCH   3  73
TORSDOF 36
ENDMDL
