MODEL 1
REMARK VINA RESULT:     -10.8      0.000      0.000
REMARK  12 active torsions:
REMARK  status: ('A' for Active; 'I' for Inactive)
REMARK    1  A    between atoms: C6_6  and  O19_13 
REMARK    2  A    between atoms: C10_7  and  C13_10 
REMARK    3  A    between atoms: C11_8  and  C14_11 
REMARK    4  A    between atoms: N12_9  and  C18_12 
REMARK    5  A    between atoms: C18_12  and  C24_18 
REMARK    6  A    between atoms: O19_13  and  C20_14 
REMARK    7  A    between atoms: C28_20  and  O36_25 
REMARK    8  A    between atoms: O36_25  and  C37_26 
REMARK    9  A    between atoms: C37_26  and  C38_27 
REMARK   10  A    between atoms: C37_26  and  C42_28 
REMARK   11  A    between atoms: C51_36  and  O57_39 
REMARK   12  A    between atoms: O57_39  and  C58_40 
ROOT
ATOM      1  C1  C03 d          15.727   4.991  15.762  0.00  0.00    -0.050 A 
ATOM      2  C2  C03 d          14.582   4.913  14.970  0.00  0.00    -0.067 A 
ATOM      3  C3  C03 d          14.760   4.893  13.429  0.00  0.00     0.005 A 
ATOM      4  C4  C03 d          15.967   4.958  12.836  0.00  0.00     0.049 A 
ATOM      5  C5  C03 d          17.138   5.039  13.659  0.00  0.00    -0.024 A 
ATOM      6  C6  C03 d          17.022   5.053  15.127  0.00  0.00     0.080 A 
ATOM      7  C10 C03 d          13.650   4.807  12.527  0.00  0.00     0.031 A 
ATOM      8  C11 C03 d          14.335   4.834  11.286  0.00  0.00     0.022 A 
ATOM      9  N12 C03 d          15.763   4.929  11.440  0.00  0.00    -0.345 N 
ATOM     10  H1  C03 d          15.645   5.006  16.843  0.00  0.00     0.087 H 
ATOM     11  H2  C03 d          13.596   4.869  15.418  0.00  0.00     0.085 H 
ATOM     12  H3  C03 d          18.118   5.090  13.197  0.00  0.00     0.091 H 
ENDROOT
BRANCH   9  13
ATOM     13  C18 C03 d          16.843   4.986  10.411  0.00  0.00     0.025 C 
ATOM     14  H7  C03 d          16.504   4.430   9.526  0.00  0.00     0.072 H 
ATOM     15  H8  C03 d          17.739   4.502  10.828  0.00  0.00     0.072 H 
BRANCH  13  16
ATOM     16  C24 C03 d          17.234   6.427   9.961  0.00  0.00    -0.016 A 
ATOM     17  C27 C03 d          16.405   7.574  10.346  0.00  0.00    -0.041 A 
ATOM     18  C28 C03 d          16.718   8.924   9.958  0.00  0.00     0.070 A 
ATOM     19  H9  C03 d          15.521   7.398  10.947  0.00  0.00     0.088 H 
ATOM     20  C29 C03 d          17.895   9.153   9.153  0.00  0.00    -0.049 A 
ATOM     21  C30 C03 d          18.735   8.062   8.754  0.00  0.00    -0.059 A 
ATOM     22  H10 C03 d          18.147  10.162   8.847  0.00  0.00     0.087 H 
ATOM     23  C31 C03 d          18.414   6.720   9.152  0.00  0.00     0.042 A 
ATOM     24  H11 C03 d          19.616   8.251   8.150  0.00  0.00     0.086 H 
ATOM     25 CL1  C03 d          19.499   5.516   8.615  0.00  0.00    -0.084 Cl
BRANCH  18  26
ATOM     26  O36 C03 d          15.831   9.947  10.424  0.00  0.00    -0.336 OA
BRANCH  26  27
ATOM     27  C37 C03 d          15.276  10.977   9.574  0.00  0.00     0.125 C 
ATOM     28  H12 C03 d          16.084  11.459   9.005  0.00  0.00     0.100 H 
BRANCH  27  29
ATOM     29  C38 C03 d          14.568  11.972  10.504  0.00  0.00    -0.042 C 
ATOM     30  H13 C03 d          14.125  12.783   9.905  0.00  0.00     0.031 H 
ATOM     31  H14 C03 d          15.297  12.396  11.212  0.00  0.00     0.031 H 
ATOM     32  H15 C03 d          13.775  11.453  11.062  0.00  0.00     0.031 H 
ENDBRANCH  27  29
BRANCH  27  33
ATOM     33  C42 C03 d          14.181  10.503   8.621  0.00  0.00     0.203 C 
ATOM     34  O44 C03 d          14.000  10.972   7.556  0.00  0.00    -0.646 OA
ATOM     35  O45 C03 d          13.447   9.500   9.144  0.00  0.00    -0.646 OA
ENDBRANCH  27  33
ENDBRANCH  26  27
ENDBRANCH  18  26
ENDBRANCH  13  16
ENDBRANCH   9  13
BRANCH   8  36
ATOM     36  C14 C03 d          13.665   4.774   9.915  0.00  0.00    -0.036 C 
ATOM     37  H4  C03 d          12.574   4.704  10.043  0.00  0.00     0.035 H 
ATOM     38  H5  C03 d          14.028   3.892   9.368  0.00  0.00     0.035 H 
ATOM     39  H6  C03 d          13.911   5.684   9.348  0.00  0.00     0.035 H 
ENDBRANCH   8  36
BRANCH   7  40
ATOM     40  C13 C03 d          12.171   4.719  12.866  0.00  0.00     0.110 A 
ATOM     41  N46 C03 d          11.086   5.447  12.446  0.00  0.00    -0.126 NA
ATOM     42  O47 C03 d           9.924   5.043  13.028  0.00  0.00    -0.212 OA
ATOM     43  C48 C03 d          10.186   4.013  13.874  0.00  0.00     0.116 A 
ATOM     44  C49 C03 d          11.593   3.778  13.786  0.00  0.00     0.032 A 
ATOM     45  C50 C03 d           9.336   3.270  14.702  0.00  0.00    -0.015 A 
ATOM     46  C53 C03 d          12.134   2.669  14.634  0.00  0.00    -0.065 A 
ATOM     47  C52 C03 d          11.288   1.910  15.475  0.00  0.00    -0.050 A 
ATOM     48  H18 C03 d          13.195   2.444  14.603  0.00  0.00     0.085 H 
ATOM     49  C51 C03 d           9.887   2.192  15.533  0.00  0.00     0.070 A 
ATOM     50  H17 C03 d          11.703   1.112  16.079  0.00  0.00     0.087 H 
ATOM     51  H16 C03 d           8.275   3.490  14.731  0.00  0.00     0.092 H 
BRANCH  49  52
ATOM     52  O57 C03 d           8.984   1.503  16.333  0.00  0.00    -0.356 OA
BRANCH  52  53
ATOM     53  C58 C03 d           8.274   2.195  17.338  0.00  0.00     0.010 C 
ATOM     54  H19 C03 d           7.611   1.494  17.867  0.00  0.00     0.066 H 
ATOM     55  H20 C03 d           7.673   2.993  16.879  0.00  0.00     0.066 H 
ATOM     56  H21 C03 d           8.986   2.636  18.052  0.00  0.00     0.066 H 
ENDBRANCH  52  53
ENDBRANCH  49  52
ENDBRANCH   7  40
BRANCH   6  57
ATOM     57  O19 C03 d          18.204   5.123  15.834  0.00  0.00    -0.255 OA
BRANCH  57  58
ATOM     58  C20 C03 d          18.801   4.005  16.440  0.00  0.00     0.530 C 
ATOM     59  F21 C03 d          19.957   4.411  16.919  0.00  0.00    -0.144 F 
ATOM     60  F22 C03 d          19.004   3.038  15.527  0.00  0.00    -0.144 F 
ATOM     61  F23 C03 d          18.036   3.567  17.433  0.00  0.00    -0.144 F 
ENDBRANCH  57  58
ENDBRANCH   6  57
TORSDOF 12
ENDMDL
