MODEL 1
REMARK VINA RESULT:     -10.7      0.000      0.000
REMARK  12 active torsions:
REMARK  status: ('A' for Active; 'I' for Inactive)
REMARK    1  A    between atoms: C6_6  and  O19_13 
REMARK    2  A    between atoms: C10_7  and  C13_10 
REMARK    3  A    between atoms: C11_8  and  C14_11 
REMARK    4  A    between atoms: N12_9  and  C18_12 
REMARK    5  A    between atoms: C18_12  and  C24_18 
REMARK    6  A    between atoms: O19_13  and  C20_14 
REMARK    7  A    between atoms: C28_20  and  O36_25 
REMARK    8  A    between atoms: O36_25  and  C37_26 
REMARK    9  A    between atoms: C37_26  and  C38_27 
REMARK   10  A    between atoms: C37_26  and  C42_28 
REMARK   11  A    between atoms: C51_36  and  O57_39 
REMARK   12  A    between atoms: O57_39  and  C58_40 
ROOT
ATOM      1  C1  C03 d          15.405   4.960  15.759  0.00  0.00    -0.050 A 
ATOM      2  C2  C03 d          14.309   4.856  14.903  0.00  0.00    -0.067 A 
ATOM      3  C3  C03 d          14.577   4.786  13.377  0.00  0.00     0.005 A 
ATOM      4  C4  C03 d          15.817   4.832  12.854  0.00  0.00     0.049 A 
ATOM      5  C5  C03 d          16.938   4.940  13.742  0.00  0.00    -0.024 A 
ATOM      6  C6  C03 d          16.735   5.002  15.199  0.00  0.00     0.080 A 
ATOM      7  C10 C03 d          13.523   4.670  12.414  0.00  0.00     0.031 A 
ATOM      8  C11 C03 d          14.279   4.657  11.216  0.00  0.00     0.022 A 
ATOM      9  N12 C03 d          15.696   4.757  11.451  0.00  0.00    -0.345 N 
ATOM     10  H1  C03 d          15.259   5.010  16.832  0.00  0.00     0.087 H 
ATOM     11  H2  C03 d          13.298   4.825  15.294  0.00  0.00     0.085 H 
ATOM     12  H3  C03 d          17.943   4.977  13.337  0.00  0.00     0.091 H 
ENDROOT
BRANCH   9  13
ATOM     13  C18 C03 d          16.835   4.782  10.486  0.00  0.00     0.025 C 
ATOM     14  H7  C03 d          16.540   4.214   9.592  0.00  0.00     0.072 H 
ATOM     15  H8  C03 d          17.698   4.294  10.963  0.00  0.00     0.072 H 
BRANCH  13  16
ATOM     16  C24 C03 d          17.272   6.210  10.035  0.00  0.00    -0.016 A 
ATOM     17  C27 C03 d          16.492   7.385  10.436  0.00  0.00    -0.041 A 
ATOM     18  C28 C03 d          16.848   8.724  10.049  0.00  0.00     0.070 A 
ATOM     19  H9  C03 d          15.611   7.239  11.051  0.00  0.00     0.088 H 
ATOM     20  C29 C03 d          18.020   8.913   9.226  0.00  0.00    -0.049 A 
ATOM     21  C30 C03 d          18.813   7.793   8.810  0.00  0.00    -0.059 A 
ATOM     22  H10 C03 d          18.304   9.913   8.920  0.00  0.00     0.087 H 
ATOM     23  C31 C03 d          18.449   6.462   9.209  0.00  0.00     0.042 A 
ATOM     24  H11 C03 d          19.691   7.952   8.193  0.00  0.00     0.086 H 
ATOM     25 CL1  C03 d          19.481   5.221   8.651  0.00  0.00    -0.084 Cl
BRANCH  18  26
ATOM     26  O36 C03 d          16.006   9.777  10.531  0.00  0.00    -0.336 OA
BRANCH  26  27
ATOM     27  C37 C03 d          15.330  10.723   9.672  0.00  0.00     0.125 C 
ATOM     28  H12 C03 d          16.074  11.342   9.150  0.00  0.00     0.100 H 
BRANCH  27  29
ATOM     29  C38 C03 d          14.428  11.569  10.582  0.00  0.00    -0.042 C 
ATOM     30  H13 C03 d          13.683  10.919  11.067  0.00  0.00     0.031 H 
ATOM     31  H14 C03 d          13.912  12.332   9.980  0.00  0.00     0.031 H 
ATOM     32  H15 C03 d          15.041  12.061  11.351  0.00  0.00     0.031 H 
ENDBRANCH  27  29
BRANCH  27  33
ATOM     33  C42 C03 d          14.371  10.100   8.659  0.00  0.00     0.203 C 
ATOM     34  O44 C03 d          14.289  10.457   7.541  0.00  0.00    -0.646 OA
ATOM     35  O45 C03 d          13.631   9.111   9.199  0.00  0.00    -0.646 OA
ENDBRANCH  27  33
ENDBRANCH  26  27
ENDBRANCH  18  26
ENDBRANCH  13  16
ENDBRANCH   9  13
BRANCH   8  36
ATOM     36  C14 C03 d          13.691   4.552   9.811  0.00  0.00    -0.036 C 
ATOM     37  H4  C03 d          13.223   3.565   9.682  0.00  0.00     0.035 H 
ATOM     38  H5  C03 d          14.493   4.678   9.068  0.00  0.00     0.035 H 
ATOM     39  H6  C03 d          12.935   5.338   9.671  0.00  0.00     0.035 H 
ENDBRANCH   8  36
BRANCH   7  40
ATOM     40  C13 C03 d          12.026   4.591  12.668  0.00  0.00     0.110 A 
ATOM     41  N46 C03 d          10.968   5.306  12.162  0.00  0.00    -0.126 NA
ATOM     42  O47 C03 d           9.774   4.920  12.687  0.00  0.00    -0.212 OA
ATOM     43  C48 C03 d           9.984   3.917  13.579  0.00  0.00     0.116 A 
ATOM     44  C49 C03 d          11.393   3.680  13.582  0.00  0.00     0.032 A 
ATOM     45  C50 C03 d           9.085   3.200  14.379  0.00  0.00    -0.015 A 
ATOM     46  C53 C03 d          11.882   2.598  14.495  0.00  0.00    -0.065 A 
ATOM     47  C52 C03 d          10.986   1.866  15.308  0.00  0.00    -0.050 A 
ATOM     48  H18 C03 d          12.942   2.373  14.533  0.00  0.00     0.085 H 
ATOM     49  C51 C03 d           9.585   2.149  15.274  0.00  0.00     0.070 A 
ATOM     50  H17 C03 d          11.364   1.088  15.960  0.00  0.00     0.087 H 
ATOM     51  H16 C03 d           8.025   3.420  14.338  0.00  0.00     0.092 H 
BRANCH  49  52
ATOM     52  O57 C03 d           8.635   1.485  16.041  0.00  0.00    -0.356 OA
BRANCH  52  53
ATOM     53  C58 C03 d           8.567   1.729  17.430  0.00  0.00     0.010 C 
ATOM     54  H19 C03 d           7.973   0.938  17.912  0.00  0.00     0.066 H 
ATOM     55  H20 C03 d           8.090   2.705  17.607  0.00  0.00     0.066 H 
ATOM     56  H21 C03 d           9.583   1.735  17.852  0.00  0.00     0.066 H 
ENDBRANCH  52  53
ENDBRANCH  49  52
ENDBRANCH   7  40
BRANCH   6  57
ATOM     57  O19 C03 d          17.874   5.096  15.972  0.00  0.00    -0.255 OA
BRANCH  57  58
ATOM     58  C20 C03 d          18.478   3.984  16.583  0.00  0.00     0.530 C 
ATOM     59  F21 C03 d          18.686   3.101  15.630  0.00  0.00    -0.144 F 
ATOM     60  F22 C03 d          17.656   3.464  17.512  0.00  0.00    -0.144 F 
ATOM     61  F23 C03 d          19.638   4.339  17.122  0.00  0.00    -0.144 F 
ENDBRANCH  57  58
ENDBRANCH   6  57
TORSDOF 12
ENDMDL
