REMARK  5 active torsions:
REMARK  status: ('A' for Active; 'I' for Inactive)
REMARK    1  A    between atoms: C1_1  and  C7_7 
REMARK    2  A    between atoms: C7_7  and  N1_8 
REMARK    3  A    between atoms: C8_12  and  C1'_13 
REMARK    4  A    between atoms: C5'_17  and  C1''_20 
REMARK    5  A    between atoms: C6'_18  and  O6'_19 
ROOT
ATOM      1  C1' MOL d          43.493  -1.860  32.210  0.00  0.00     0.025 A 
ATOM      2  C2' MOL d          43.246  -2.961  33.023  0.00  0.00    -0.068 A 
ATOM      3  C3' MOL d          42.984  -2.826  34.367  0.00  0.00    -0.081 A 
ATOM      4  C4' MOL d          42.959  -1.575  34.936  0.00  0.00    -0.070 A 
ATOM      5  C5' MOL d          43.198  -0.406  34.179  0.00  0.00     0.008 A 
ATOM      6  C6' MOL d          43.464  -0.589  32.821  0.00  0.00     0.089 A 
ATOM      7  H10 MOL d          43.260  -3.953  32.586  0.00  0.00     0.085 H 
ATOM      8  H11 MOL d          42.798  -3.704  34.975  0.00  0.00     0.083 H 
ATOM      9  H12 MOL d          42.750  -1.483  35.996  0.00  0.00     0.085 H 
ENDROOT
BRANCH   1  10
ATOM     10  C8  MOL d          43.752  -2.010  30.846  0.00  0.00     0.046 A 
ATOM     11  N3  MOL d          44.138  -1.027  30.093  0.00  0.00    -0.355 N 
ATOM     12  C4  MOL d          44.219  -1.522  28.912  0.00  0.00     0.043 A 
ATOM     13  H8  MOL d          44.337  -0.058  30.381  0.00  0.00     0.166 HD
ATOM     14  C3  MOL d          44.597  -0.910  27.763  0.00  0.00    -0.055 A 
ATOM     15  C5  MOL d          43.876  -2.811  28.995  0.00  0.00    -0.006 A 
ATOM     16  C2  MOL d          44.616  -1.699  26.614  0.00  0.00    -0.067 A 
ATOM     17  H2  MOL d          44.870   0.139  27.739  0.00  0.00     0.087 H 
ATOM     18  C1  MOL d          44.257  -3.090  26.623  0.00  0.00     0.008 A 
ATOM     19  H1  MOL d          44.914  -1.245  25.676  0.00  0.00     0.085 H 
ATOM     20  C6  MOL d          43.874  -3.649  27.875  0.00  0.00    -0.057 A 
ATOM     21  H3  MOL d          43.590  -4.692  27.958  0.00  0.00     0.086 H 
ATOM     22  CN4 MOL d          43.563  -3.165  30.236  0.00  0.00    -0.044 A 
ATOM     23  H9  MOL d          43.244  -4.127  30.634  0.00  0.00     0.088 H 
BRANCH  18  24
ATOM     24  C7  MOL d          44.309  -3.833  25.428  0.00  0.00     0.102 C 
ATOM     25  N2  MOL d          44.639  -3.235  24.300  0.00  0.00    -0.385 N 
ATOM     26  H6  MOL d          44.859  -2.229  24.296  0.00  0.00     0.157 HD
ATOM     27  H7  MOL d          44.676  -3.774  23.423  0.00  0.00     0.157 HD
BRANCH  24  28
ATOM     28  N1  MOL d          44.029  -5.116  25.428  0.00  0.00    -0.385 N 
ATOM     29  H4  MOL d          44.069  -5.652  24.549  0.00  0.00     0.157 HD
ATOM     30  H5  MOL d          43.769  -5.586  26.307  0.00  0.00     0.157 HD
ENDBRANCH  24  28
ENDBRANCH  18  24
ENDBRANCH   1  10
BRANCH   6  31
ATOM     31  O6' MOL d          43.727   0.521  32.046  0.00  0.00    -0.359 OA
ATOM     32  H13 MOL d          43.889   0.249  31.150  0.00  0.00     0.217 HD
ENDBRANCH   6  31
BRANCH   5  33
ATOM     33  C1' MOL d          43.138   0.868  34.792  0.00  0.00    -0.023 A 
ATOM     34  C2' MOL d          44.127   1.828  34.631  0.00  0.00    -0.072 A 
ATOM     35  C3' MOL d          44.073   3.055  35.257  0.00  0.00    -0.082 A 
ATOM     36  H14 MOL d          44.972   1.605  33.990  0.00  0.00     0.084 H 
ATOM     37  C4' MOL d          43.017   3.377  36.072  0.00  0.00    -0.083 A 
ATOM     38  H15 MOL d          44.872   3.772  35.104  0.00  0.00     0.083 H 
ATOM     39  C5' MOL d          41.994   2.458  36.269  0.00  0.00    -0.082 A 
ATOM     40  H16 MOL d          42.981   4.344  36.560  0.00  0.00     0.083 H 
ATOM     41  C6' MOL d          42.062   1.222  35.631  0.00  0.00    -0.072 A 
ATOM     42  H17 MOL d          41.154   2.700  36.911  0.00  0.00     0.083 H 
ATOM     43  H18 MOL d          41.261   0.508  35.785  0.00  0.00     0.084 H 
ENDBRANCH   5  33
TORSDOF 5
