MODEL 1
REMARK VINA RESULT:      -8.7      0.000      0.000
REMARK  5 active torsions:
REMARK  status: ('A' for Active; 'I' for Inactive)
REMARK    1  A    between atoms: C1_1  and  C7_7 
REMARK    2  A    between atoms: C7_7  and  N1_8 
REMARK    3  A    between atoms: C8_12  and  C1'_13 
REMARK    4  A    between atoms: C5'_17  and  C1''_20 
REMARK    5  A    between atoms: C6'_18  and  O6'_19 
ROOT
ATOM      1  C1' MOL d          43.176  -2.109  32.161  0.00  0.00     0.025 A 
ATOM      2  C2' MOL d          42.244  -2.950  32.760  0.00  0.00    -0.068 A 
ATOM      3  C3' MOL d          41.947  -2.865  34.101  0.00  0.00    -0.081 A 
ATOM      4  C4' MOL d          42.577  -1.925  34.882  0.00  0.00    -0.070 A 
ATOM      5  C5' MOL d          43.535  -1.033  34.350  0.00  0.00     0.008 A 
ATOM      6  C6' MOL d          43.810  -1.157  32.987  0.00  0.00     0.089 A 
ATOM      7  H10 MOL d          41.738  -3.693  32.154  0.00  0.00     0.085 H 
ATOM      8  H11 MOL d          41.218  -3.536  34.539  0.00  0.00     0.083 H 
ATOM      9  H12 MOL d          42.332  -1.868  35.937  0.00  0.00     0.085 H 
ENDROOT
BRANCH   1  10
ATOM     10  C8  MOL d          43.465  -2.202  30.798  0.00  0.00     0.046 A 
ATOM     11  N3  MOL d          43.671  -1.161  30.052  0.00  0.00    -0.355 N 
ATOM     12  C4  MOL d          43.846  -1.627  28.869  0.00  0.00     0.043 A 
ATOM     13  H8  MOL d          43.691  -0.174  30.346  0.00  0.00     0.166 HD
ATOM     14  C3  MOL d          44.114  -0.950  27.725  0.00  0.00    -0.055 A 
ATOM     15  C5  MOL d          43.741  -2.957  28.944  0.00  0.00    -0.006 A 
ATOM     16  C2  MOL d          44.281  -1.716  26.573  0.00  0.00    -0.067 A 
ATOM     17  H2  MOL d          44.193   0.131  27.708  0.00  0.00     0.087 H 
ATOM     18  C1  MOL d          44.178  -3.149  26.573  0.00  0.00     0.008 A 
ATOM     19  H1  MOL d          44.497  -1.211  25.639  0.00  0.00     0.085 H 
ATOM     20  C6  MOL d          43.895  -3.775  27.820  0.00  0.00    -0.057 A 
ATOM     21  H3  MOL d          43.804  -4.853  27.896  0.00  0.00     0.086 H 
ATOM     22  CN4 MOL d          43.490  -3.369  30.181  0.00  0.00    -0.044 A 
ATOM     23  H9  MOL d          43.348  -4.375  30.573  0.00  0.00     0.088 H 
BRANCH  18  24
ATOM     24  C7  MOL d          44.369  -3.864  25.375  0.00  0.00     0.102 C 
ATOM     25  N2  MOL d          44.632  -3.212  24.259  0.00  0.00    -0.385 N 
ATOM     26  H6  MOL d          44.698  -2.184  24.267  0.00  0.00     0.157 HD
ATOM     27  H7  MOL d          44.770  -3.730  23.380  0.00  0.00     0.157 HD
BRANCH  24  28
ATOM     28  N1  MOL d          44.285  -5.174  25.359  0.00  0.00    -0.385 N 
ATOM     29  H4  MOL d          43.489  -5.634  24.895  0.00  0.00     0.157 HD
ATOM     30  H5  MOL d          45.016  -5.742  25.812  0.00  0.00     0.157 HD
ENDBRANCH  24  28
ENDBRANCH  18  24
ENDBRANCH   1  10
BRANCH   6  31
ATOM     31  O6' MOL d          44.755  -0.324  32.427  0.00  0.00    -0.359 OA
ATOM     32  H13 MOL d          44.333   0.472  32.122  0.00  0.00     0.217 HD
ENDBRANCH   6  31
BRANCH   5  33
ATOM     33  C1' MOL d          44.145  -0.061  35.178  0.00  0.00    -0.023 A 
ATOM     34  C2' MOL d          45.161  -0.365  36.073  0.00  0.00    -0.072 A 
ATOM     35  C3' MOL d          45.727   0.585  36.896  0.00  0.00    -0.082 A 
ATOM     36  H14 MOL d          45.522  -1.385  36.126  0.00  0.00     0.084 H 
ATOM     37  C4' MOL d          45.301   1.889  36.854  0.00  0.00    -0.083 A 
ATOM     38  H15 MOL d          46.516   0.299  37.583  0.00  0.00     0.083 H 
ATOM     39  C5' MOL d          44.289   2.255  35.975  0.00  0.00    -0.082 A 
ATOM     40  H16 MOL d          45.752   2.630  37.503  0.00  0.00     0.083 H 
ATOM     41  C6' MOL d          43.726   1.285  35.150  0.00  0.00    -0.072 A 
ATOM     42  H17 MOL d          43.943   3.282  35.932  0.00  0.00     0.083 H 
ATOM     43  H18 MOL d          42.938   1.574  34.464  0.00  0.00     0.084 H 
ENDBRANCH   5  33
TORSDOF 5
ENDMDL
MODEL 2
REMARK VINA RESULT:      -7.0      0.953      1.776
REMARK  5 active torsions:
REMARK  status: ('A' for Active; 'I' for Inactive)
REMARK    1  A    between atoms: C1_1  and  C7_7 
REMARK    2  A    between atoms: C7_7  and  N1_8 
REMARK    3  A    between atoms: C8_12  and  C1'_13 
REMARK    4  A    between atoms: C5'_17  and  C1''_20 
REMARK    5  A    between atoms: C6'_18  and  O6'_19 
ROOT
ATOM      1  C1' MOL d          42.981  -2.188  32.620  0.00  0.00     0.025 A 
ATOM      2  C2' MOL d          42.102  -2.967  33.364  0.00  0.00    -0.068 A 
ATOM      3  C3' MOL d          41.837  -2.699  34.687  0.00  0.00    -0.081 A 
ATOM      4  C4' MOL d          42.449  -1.634  35.304  0.00  0.00    -0.070 A 
ATOM      5  C5' MOL d          43.354  -0.793  34.618  0.00  0.00     0.008 A 
ATOM      6  C6' MOL d          43.597  -1.104  33.279  0.00  0.00     0.089 A 
ATOM      7  H10 MOL d          41.611  -3.809  32.889  0.00  0.00     0.085 H 
ATOM      8  H11 MOL d          41.149  -3.327  35.242  0.00  0.00     0.083 H 
ATOM      9  H12 MOL d          42.231  -1.433  36.347  0.00  0.00     0.085 H 
ENDROOT
BRANCH   1  10
ATOM     10  C8  MOL d          43.237  -2.468  31.275  0.00  0.00     0.046 A 
ATOM     11  N3  MOL d          43.437  -3.671  30.835  0.00  0.00    -0.355 N 
ATOM     12  C4  MOL d          43.691  -3.531  29.585  0.00  0.00     0.043 A 
ATOM     13  H8  MOL d          43.399  -4.549  31.372  0.00  0.00     0.166 HD
ATOM     14  C3  MOL d          43.954  -4.490  28.663  0.00  0.00    -0.055 A 
ATOM     15  C5  MOL d          43.631  -2.225  29.308  0.00  0.00    -0.006 A 
ATOM     16  C2  MOL d          44.175  -4.056  27.358  0.00  0.00    -0.067 A 
ATOM     17  H2  MOL d          43.992  -5.541  28.929  0.00  0.00     0.087 H 
ATOM     18  C1  MOL d          44.132  -2.669  26.984  0.00  0.00     0.008 A 
ATOM     19  H1  MOL d          44.388  -4.794  26.593  0.00  0.00     0.085 H 
ATOM     20  C6  MOL d          43.847  -1.732  28.017  0.00  0.00    -0.057 A 
ATOM     21  H3  MOL d          43.798  -0.669  27.810  0.00  0.00     0.086 H 
ATOM     22  CN4 MOL d          43.341  -1.501  30.383  0.00  0.00    -0.044 A 
ATOM     23  H9  MOL d          43.223  -0.424  30.495  0.00  0.00     0.088 H 
BRANCH  18  24
ATOM     24  C7  MOL d          44.353  -2.299  25.644  0.00  0.00     0.102 C 
ATOM     25  N2  MOL d          44.153  -1.051  25.269  0.00  0.00    -0.385 N 
ATOM     26  H6  MOL d          43.837  -0.351  25.955  0.00  0.00     0.157 HD
ATOM     27  H7  MOL d          44.311  -0.776  24.289  0.00  0.00     0.157 HD
BRANCH  24  28
ATOM     28  N1  MOL d          44.756  -3.187  24.765  0.00  0.00    -0.385 N 
ATOM     29  H4  MOL d          44.278  -4.098  24.697  0.00  0.00     0.157 HD
ATOM     30  H5  MOL d          45.549  -2.974  24.143  0.00  0.00     0.157 HD
ENDBRANCH  24  28
ENDBRANCH  18  24
ENDBRANCH   1  10
BRANCH   6  31
ATOM     31  O6' MOL d          44.491  -0.326  32.574  0.00  0.00    -0.359 OA
ATOM     32  H13 MOL d          44.080  -0.020  31.773  0.00  0.00     0.217 HD
ENDBRANCH   6  31
BRANCH   5  33
ATOM     33  C1' MOL d          43.945   0.311  35.276  0.00  0.00    -0.023 A 
ATOM     34  C2' MOL d          43.441   1.601  35.184  0.00  0.00    -0.072 A 
ATOM     35  C3' MOL d          44.042   2.674  35.805  0.00  0.00    -0.082 A 
ATOM     36  H14 MOL d          42.542   1.770  34.602  0.00  0.00     0.084 H 
ATOM     37  C4' MOL d          45.178   2.500  36.556  0.00  0.00    -0.083 A 
ATOM     38  H15 MOL d          43.614   3.665  35.701  0.00  0.00     0.083 H 
ATOM     39  C5' MOL d          45.727   1.231  36.689  0.00  0.00    -0.082 A 
ATOM     40  H16 MOL d          45.644   3.349  37.042  0.00  0.00     0.083 H 
ATOM     41  C6' MOL d          45.110   0.156  36.054  0.00  0.00    -0.072 A 
ATOM     42  H17 MOL d          46.625   1.080  37.278  0.00  0.00     0.083 H 
ATOM     43  H18 MOL d          45.540  -0.833  36.162  0.00  0.00     0.084 H 
ENDBRANCH   5  33
TORSDOF 5
ENDMDL
MODEL 3
REMARK VINA RESULT:      -6.9      2.842      8.354
REMARK  5 active torsions:
REMARK  status: ('A' for Active; 'I' for Inactive)
REMARK    1  A    between atoms: C1_1  and  C7_7 
REMARK    2  A    between atoms: C7_7  and  N1_8 
REMARK    3  A    between atoms: C8_12  and  C1'_13 
REMARK    4  A    between atoms: C5'_17  and  C1''_20 
REMARK    5  A    between atoms: C6'_18  and  O6'_19 
ROOT
ATOM      1  C1' MOL d          43.426  -2.438  31.299  0.00  0.00     0.025 A 
ATOM      2  C2' MOL d          43.070  -3.712  31.726  0.00  0.00    -0.068 A 
ATOM      3  C3' MOL d          42.968  -4.769  30.851  0.00  0.00    -0.081 A 
ATOM      4  C4' MOL d          43.226  -4.576  29.514  0.00  0.00    -0.070 A 
ATOM      5  C5' MOL d          43.595  -3.313  29.000  0.00  0.00     0.008 A 
ATOM      6  C6' MOL d          43.682  -2.268  29.922  0.00  0.00     0.089 A 
ATOM      7  H10 MOL d          42.866  -3.878  32.778  0.00  0.00     0.085 H 
ATOM      8  H11 MOL d          42.686  -5.750  31.214  0.00  0.00     0.083 H 
ATOM      9  H12 MOL d          43.144  -5.418  28.836  0.00  0.00     0.085 H 
ENDROOT
BRANCH   1  10
ATOM     10  C8  MOL d          43.531  -1.375  32.198  0.00  0.00     0.046 A 
ATOM     11  N3  MOL d          44.602  -0.653  32.309  0.00  0.00    -0.355 N 
ATOM     12  C4  MOL d          44.352   0.175  33.258  0.00  0.00     0.043 A 
ATOM     13  H8  MOL d          45.468  -0.727  31.755  0.00  0.00     0.166 HD
ATOM     14  C3  MOL d          45.143   1.157  33.753  0.00  0.00    -0.055 A 
ATOM     15  C5  MOL d          43.114  -0.079  33.692  0.00  0.00    -0.006 A 
ATOM     16  C2  MOL d          44.606   1.931  34.781  0.00  0.00    -0.067 A 
ATOM     17  H2  MOL d          46.143   1.331  33.371  0.00  0.00     0.087 H 
ATOM     18  C1  MOL d          43.285   1.716  35.303  0.00  0.00     0.008 A 
ATOM     19  H1  MOL d          45.209   2.727  35.202  0.00  0.00     0.085 H 
ATOM     20  C6  MOL d          42.525   0.663  34.721  0.00  0.00    -0.057 A 
ATOM     21  H3  MOL d          41.521   0.443  35.065  0.00  0.00     0.086 H 
ATOM     22  CN4 MOL d          42.548  -1.082  33.030  0.00  0.00    -0.044 A 
ATOM     23  H9  MOL d          41.562  -1.530  33.140  0.00  0.00     0.088 H 
BRANCH  18  24
ATOM     24  C7  MOL d          42.799   2.542  36.335  0.00  0.00     0.102 C 
ATOM     25  N2  MOL d          42.962   3.848  36.259  0.00  0.00    -0.385 N 
ATOM     26  H6  MOL d          43.443   4.260  35.446  0.00  0.00     0.157 HD
ATOM     27  H7  MOL d          42.610   4.456  37.012  0.00  0.00     0.157 HD
BRANCH  24  28
ATOM     28  N1  MOL d          42.186   2.021  37.373  0.00  0.00    -0.385 N 
ATOM     29  H4  MOL d          41.539   2.597  37.931  0.00  0.00     0.157 HD
ATOM     30  H5  MOL d          42.353   1.038  37.629  0.00  0.00     0.157 HD
ENDBRANCH  24  28
ENDBRANCH  18  24
ENDBRANCH   1  10
BRANCH   6  31
ATOM     31  O6' MOL d          44.015  -1.011  29.463  0.00  0.00    -0.359 OA
ATOM     32  H13 MOL d          43.335  -0.395  29.710  0.00  0.00     0.217 HD
ENDBRANCH   6  31
BRANCH   5  33
ATOM     33  C1' MOL d          43.879  -3.156  27.623  0.00  0.00    -0.023 A 
ATOM     34  C2' MOL d          44.208  -1.933  27.057  0.00  0.00    -0.072 A 
ATOM     35  C3' MOL d          44.454  -1.786  25.708  0.00  0.00    -0.082 A 
ATOM     36  H14 MOL d          44.274  -1.061  27.698  0.00  0.00     0.084 H 
ATOM     37  C4' MOL d          44.386  -2.866  24.865  0.00  0.00    -0.083 A 
ATOM     38  H15 MOL d          44.704  -0.809  25.310  0.00  0.00     0.083 H 
ATOM     39  C5' MOL d          44.065  -4.118  25.374  0.00  0.00    -0.082 A 
ATOM     40  H16 MOL d          44.581  -2.743  23.806  0.00  0.00     0.083 H 
ATOM     41  C6' MOL d          43.818  -4.252  26.738  0.00  0.00    -0.072 A 
ATOM     42  H17 MOL d          44.007  -4.980  24.718  0.00  0.00     0.083 H 
ATOM     43  H18 MOL d          43.570  -5.230  27.132  0.00  0.00     0.084 H 
ENDBRANCH   5  33
TORSDOF 5
ENDMDL
MODEL 4
REMARK VINA RESULT:      -5.8      1.991      3.719
REMARK  5 active torsions:
REMARK  status: ('A' for Active; 'I' for Inactive)
REMARK    1  A    between atoms: C1_1  and  C7_7 
REMARK    2  A    between atoms: C7_7  and  N1_8 
REMARK    3  A    between atoms: C8_12  and  C1'_13 
REMARK    4  A    between atoms: C5'_17  and  C1''_20 
REMARK    5  A    between atoms: C6'_18  and  O6'_19 
ROOT
ATOM      1  C1' MOL d          43.516  -1.975  32.248  0.00  0.00     0.025 A 
ATOM      2  C2' MOL d          43.872  -0.707  32.695  0.00  0.00    -0.068 A 
ATOM      3  C3' MOL d          43.796  -0.359  34.023  0.00  0.00    -0.081 A 
ATOM      4  C4' MOL d          43.360  -1.278  34.947  0.00  0.00    -0.070 A 
ATOM      5  C5' MOL d          42.981  -2.588  34.575  0.00  0.00     0.008 A 
ATOM      6  C6' MOL d          43.070  -2.898  33.217  0.00  0.00     0.089 A 
ATOM      7  H10 MOL d          44.220   0.026  31.976  0.00  0.00     0.085 H 
ATOM      8  H11 MOL d          44.078   0.639  34.340  0.00  0.00     0.083 H 
ATOM      9  H12 MOL d          43.305  -0.990  35.991  0.00  0.00     0.085 H 
ENDROOT
BRANCH   1  10
ATOM     10  C8  MOL d          43.604  -2.319  30.897  0.00  0.00     0.046 A 
ATOM     11  N3  MOL d          43.487  -3.540  30.475  0.00  0.00    -0.355 N 
ATOM     12  C4  MOL d          43.678  -3.475  29.208  0.00  0.00     0.043 A 
ATOM     13  H8  MOL d          43.284  -4.380  31.035  0.00  0.00     0.166 HD
ATOM     14  C3  MOL d          43.645  -4.477  28.295  0.00  0.00    -0.055 A 
ATOM     15  C5  MOL d          43.905  -2.194  28.903  0.00  0.00    -0.006 A 
ATOM     16  C2  MOL d          43.869  -4.119  26.967  0.00  0.00    -0.067 A 
ATOM     17  H2  MOL d          43.455  -5.505  28.584  0.00  0.00     0.087 H 
ATOM     18  C1  MOL d          44.123  -2.764  26.563  0.00  0.00     0.008 A 
ATOM     19  H1  MOL d          43.849  -4.893  26.209  0.00  0.00     0.085 H 
ATOM     20  C6  MOL d          44.138  -1.777  27.588  0.00  0.00    -0.057 A 
ATOM     21  H3  MOL d          44.324  -0.734  27.357  0.00  0.00     0.086 H 
ATOM     22  CN4 MOL d          43.868  -1.412  29.975  0.00  0.00    -0.044 A 
ATOM     23  H9  MOL d          44.012  -0.336  30.068  0.00  0.00     0.088 H 
BRANCH  18  24
ATOM     24  C7  MOL d          44.330  -2.468  25.202  0.00  0.00     0.102 C 
ATOM     25  N2  MOL d          44.624  -3.438  24.359  0.00  0.00    -0.385 N 
ATOM     26  H6  MOL d          44.700  -4.408  24.697  0.00  0.00     0.157 HD
ATOM     27  H7  MOL d          44.778  -3.226  23.362  0.00  0.00     0.157 HD
BRANCH  24  28
ATOM     28  N1  MOL d          44.234  -1.233  24.766  0.00  0.00    -0.385 N 
ATOM     29  H4  MOL d          44.379  -0.445  25.414  0.00  0.00     0.157 HD
ATOM     30  H5  MOL d          44.014  -1.052  23.776  0.00  0.00     0.157 HD
ENDBRANCH  24  28
ENDBRANCH  18  24
ENDBRANCH   1  10
BRANCH   6  31
ATOM     31  O6' MOL d          42.688  -4.157  32.803  0.00  0.00    -0.359 OA
ATOM     32  H13 MOL d          42.477  -4.688  33.561  0.00  0.00     0.217 HD
ENDBRANCH   6  31
BRANCH   5  33
ATOM     33  C1' MOL d          42.562  -3.517  35.556  0.00  0.00    -0.023 A 
ATOM     34  C2' MOL d          41.988  -3.134  36.760  0.00  0.00    -0.072 A 
ATOM     35  C3' MOL d          41.612  -4.047  37.722  0.00  0.00    -0.082 A 
ATOM     36  H14 MOL d          41.830  -2.079  36.951  0.00  0.00     0.084 H 
ATOM     37  C4' MOL d          41.790  -5.392  37.516  0.00  0.00    -0.083 A 
ATOM     38  H15 MOL d          41.170  -3.700  38.649  0.00  0.00     0.083 H 
ATOM     39  C5' MOL d          42.357  -5.837  36.328  0.00  0.00    -0.082 A 
ATOM     40  H16 MOL d          41.491  -6.104  38.276  0.00  0.00     0.083 H 
ATOM     41  C6' MOL d          42.733  -4.904  35.365  0.00  0.00    -0.072 A 
ATOM     42  H17 MOL d          42.504  -6.897  36.153  0.00  0.00     0.083 H 
ATOM     43  H18 MOL d          43.173  -5.254  34.439  0.00  0.00     0.084 H 
ENDBRANCH   5  33
TORSDOF 5
ENDMDL
