MODEL 1
REMARK VINA RESULT:      -6.1      0.000      0.000
REMARK  5 active torsions:
REMARK  status: ('A' for Active; 'I' for Inactive)
REMARK    1  A    between atoms: N_1  and  CA_2 
REMARK    2  A    between atoms: CA_2  and  C_3 
REMARK    3  A    between atoms: CA_2  and  CB_6 
REMARK    4  A    between atoms: CB_6  and  CG_7 
REMARK    5  A    between atoms: CD2_9  and  CE2_10 
ROOT
ATOM      1  CB  MOL d          45.597  25.836  42.182  0.00  0.00     0.002 C 
ATOM      2  H5  MOL d          44.931  26.672  42.440  0.00  0.00     0.044 H 
ATOM      3  H6  MOL d          45.237  24.917  42.670  0.00  0.00     0.044 H 
ENDROOT
BRANCH   1   4
ATOM      4  CA  MOL d          47.014  26.153  42.720  0.00  0.00     0.186 C 
ATOM      5  H4  MOL d          47.420  27.009  42.162  0.00  0.00     0.101 H 
BRANCH   4   6
ATOM      6  N   MOL d          47.905  24.966  42.527  0.00  0.00    -0.065 N 
ATOM      7  H1  MOL d          48.336  25.014  41.618  0.00  0.00     0.275 HD
ATOM      8  H2  MOL d          47.359  24.121  42.596  0.00  0.00     0.275 HD
ATOM      9  H3  MOL d          48.620  24.964  43.238  0.00  0.00     0.275 HD
ENDBRANCH   4   6
BRANCH   4  10
ATOM     10  C   MOL d          46.985  26.509  44.255  0.00  0.00     0.204 C 
ATOM     11  OT1 MOL d          46.285  27.496  44.613  0.00  0.00    -0.646 OA
ATOM     12  OT2 MOL d          47.721  25.821  45.019  0.00  0.00    -0.646 OA
ENDBRANCH   4  10
ENDBRANCH   1   4
BRANCH   1  13
ATOM     13  CG  MOL d          45.547  25.632  40.694  0.00  0.00     0.031 A 
ATOM     14  CD1 MOL d          45.842  24.454  39.954  0.00  0.00     0.207 A 
ATOM     15  OE1 MOL d          46.325  23.420  40.648  0.00  0.00    -0.170 OA
ATOM     16  NE1 MOL d          45.653  24.461  38.667  0.00  0.00    -0.236 N 
ATOM     17  OE2 MOL d          45.173  25.810  38.470  0.00  0.00    -0.240 OA
ATOM     18  H10 MOL d          45.800  23.733  37.998  0.00  0.00     0.197 HD
ATOM     19  CD2 MOL d          45.131  26.450  39.689  0.00  0.00     0.083 A 
BRANCH  19  20
ATOM     20  CE2 MOL d          44.736  27.882  39.655  0.00  0.00    -0.029 C 
ATOM     21  H7  MOL d          45.633  28.507  39.543  0.00  0.00     0.036 H 
ATOM     22  H8  MOL d          44.222  28.142  40.593  0.00  0.00     0.036 H 
ATOM     23  H9  MOL d          44.059  28.055  38.806  0.00  0.00     0.036 H 
ENDBRANCH  19  20
ENDBRANCH   1  13
TORSDOF 5
ENDMDL
MODEL 2
REMARK VINA RESULT:      -6.1      1.691      5.053
REMARK  5 active torsions:
REMARK  status: ('A' for Active; 'I' for Inactive)
REMARK    1  A    between atoms: N_1  and  CA_2 
REMARK    2  A    between atoms: CA_2  and  C_3 
REMARK    3  A    between atoms: CA_2  and  CB_6 
REMARK    4  A    between atoms: CB_6  and  CG_7 
REMARK    5  A    between atoms: CD2_9  and  CE2_10 
ROOT
ATOM      1  CB  MOL d          45.045  26.114  41.078  0.00  0.00     0.002 C 
ATOM      2  H5  MOL d          44.476  25.177  40.986  0.00  0.00     0.044 H 
ATOM      3  H6  MOL d          44.380  26.912  41.440  0.00  0.00     0.044 H 
ENDROOT
BRANCH   1   4
ATOM      4  CA  MOL d          45.567  26.511  39.675  0.00  0.00     0.186 C 
ATOM      5  H4  MOL d          46.626  26.799  39.760  0.00  0.00     0.101 H 
BRANCH   4   6
ATOM      6  N   MOL d          44.777  27.670  39.151  0.00  0.00    -0.065 N 
ATOM      7  H1  MOL d          44.210  27.366  38.376  0.00  0.00     0.275 HD
ATOM      8  H2  MOL d          45.407  28.394  38.844  0.00  0.00     0.275 HD
ATOM      9  H3  MOL d          44.183  28.028  39.882  0.00  0.00     0.275 HD
ENDBRANCH   4   6
BRANCH   4  10
ATOM     10  C   MOL d          45.440  25.320  38.651  0.00  0.00     0.204 C 
ATOM     11  OT1 MOL d          44.759  24.318  39.002  0.00  0.00    -0.646 OA
ATOM     12  OT2 MOL d          46.087  25.420  37.569  0.00  0.00    -0.646 OA
ENDBRANCH   4  10
ENDBRANCH   1   4
BRANCH   1  13
ATOM     13  CG  MOL d          46.135  25.909  42.093  0.00  0.00     0.031 A 
ATOM     14  CD1 MOL d          46.460  26.719  43.214  0.00  0.00     0.207 A 
ATOM     15  OE1 MOL d          45.787  27.866  43.336  0.00  0.00    -0.170 OA
ATOM     16  NE1 MOL d          47.394  26.317  44.026  0.00  0.00    -0.236 N 
ATOM     17  OE2 MOL d          47.783  25.074  43.399  0.00  0.00    -0.240 OA
ATOM     18  H10 MOL d          47.746  26.749  44.856  0.00  0.00     0.197 HD
ATOM     19  CD2 MOL d          47.014  24.885  42.271  0.00  0.00     0.083 A 
BRANCH  19  20
ATOM     20  CE2 MOL d          47.343  23.688  41.456  0.00  0.00    -0.029 C 
ATOM     21  H7  MOL d          47.452  23.981  40.401  0.00  0.00     0.036 H 
ATOM     22  H8  MOL d          46.534  22.947  41.549  0.00  0.00     0.036 H 
ATOM     23  H9  MOL d          48.286  23.248  41.813  0.00  0.00     0.036 H 
ENDBRANCH  19  20
ENDBRANCH   1  13
TORSDOF 5
ENDMDL
MODEL 3
REMARK VINA RESULT:      -6.0      1.684      4.550
REMARK  5 active torsions:
REMARK  status: ('A' for Active; 'I' for Inactive)
REMARK    1  A    between atoms: N_1  and  CA_2 
REMARK    2  A    between atoms: CA_2  and  C_3 
REMARK    3  A    between atoms: CA_2  and  CB_6 
REMARK    4  A    between atoms: CB_6  and  CG_7 
REMARK    5  A    between atoms: CD2_9  and  CE2_10 
ROOT
ATOM      1  CB  MOL d          46.479  25.054  41.110  0.00  0.00     0.002 C 
ATOM      2  H5  MOL d          47.444  25.141  40.589  0.00  0.00     0.044 H 
ATOM      3  H6  MOL d          46.351  24.023  41.474  0.00  0.00     0.044 H 
ENDROOT
BRANCH   1   4
ATOM      4  CA  MOL d          45.347  25.360  40.099  0.00  0.00     0.186 C 
ATOM      5  H4  MOL d          44.578  25.964  40.602  0.00  0.00     0.101 H 
BRANCH   4   6
ATOM      6  N   MOL d          44.738  24.079  39.619  0.00  0.00    -0.065 N 
ATOM      7  H1  MOL d          45.285  23.302  39.953  0.00  0.00     0.275 HD
ATOM      8  H2  MOL d          44.724  24.071  38.611  0.00  0.00     0.275 HD
ATOM      9  H3  MOL d          43.796  24.003  39.970  0.00  0.00     0.275 HD
ENDBRANCH   4   6
BRANCH   4  10
ATOM     10  C   MOL d          45.885  26.154  38.848  0.00  0.00     0.204 C 
ATOM     11  OT1 MOL d          45.711  27.403  38.831  0.00  0.00    -0.646 OA
ATOM     12  OT2 MOL d          46.396  25.475  37.912  0.00  0.00    -0.646 OA
ENDBRANCH   4  10
ENDBRANCH   1   4
BRANCH   1  13
ATOM     13  CG  MOL d          46.496  25.976  42.296  0.00  0.00     0.031 A 
ATOM     14  CD1 MOL d          47.309  25.901  43.461  0.00  0.00     0.207 A 
ATOM     15  OE1 MOL d          48.088  24.823  43.576  0.00  0.00    -0.170 OA
ATOM     16  NE1 MOL d          47.228  26.855  44.341  0.00  0.00    -0.236 N 
ATOM     17  OE2 MOL d          46.232  27.706  43.730  0.00  0.00    -0.240 OA
ATOM     18  H10 MOL d          47.720  26.969  45.203  0.00  0.00     0.197 HD
ATOM     19  CD2 MOL d          45.838  27.142  42.536  0.00  0.00     0.083 A 
BRANCH  19  20
ATOM     20  CE2 MOL d          44.751  27.851  41.813  0.00  0.00    -0.029 C 
ATOM     21  H7  MOL d          44.769  28.919  42.078  0.00  0.00     0.036 H 
ATOM     22  H8  MOL d          43.780  27.419  42.097  0.00  0.00     0.036 H 
ATOM     23  H9  MOL d          44.899  27.741  40.728  0.00  0.00     0.036 H 
ENDBRANCH  19  20
ENDBRANCH   1  13
TORSDOF 5
ENDMDL
MODEL 4
REMARK VINA RESULT:      -4.5      1.929      4.930
REMARK  5 active torsions:
REMARK  status: ('A' for Active; 'I' for Inactive)
REMARK    1  A    between atoms: N_1  and  CA_2 
REMARK    2  A    between atoms: CA_2  and  C_3 
REMARK    3  A    between atoms: CA_2  and  CB_6 
REMARK    4  A    between atoms: CB_6  and  CG_7 
REMARK    5  A    between atoms: CD2_9  and  CE2_10 
ROOT
ATOM      1  CB  MOL d          46.435  25.040  41.238  0.00  0.00     0.002 C 
ATOM      2  H5  MOL d          47.411  25.223  40.764  0.00  0.00     0.044 H 
ATOM      3  H6  MOL d          46.429  24.037  41.691  0.00  0.00     0.044 H 
ENDROOT
BRANCH   1   4
ATOM      4  CA  MOL d          45.342  25.088  40.142  0.00  0.00     0.186 C 
ATOM      5  H4  MOL d          44.512  25.717  40.497  0.00  0.00     0.101 H 
BRANCH   4   6
ATOM      6  N   MOL d          44.837  23.705  39.871  0.00  0.00    -0.065 N 
ATOM      7  H1  MOL d          44.702  23.220  40.744  0.00  0.00     0.275 HD
ATOM      8  H2  MOL d          45.509  23.205  39.310  0.00  0.00     0.275 HD
ATOM      9  H3  MOL d          43.959  23.758  39.378  0.00  0.00     0.275 HD
ENDBRANCH   4   6
BRANCH   4  10
ATOM     10  C   MOL d          45.898  25.686  38.794  0.00  0.00     0.204 C 
ATOM     11  OT1 MOL d          46.274  26.890  38.800  0.00  0.00    -0.646 OA
ATOM     12  OT2 MOL d          45.867  24.937  37.776  0.00  0.00    -0.646 OA
ENDBRANCH   4  10
ENDBRANCH   1   4
BRANCH   1  13
ATOM     13  CG  MOL d          46.241  26.054  42.330  0.00  0.00     0.031 A 
ATOM     14  CD1 MOL d          45.381  27.186  42.340  0.00  0.00     0.207 A 
ATOM     15  OE1 MOL d          44.736  27.454  41.202  0.00  0.00    -0.170 OA
ATOM     16  NE1 MOL d          45.296  27.896  43.427  0.00  0.00    -0.236 N 
ATOM     17  OE2 MOL d          46.212  27.185  44.289  0.00  0.00    -0.240 OA
ATOM     18  H10 MOL d          44.747  28.710  43.614  0.00  0.00     0.197 HD
ATOM     19  CD2 MOL d          46.737  26.116  43.596  0.00  0.00     0.083 A 
BRANCH  19  20
ATOM     20  CE2 MOL d          47.766  25.321  44.314  0.00  0.00    -0.029 C 
ATOM     21  H7  MOL d          48.404  25.995  44.904  0.00  0.00     0.036 H 
ATOM     22  H8  MOL d          48.384  24.777  43.584  0.00  0.00     0.036 H 
ATOM     23  H9  MOL d          47.273  24.602  44.984  0.00  0.00     0.036 H 
ENDBRANCH  19  20
ENDBRANCH   1  13
TORSDOF 5
ENDMDL
MODEL 5
REMARK VINA RESULT:      -3.7      1.230      1.529
REMARK  5 active torsions:
REMARK  status: ('A' for Active; 'I' for Inactive)
REMARK    1  A    between atoms: N_1  and  CA_2 
REMARK    2  A    between atoms: CA_2  and  C_3 
REMARK    3  A    between atoms: CA_2  and  CB_6 
REMARK    4  A    between atoms: CB_6  and  CG_7 
REMARK    5  A    between atoms: CD2_9  and  CE2_10 
ROOT
ATOM      1  CB  MOL d          45.074  26.118  41.833  0.00  0.00     0.002 C 
ATOM      2  H5  MOL d          44.234  26.820  41.937  0.00  0.00     0.044 H 
ATOM      3  H6  MOL d          44.866  25.208  42.416  0.00  0.00     0.044 H 
ENDROOT
BRANCH   1   4
ATOM      4  CA  MOL d          46.346  26.788  42.410  0.00  0.00     0.186 C 
ATOM      5  H4  MOL d          46.051  27.462  43.227  0.00  0.00     0.101 H 
BRANCH   4   6
ATOM      6  N   MOL d          47.031  27.578  41.338  0.00  0.00    -0.065 N 
ATOM      7  H1  MOL d          46.828  27.170  40.439  0.00  0.00     0.275 HD
ATOM      8  H2  MOL d          48.027  27.565  41.495  0.00  0.00     0.275 HD
ATOM      9  H3  MOL d          46.700  28.529  41.358  0.00  0.00     0.275 HD
ENDBRANCH   4   6
BRANCH   4  10
ATOM     10  C   MOL d          47.363  25.721  42.967  0.00  0.00     0.204 C 
ATOM     11  OT1 MOL d          47.826  24.875  42.153  0.00  0.00    -0.646 OA
ATOM     12  OT2 MOL d          47.595  25.740  44.209  0.00  0.00    -0.646 OA
ENDBRANCH   4  10
ENDBRANCH   1   4
BRANCH   1  13
ATOM     13  CG  MOL d          45.196  25.736  40.385  0.00  0.00     0.031 A 
ATOM     14  CD1 MOL d          45.473  24.456  39.830  0.00  0.00     0.207 A 
ATOM     15  OE1 MOL d          45.764  23.482  40.696  0.00  0.00    -0.170 OA
ATOM     16  NE1 MOL d          45.451  24.318  38.537  0.00  0.00    -0.236 N 
ATOM     17  OE2 MOL d          45.128  25.665  38.125  0.00  0.00    -0.240 OA
ATOM     18  H10 MOL d          45.613  23.503  37.981  0.00  0.00     0.197 HD
ATOM     19  CD2 MOL d          44.991  26.453  39.247  0.00  0.00     0.083 A 
BRANCH  19  20
ATOM     20  CE2 MOL d          44.738  27.896  38.998  0.00  0.00    -0.029 C 
ATOM     21  H7  MOL d          45.434  28.263  38.230  0.00  0.00     0.036 H 
ATOM     22  H8  MOL d          44.890  28.460  39.930  0.00  0.00     0.036 H 
ATOM     23  H9  MOL d          43.704  28.032  38.650  0.00  0.00     0.036 H 
ENDBRANCH  19  20
ENDBRANCH   1  13
TORSDOF 5
ENDMDL
