MODEL 1
REMARK VINA RESULT:      -6.0      0.000      0.000
REMARK  15 active torsions:
REMARK  status: ('A' for Active; 'I' for Inactive)
REMARK    1  A    between atoms: CA_2  and  N_1 
REMARK    2  A    between atoms: C_3  and  CA_2 
REMARK    3  A    between atoms: CA_2  and  CB_5 
REMARK       I    between atoms: N_10  and  C_3 
REMARK    4  A    between atoms: CB_5  and  CG_6 
REMARK    5  A    between atoms: CG_6  and  CD_7 
REMARK    6  A    between atoms: CA_11  and  N_10 
REMARK    7  A    between atoms: C_12  and  CA_11 
REMARK    8  A    between atoms: CA_11  and  CB_14 
REMARK       I    between atoms: C_12  and  N_18 
REMARK    9  A    between atoms: CB_14  and  CG_15 
REMARK   10  A    between atoms: N_18  and  CA_19 
REMARK   11  A    between atoms: CA_19  and  C_20 
REMARK   12  A    between atoms: CA_19  and  CB_22 
REMARK   13  A    between atoms: CB_22  and  CG_23 
REMARK   14  A    between atoms: CG_23  and  CD2_25 
REMARK   15  A    between atoms: CG_23  and  CD1_24 
ROOT
ATOM      1  CA  MOL d           8.145  25.690   3.559  0.00  0.00     0.098 C 
ATOM      2  H10 MOL d           8.301  26.147   2.571  0.00  0.00     0.088 H 
ENDROOT
BRANCH   1   3
ATOM      3  C   MOL d           7.893  26.790   4.575  0.00  0.00     0.241 C 
ATOM      4  O   MOL d           8.119  27.970   4.298  0.00  0.00    -0.271 OA
ATOM      5  N   MOL d           7.377  26.392   5.735  0.00  0.00    -0.345 N 
ATOM      6  H13 MOL d           7.212  25.416   5.881  0.00  0.00     0.163 HD
BRANCH   5   7
ATOM      7  CA  MOL d           7.046  27.328   6.798  0.00  0.00     0.096 C 
ATOM      8  H14 MOL d           6.858  28.310   6.339  0.00  0.00     0.089 H 
BRANCH   7   9
ATOM      9  C   MOL d           8.163  27.497   7.812  0.00  0.00     0.196 C 
ATOM     10  OXT MOL d           8.816  28.560   7.794  0.00  0.00    -0.646 OA
ATOM     11  O   MOL d           8.373  26.564   8.617  0.00  0.00    -0.646 OA
ENDBRANCH   7   9
BRANCH   7  12
ATOM     12  CB  MOL d           5.772  26.867   7.493  0.00  0.00    -0.034 C 
ATOM     13  H15 MOL d           5.770  27.226   8.531  0.00  0.00     0.037 H 
ATOM     14  H16 MOL d           5.728  25.768   7.485  0.00  0.00     0.037 H 
BRANCH  12  15
ATOM     15  CG  MOL d           4.563  27.431   6.755  0.00  0.00    -0.059 C 
ATOM     16  H17 MOL d           4.918  28.159   6.011  0.00  0.00     0.038 H 
BRANCH  15  17
ATOM     17  CD2 MOL d           3.662  28.166   7.736  0.00  0.00    -0.073 C 
ATOM     18  H21 MOL d           3.826  29.250   7.642  0.00  0.00     0.028 H 
ATOM     19  H22 MOL d           3.898  27.846   8.762  0.00  0.00     0.028 H 
ATOM     20  H23 MOL d           2.609  27.933   7.513  0.00  0.00     0.028 H 
ENDBRANCH  15  17
BRANCH  15  21
ATOM     21  CD1 MOL d           3.846  26.339   6.019  0.00  0.00    -0.073 C 
ATOM     22  H18 MOL d           3.399  25.642   6.742  0.00  0.00     0.028 H 
ATOM     23  H19 MOL d           4.559  25.798   5.381  0.00  0.00     0.028 H 
ATOM     24  H20 MOL d           3.053  26.777   5.395  0.00  0.00     0.028 H 
ENDBRANCH  15  21
ENDBRANCH  12  15
ENDBRANCH   7  12
ENDBRANCH   5   7
ENDBRANCH   1   3
BRANCH   1  25
ATOM     25  CB  MOL d           6.961  24.729   3.471  0.00  0.00     0.043 C 
ATOM     26  H11 MOL d           6.243  24.976   4.267  0.00  0.00     0.052 H 
ATOM     27  H12 MOL d           7.328  23.701   3.613  0.00  0.00     0.052 H 
BRANCH  25  28
ATOM     28  CG  MOL d           6.257  24.818   2.133  0.00  0.00     0.175 C 
ATOM     29  OD1 MOL d           5.165  24.232   2.016  0.00  0.00    -0.648 OA
ATOM     30  OD2 MOL d           6.766  25.501   1.215  0.00  0.00    -0.648 OA
ENDBRANCH  25  28
ENDBRANCH   1  25
BRANCH   1  31
ATOM     31  N   MOL d           9.345  24.959   3.945  0.00  0.00    -0.345 N 
ATOM     32  C   MOL d          10.134  24.374   3.053  0.00  0.00     0.249 C 
ATOM     33  O   MOL d           9.892  24.364   1.841  0.00  0.00    -0.271 OA
ATOM     34  H9  MOL d           9.581  24.896   4.914  0.00  0.00     0.163 HD
BRANCH  32  35
ATOM     35  CA  MOL d          11.351  23.643   3.619  0.00  0.00     0.176 C 
ATOM     36  H4  MOL d          11.740  22.966   2.843  0.00  0.00     0.099 H 
BRANCH  35  37
ATOM     37  CB  MOL d          10.965  22.802   4.838  0.00  0.00    -0.021 C 
ATOM     38  H5  MOL d          11.286  21.765   4.660  0.00  0.00     0.037 H 
ATOM     39  H6  MOL d           9.871  22.834   4.948  0.00  0.00     0.037 H 
BRANCH  37  40
ATOM     40  CG  MOL d          11.588  23.277   6.136  0.00  0.00     0.018 C 
ATOM     41  H7  MOL d          12.423  23.952   5.898  0.00  0.00     0.049 H 
ATOM     42  H8  MOL d          11.969  22.401   6.682  0.00  0.00     0.049 H 
BRANCH  40  43
ATOM     43  CD  MOL d          10.610  24.014   7.030  0.00  0.00     0.172 C 
ATOM     44  OE1 MOL d          11.034  24.526   8.092  0.00  0.00    -0.648 OA
ATOM     45  OE2 MOL d           9.418  24.093   6.657  0.00  0.00    -0.648 OA
ENDBRANCH  40  43
ENDBRANCH  37  40
ENDBRANCH  35  37
BRANCH  35  46
ATOM     46  N   MOL d          12.420  24.616   3.971  0.00  0.00    -0.066 N 
ATOM     47  H1  MOL d          12.220  25.024   4.870  0.00  0.00     0.275 HD
ATOM     48  H2  MOL d          12.457  25.341   3.272  0.00  0.00     0.275 HD
ATOM     49  H3  MOL d          13.309  24.140   4.009  0.00  0.00     0.275 HD
ENDBRANCH  35  46
ENDBRANCH  32  35
ENDBRANCH   1  31
TORSDOF 15
ENDMDL
MODEL 2
REMARK VINA RESULT:      -5.8      2.157      6.883
REMARK  15 active torsions:
REMARK  status: ('A' for Active; 'I' for Inactive)
REMARK    1  A    between atoms: CA_2  and  N_1 
REMARK    2  A    between atoms: C_3  and  CA_2 
REMARK    3  A    between atoms: CA_2  and  CB_5 
REMARK       I    between atoms: N_10  and  C_3 
REMARK    4  A    between atoms: CB_5  and  CG_6 
REMARK    5  A    between atoms: CG_6  and  CD_7 
REMARK    6  A    between atoms: CA_11  and  N_10 
REMARK    7  A    between atoms: C_12  and  CA_11 
REMARK    8  A    between atoms: CA_11  and  CB_14 
REMARK       I    between atoms: C_12  and  N_18 
REMARK    9  A    between atoms: CB_14  and  CG_15 
REMARK   10  A    between atoms: N_18  and  CA_19 
REMARK   11  A    between atoms: CA_19  and  C_20 
REMARK   12  A    between atoms: CA_19  and  CB_22 
REMARK   13  A    between atoms: CB_22  and  CG_23 
REMARK   14  A    between atoms: CG_23  and  CD2_25 
REMARK   15  A    between atoms: CG_23  and  CD1_24 
ROOT
ATOM      1  CA  MOL d           9.686  26.190   6.119  0.00  0.00     0.098 C 
ATOM      2  H10 MOL d           9.994  27.171   5.728  0.00  0.00     0.088 H 
ENDROOT
BRANCH   1   3
ATOM      3  C   MOL d          10.707  25.149   5.694  0.00  0.00     0.241 C 
ATOM      4  O   MOL d          11.906  25.304   5.937  0.00  0.00    -0.271 OA
ATOM      5  N   MOL d          10.209  24.068   5.100  0.00  0.00    -0.345 N 
ATOM      6  H13 MOL d           9.223  24.012   4.947  0.00  0.00     0.163 HD
BRANCH   5   7
ATOM      7  CA  MOL d          11.053  22.965   4.665  0.00  0.00     0.096 C 
ATOM      8  H14 MOL d          12.064  23.361   4.486  0.00  0.00     0.089 H 
BRANCH   7   9
ATOM      9  C   MOL d          10.574  22.321   3.377  0.00  0.00     0.196 C 
ATOM     10  OXT MOL d           9.368  22.011   3.289  0.00  0.00    -0.646 OA
ATOM     11  O   MOL d          11.409  22.134   2.466  0.00  0.00    -0.646 OA
ENDBRANCH   7   9
BRANCH   7  12
ATOM     12  CB  MOL d          11.129  21.926   5.774  0.00  0.00    -0.034 C 
ATOM     13  H15 MOL d          10.786  20.955   5.392  0.00  0.00     0.037 H 
ATOM     14  H16 MOL d          10.489  22.237   6.613  0.00  0.00     0.037 H 
BRANCH  12  15
ATOM     15  CG  MOL d          12.572  21.803   6.253  0.00  0.00    -0.059 C 
ATOM     16  H17 MOL d          12.815  20.735   6.351  0.00  0.00     0.038 H 
BRANCH  15  17
ATOM     17  CD2 MOL d          12.713  22.443   7.626  0.00  0.00    -0.073 C 
ATOM     18  H21 MOL d          12.548  23.528   7.543  0.00  0.00     0.028 H 
ATOM     19  H22 MOL d          13.724  22.254   8.016  0.00  0.00     0.028 H 
ATOM     20  H23 MOL d          11.969  22.010   8.311  0.00  0.00     0.028 H 
ENDBRANCH  15  17
BRANCH  15  21
ATOM     21  CD1 MOL d          13.508  22.393   5.242  0.00  0.00    -0.073 C 
ATOM     22  H18 MOL d          12.969  23.131   4.631  0.00  0.00     0.028 H 
ATOM     23  H19 MOL d          13.898  21.595   4.594  0.00  0.00     0.028 H 
ATOM     24  H20 MOL d          14.344  22.886   5.760  0.00  0.00     0.028 H 
ENDBRANCH  15  21
ENDBRANCH  12  15
ENDBRANCH   7  12
ENDBRANCH   5   7
ENDBRANCH   1   3
BRANCH   1  25
ATOM     25  CB  MOL d           9.582  26.281   7.639  0.00  0.00     0.043 C 
ATOM     26  H11 MOL d          10.564  26.566   8.046  0.00  0.00     0.052 H 
ATOM     27  H12 MOL d           9.292  25.296   8.035  0.00  0.00     0.052 H 
BRANCH  25  28
ATOM     28  CG  MOL d           8.556  27.306   8.077  0.00  0.00     0.175 C 
ATOM     29  OD1 MOL d           7.488  26.884   8.558  0.00  0.00    -0.648 OA
ATOM     30  OD2 MOL d           8.826  28.525   7.984  0.00  0.00    -0.648 OA
ENDBRANCH  25  28
ENDBRANCH   1  25
BRANCH   1  31
ATOM     31  N   MOL d           8.390  25.835   5.557  0.00  0.00    -0.345 N 
ATOM     32  C   MOL d           7.679  26.685   4.826  0.00  0.00     0.249 C 
ATOM     33  O   MOL d           8.036  27.847   4.605  0.00  0.00    -0.271 OA
ATOM     34  H9  MOL d           8.023  24.921   5.728  0.00  0.00     0.163 HD
BRANCH  32  35
ATOM     35  CA  MOL d           6.338  26.162   4.313  0.00  0.00     0.176 C 
ATOM     36  H4  MOL d           6.443  25.087   4.102  0.00  0.00     0.099 H 
BRANCH  35  37
ATOM     37  CB  MOL d           5.936  26.868   3.015  0.00  0.00    -0.021 C 
ATOM     38  H5  MOL d           6.568  27.761   2.897  0.00  0.00     0.037 H 
ATOM     39  H6  MOL d           4.883  27.172   3.099  0.00  0.00     0.037 H 
BRANCH  37  40
ATOM     40  CG  MOL d           6.088  26.010   1.775  0.00  0.00     0.018 C 
ATOM     41  H7  MOL d           5.296  26.282   1.061  0.00  0.00     0.049 H 
ATOM     42  H8  MOL d           5.977  24.955   2.063  0.00  0.00     0.049 H 
BRANCH  40  43
ATOM     43  CD  MOL d           7.431  26.185   1.092  0.00  0.00     0.172 C 
ATOM     44  OE1 MOL d           8.462  25.788   1.683  0.00  0.00    -0.648 OA
ATOM     45  OE2 MOL d           7.449  26.707  -0.045  0.00  0.00    -0.648 OA
ENDBRANCH  40  43
ENDBRANCH  37  40
ENDBRANCH  35  37
BRANCH  35  46
ATOM     46  N   MOL d           5.285  26.335   5.350  0.00  0.00    -0.066 N 
ATOM     47  H1  MOL d           4.407  25.986   5.000  0.00  0.00     0.275 HD
ATOM     48  H2  MOL d           5.193  27.313   5.574  0.00  0.00     0.275 HD
ATOM     49  H3  MOL d           5.542  25.823   6.179  0.00  0.00     0.275 HD
ENDBRANCH  35  46
ENDBRANCH  32  35
ENDBRANCH   1  31
TORSDOF 15
ENDMDL
MODEL 3
REMARK VINA RESULT:      -5.7      2.190      3.825
REMARK  15 active torsions:
REMARK  status: ('A' for Active; 'I' for Inactive)
REMARK    1  A    between atoms: CA_2  and  N_1 
REMARK    2  A    between atoms: C_3  and  CA_2 
REMARK    3  A    between atoms: CA_2  and  CB_5 
REMARK       I    between atoms: N_10  and  C_3 
REMARK    4  A    between atoms: CB_5  and  CG_6 
REMARK    5  A    between atoms: CG_6  and  CD_7 
REMARK    6  A    between atoms: CA_11  and  N_10 
REMARK    7  A    between atoms: C_12  and  CA_11 
REMARK    8  A    between atoms: CA_11  and  CB_14 
REMARK       I    between atoms: C_12  and  N_18 
REMARK    9  A    between atoms: CB_14  and  CG_15 
REMARK   10  A    between atoms: N_18  and  CA_19 
REMARK   11  A    between atoms: CA_19  and  C_20 
REMARK   12  A    between atoms: CA_19  and  CB_22 
REMARK   13  A    between atoms: CB_22  and  CG_23 
REMARK   14  A    between atoms: CG_23  and  CD2_25 
REMARK   15  A    between atoms: CG_23  and  CD1_24 
ROOT
ATOM      1  CA  MOL d           8.458  25.162   4.112  0.00  0.00     0.098 C 
ATOM      2  H10 MOL d           9.326  25.641   3.635  0.00  0.00     0.088 H 
ENDROOT
BRANCH   1   3
ATOM      3  C   MOL d           7.330  26.174   4.211  0.00  0.00     0.241 C 
ATOM      4  O   MOL d           7.551  27.380   4.080  0.00  0.00    -0.271 OA
ATOM      5  N   MOL d           6.116  25.663   4.396  0.00  0.00    -0.345 N 
ATOM      6  H13 MOL d           6.017  24.672   4.482  0.00  0.00     0.163 HD
BRANCH   5   7
ATOM      7  CA  MOL d           4.928  26.499   4.477  0.00  0.00     0.096 C 
ATOM      8  H14 MOL d           5.160  27.465   4.005  0.00  0.00     0.089 H 
BRANCH   7   9
ATOM      9  C   MOL d           4.488  26.773   5.903  0.00  0.00     0.196 C 
ATOM     10  OXT MOL d           4.867  27.834   6.440  0.00  0.00    -0.646 OA
ATOM     11  O   MOL d           3.767  25.924   6.470  0.00  0.00    -0.646 OA
ENDBRANCH   7   9
BRANCH   7  12
ATOM     12  CB  MOL d           3.799  25.839   3.697  0.00  0.00    -0.034 C 
ATOM     13  H15 MOL d           3.596  26.418   2.784  0.00  0.00     0.037 H 
ATOM     14  H16 MOL d           2.893  25.808   4.319  0.00  0.00     0.037 H 
BRANCH  12  15
ATOM     15  CG  MOL d           4.208  24.419   3.320  0.00  0.00    -0.059 C 
ATOM     16  H17 MOL d           5.259  24.274   3.607  0.00  0.00     0.038 H 
BRANCH  15  17
ATOM     17  CD2 MOL d           4.106  24.240   1.812  0.00  0.00    -0.073 C 
ATOM     18  H21 MOL d           3.052  24.313   1.505  0.00  0.00     0.028 H 
ATOM     19  H22 MOL d           4.503  23.253   1.533  0.00  0.00     0.028 H 
ATOM     20  H23 MOL d           4.690  25.025   1.309  0.00  0.00     0.028 H 
ENDBRANCH  15  17
BRANCH  15  21
ATOM     21  CD1 MOL d           3.385  23.422   4.077  0.00  0.00    -0.073 C 
ATOM     22  H18 MOL d           2.426  23.270   3.560  0.00  0.00     0.028 H 
ATOM     23  H19 MOL d           3.198  23.797   5.093  0.00  0.00     0.028 H 
ATOM     24  H20 MOL d           3.926  22.466   4.132  0.00  0.00     0.028 H 
ENDBRANCH  15  21
ENDBRANCH  12  15
ENDBRANCH   7  12
ENDBRANCH   5   7
ENDBRANCH   1   3
BRANCH   1  25
ATOM     25  CB  MOL d           8.049  23.950   3.278  0.00  0.00     0.043 C 
ATOM     26  H11 MOL d           7.369  24.282   2.479  0.00  0.00     0.052 H 
ATOM     27  H12 MOL d           7.529  23.231   3.929  0.00  0.00     0.052 H 
BRANCH  25  28
ATOM     28  CG  MOL d           9.245  23.265   2.649  0.00  0.00     0.175 C 
ATOM     29  OD1 MOL d           9.246  22.020   2.620  0.00  0.00    -0.648 OA
ATOM     30  OD2 MOL d          10.157  23.960   2.148  0.00  0.00    -0.648 OA
ENDBRANCH  25  28
ENDBRANCH   1  25
BRANCH   1  31
ATOM     31  N   MOL d           8.826  24.734   5.455  0.00  0.00    -0.345 N 
ATOM     32  C   MOL d          10.071  24.811   5.907  0.00  0.00     0.249 C 
ATOM     33  O   MOL d          11.016  25.206   5.216  0.00  0.00    -0.271 OA
ATOM     34  H9  MOL d           8.115  24.369   6.057  0.00  0.00     0.163 HD
BRANCH  32  35
ATOM     35  CA  MOL d          10.294  24.318   7.336  0.00  0.00     0.176 C 
ATOM     36  H4  MOL d          10.025  23.251   7.379  0.00  0.00     0.099 H 
BRANCH  35  37
ATOM     37  CB  MOL d           9.401  25.077   8.321  0.00  0.00    -0.021 C 
ATOM     38  H5  MOL d           9.577  24.674   9.329  0.00  0.00     0.037 H 
ATOM     39  H6  MOL d           8.352  24.909   8.037  0.00  0.00     0.037 H 
BRANCH  37  40
ATOM     40  CG  MOL d           9.653  26.571   8.356  0.00  0.00     0.018 C 
ATOM     41  H7  MOL d          10.433  26.813   7.618  0.00  0.00     0.049 H 
ATOM     42  H8  MOL d          10.004  26.844   9.362  0.00  0.00     0.049 H 
BRANCH  40  43
ATOM     43  CD  MOL d           8.418  27.390   8.037  0.00  0.00     0.172 C 
ATOM     44  OE1 MOL d           8.560  28.502   7.478  0.00  0.00    -0.648 OA
ATOM     45  OE2 MOL d           7.301  26.908   8.334  0.00  0.00    -0.648 OA
ENDBRANCH  40  43
ENDBRANCH  37  40
ENDBRANCH  35  37
BRANCH  35  46
ATOM     46  N   MOL d          11.726  24.456   7.713  0.00  0.00    -0.066 N 
ATOM     47  H1  MOL d          11.857  25.312   8.227  0.00  0.00     0.275 HD
ATOM     48  H2  MOL d          12.292  24.474   6.879  0.00  0.00     0.275 HD
ATOM     49  H3  MOL d          12.000  23.675   8.288  0.00  0.00     0.275 HD
ENDBRANCH  35  46
ENDBRANCH  32  35
ENDBRANCH   1  31
TORSDOF 15
ENDMDL
MODEL 4
REMARK VINA RESULT:      -5.5      2.217      4.948
REMARK  15 active torsions:
REMARK  status: ('A' for Active; 'I' for Inactive)
REMARK    1  A    between atoms: CA_2  and  N_1 
REMARK    2  A    between atoms: C_3  and  CA_2 
REMARK    3  A    between atoms: CA_2  and  CB_5 
REMARK       I    between atoms: N_10  and  C_3 
REMARK    4  A    between atoms: CB_5  and  CG_6 
REMARK    5  A    between atoms: CG_6  and  CD_7 
REMARK    6  A    between atoms: CA_11  and  N_10 
REMARK    7  A    between atoms: C_12  and  CA_11 
REMARK    8  A    between atoms: CA_11  and  CB_14 
REMARK       I    between atoms: C_12  and  N_18 
REMARK    9  A    between atoms: CB_14  and  CG_15 
REMARK   10  A    between atoms: N_18  and  CA_19 
REMARK   11  A    between atoms: CA_19  and  C_20 
REMARK   12  A    between atoms: CA_19  and  CB_22 
REMARK   13  A    between atoms: CB_22  and  CG_23 
REMARK   14  A    between atoms: CG_23  and  CD2_25 
REMARK   15  A    between atoms: CG_23  and  CD1_24 
ROOT
ATOM      1  CA  MOL d           8.999  23.525   3.495  0.00  0.00     0.098 C 
ATOM      2  H10 MOL d           8.023  23.058   3.698  0.00  0.00     0.088 H 
ENDROOT
BRANCH   1   3
ATOM      3  C   MOL d           9.724  23.741   4.811  0.00  0.00     0.241 C 
ATOM      4  O   MOL d          10.287  22.805   5.383  0.00  0.00    -0.271 OA
ATOM      5  N   MOL d           9.742  24.994   5.256  0.00  0.00    -0.345 N 
ATOM      6  H13 MOL d           9.270  25.701   4.729  0.00  0.00     0.163 HD
BRANCH   5   7
ATOM      7  CA  MOL d          10.426  25.371   6.484  0.00  0.00     0.096 C 
ATOM      8  H14 MOL d          10.263  26.447   6.646  0.00  0.00     0.089 H 
BRANCH   7   9
ATOM      9  C   MOL d          11.924  25.131   6.430  0.00  0.00     0.196 C 
ATOM     10  OXT MOL d          12.468  24.593   7.416  0.00  0.00    -0.646 OA
ATOM     11  O   MOL d          12.538  25.483   5.400  0.00  0.00    -0.646 OA
ENDBRANCH   7   9
BRANCH   7  12
ATOM     12  CB  MOL d           9.815  24.608   7.651  0.00  0.00    -0.034 C 
ATOM     13  H15 MOL d          10.584  23.979   8.122  0.00  0.00     0.037 H 
ATOM     14  H16 MOL d           8.996  23.973   7.285  0.00  0.00     0.037 H 
BRANCH  12  15
ATOM     15  CG  MOL d           9.272  25.600   8.674  0.00  0.00    -0.059 C 
ATOM     16  H17 MOL d           9.789  25.430   9.630  0.00  0.00     0.038 H 
BRANCH  15  17
ATOM     17  CD2 MOL d           7.788  25.350   8.894  0.00  0.00    -0.073 C 
ATOM     18  H21 MOL d           7.495  24.416   8.391  0.00  0.00     0.028 H 
ATOM     19  H22 MOL d           7.209  26.187   8.477  0.00  0.00     0.028 H 
ATOM     20  H23 MOL d           7.585  25.265   9.972  0.00  0.00     0.028 H 
ENDBRANCH  15  17
BRANCH  15  21
ATOM     21  CD1 MOL d           9.563  27.005   8.242  0.00  0.00    -0.073 C 
ATOM     22  H18 MOL d          10.651  27.149   8.170  0.00  0.00     0.028 H 
ATOM     23  H19 MOL d           9.148  27.708   8.979  0.00  0.00     0.028 H 
ATOM     24  H20 MOL d           9.103  27.190   7.260  0.00  0.00     0.028 H 
ENDBRANCH  15  21
ENDBRANCH  12  15
ENDBRANCH   7  12
ENDBRANCH   5   7
ENDBRANCH   1   3
BRANCH   1  25
ATOM     25  CB  MOL d           9.792  22.612   2.563  0.00  0.00     0.043 C 
ATOM     26  H11 MOL d           9.286  22.575   1.587  0.00  0.00     0.052 H 
ATOM     27  H12 MOL d           9.825  21.603   2.999  0.00  0.00     0.052 H 
BRANCH  25  28
ATOM     28  CG  MOL d          11.210  23.104   2.359  0.00  0.00     0.175 C 
ATOM     29  OD1 MOL d          12.137  22.312   2.608  0.00  0.00    -0.648 OA
ATOM     30  OD2 MOL d          11.402  24.258   1.912  0.00  0.00    -0.648 OA
ENDBRANCH  25  28
ENDBRANCH   1  25
BRANCH   1  31
ATOM     31  N   MOL d           8.787  24.817   2.856  0.00  0.00    -0.345 N 
ATOM     32  C   MOL d           7.763  25.046   2.043  0.00  0.00     0.249 C 
ATOM     33  O   MOL d           6.941  24.177   1.732  0.00  0.00    -0.271 OA
ATOM     34  H9  MOL d           9.436  25.556   3.036  0.00  0.00     0.163 HD
BRANCH  32  35
ATOM     35  CA  MOL d           7.685  26.452   1.450  0.00  0.00     0.176 C 
ATOM     36  H4  MOL d           8.617  26.647   0.898  0.00  0.00     0.099 H 
BRANCH  35  37
ATOM     37  CB  MOL d           7.552  27.504   2.554  0.00  0.00    -0.021 C 
ATOM     38  H5  MOL d           7.249  28.455   2.092  0.00  0.00     0.037 H 
ATOM     39  H6  MOL d           8.533  27.627   3.035  0.00  0.00     0.037 H 
BRANCH  37  40
ATOM     40  CG  MOL d           6.537  27.151   3.624  0.00  0.00     0.018 C 
ATOM     41  H7  MOL d           6.210  26.112   3.467  0.00  0.00     0.049 H 
ATOM     42  H8  MOL d           5.675  27.826   3.525  0.00  0.00     0.049 H 
BRANCH  40  43
ATOM     43  CD  MOL d           7.089  27.275   5.030  0.00  0.00     0.172 C 
ATOM     44  OE1 MOL d           8.239  27.748   5.186  0.00  0.00    -0.648 OA
ATOM     45  OE2 MOL d           6.361  26.912   5.982  0.00  0.00    -0.648 OA
ENDBRANCH  40  43
ENDBRANCH  37  40
ENDBRANCH  35  37
BRANCH  35  46
ATOM     46  N   MOL d           6.547  26.548   0.496  0.00  0.00    -0.066 N 
ATOM     47  H1  MOL d           6.022  25.688   0.512  0.00  0.00     0.275 HD
ATOM     48  H2  MOL d           6.902  26.708  -0.434  0.00  0.00     0.275 HD
ATOM     49  H3  MOL d           5.947  27.313   0.763  0.00  0.00     0.275 HD
ENDBRANCH  35  46
ENDBRANCH  32  35
ENDBRANCH   1  31
TORSDOF 15
ENDMDL
MODEL 5
REMARK VINA RESULT:      -5.4      2.376      4.132
REMARK  15 active torsions:
REMARK  status: ('A' for Active; 'I' for Inactive)
REMARK    1  A    between atoms: CA_2  and  N_1 
REMARK    2  A    between atoms: C_3  and  CA_2 
REMARK    3  A    between atoms: CA_2  and  CB_5 
REMARK       I    between atoms: N_10  and  C_3 
REMARK    4  A    between atoms: CB_5  and  CG_6 
REMARK    5  A    between atoms: CG_6  and  CD_7 
REMARK    6  A    between atoms: CA_11  and  N_10 
REMARK    7  A    between atoms: C_12  and  CA_11 
REMARK    8  A    between atoms: CA_11  and  CB_14 
REMARK       I    between atoms: C_12  and  N_18 
REMARK    9  A    between atoms: CB_14  and  CG_15 
REMARK   10  A    between atoms: N_18  and  CA_19 
REMARK   11  A    between atoms: CA_19  and  C_20 
REMARK   12  A    between atoms: CA_19  and  CB_22 
REMARK   13  A    between atoms: CB_22  and  CG_23 
REMARK   14  A    between atoms: CG_23  and  CD2_25 
REMARK   15  A    between atoms: CG_23  and  CD1_24 
ROOT
ATOM      1  CA  MOL d           7.968  25.669   3.998  0.00  0.00     0.098 C 
ATOM      2  H10 MOL d           8.669  26.447   3.662  0.00  0.00     0.088 H 
ENDROOT
BRANCH   1   3
ATOM      3  C   MOL d           6.549  26.190   3.854  0.00  0.00     0.241 C 
ATOM      4  O   MOL d           6.292  27.115   3.080  0.00  0.00    -0.271 OA
ATOM      5  N   MOL d           5.629  25.553   4.573  0.00  0.00    -0.345 N 
ATOM      6  H13 MOL d           5.916  24.804   5.170  0.00  0.00     0.163 HD
BRANCH   5   7
ATOM      7  CA  MOL d           4.220  25.909   4.519  0.00  0.00     0.096 C 
ATOM      8  H14 MOL d           4.049  26.476   3.591  0.00  0.00     0.089 H 
BRANCH   7   9
ATOM      9  C   MOL d           3.780  26.780   5.681  0.00  0.00     0.196 C 
ATOM     10  OXT MOL d           3.384  27.936   5.431  0.00  0.00    -0.646 OA
ATOM     11  O   MOL d           3.835  26.296   6.832  0.00  0.00    -0.646 OA
ENDBRANCH   7   9
BRANCH   7  12
ATOM     12  CB  MOL d           3.384  24.638   4.470  0.00  0.00    -0.034 C 
ATOM     13  H15 MOL d           2.385  24.870   4.074  0.00  0.00     0.037 H 
ATOM     14  H16 MOL d           3.289  24.222   5.483  0.00  0.00     0.037 H 
BRANCH  12  15
ATOM     15  CG  MOL d           4.066  23.619   3.563  0.00  0.00    -0.059 C 
ATOM     16  H17 MOL d           5.155  23.732   3.673  0.00  0.00     0.038 H 
BRANCH  15  17
ATOM     17  CD2 MOL d           3.710  23.906   2.111  0.00  0.00    -0.073 C 
ATOM     18  H21 MOL d           4.536  24.453   1.633  0.00  0.00     0.028 H 
ATOM     19  H22 MOL d           2.795  24.515   2.072  0.00  0.00     0.028 H 
ATOM     20  H23 MOL d           3.542  22.957   1.580  0.00  0.00     0.028 H 
ENDBRANCH  15  17
BRANCH  15  21
ATOM     21  CD1 MOL d           3.707  22.226   3.981  0.00  0.00    -0.073 C 
ATOM     22  H18 MOL d           4.566  21.761   4.486  0.00  0.00     0.028 H 
ATOM     23  H19 MOL d           3.439  21.634   3.094  0.00  0.00     0.028 H 
ATOM     24  H20 MOL d           2.851  22.259   4.671  0.00  0.00     0.028 H 
ENDBRANCH  15  21
ENDBRANCH  12  15
ENDBRANCH   7  12
ENDBRANCH   5   7
ENDBRANCH   1   3
BRANCH   1  25
ATOM     25  CB  MOL d           8.191  24.415   3.156  0.00  0.00     0.043 C 
ATOM     26  H11 MOL d           7.911  24.633   2.114  0.00  0.00     0.052 H 
ATOM     27  H12 MOL d           7.554  23.608   3.546  0.00  0.00     0.052 H 
BRANCH  25  28
ATOM     28  CG  MOL d           9.635  23.959   3.188  0.00  0.00     0.175 C 
ATOM     29  OD1 MOL d          10.347  24.225   2.202  0.00  0.00    -0.648 OA
ATOM     30  OD2 MOL d          10.072  23.377   4.207  0.00  0.00    -0.648 OA
ENDBRANCH  25  28
ENDBRANCH   1  25
BRANCH   1  31
ATOM     31  N   MOL d           8.220  25.371   5.401  0.00  0.00    -0.345 N 
ATOM     32  C   MOL d           8.695  26.279   6.244  0.00  0.00     0.249 C 
ATOM     33  O   MOL d           9.001  27.426   5.899  0.00  0.00    -0.271 OA
ATOM     34  H9  MOL d           8.029  24.450   5.741  0.00  0.00     0.163 HD
BRANCH  32  35
ATOM     35  CA  MOL d           8.908  25.807   7.682  0.00  0.00     0.176 C 
ATOM     36  H4  MOL d           9.415  26.610   8.238  0.00  0.00     0.099 H 
BRANCH  35  37
ATOM     37  CB  MOL d           9.798  24.562   7.721  0.00  0.00    -0.021 C 
ATOM     38  H5  MOL d           9.402  23.831   7.001  0.00  0.00     0.037 H 
ATOM     39  H6  MOL d           9.754  24.138   8.735  0.00  0.00     0.037 H 
BRANCH  37  40
ATOM     40  CG  MOL d          11.250  24.830   7.378  0.00  0.00     0.018 C 
ATOM     41  H7  MOL d          11.610  25.662   8.003  0.00  0.00     0.049 H 
ATOM     42  H8  MOL d          11.313  25.114   6.318  0.00  0.00     0.049 H 
BRANCH  40  43
ATOM     43  CD  MOL d          12.147  23.630   7.611  0.00  0.00     0.172 C 
ATOM     44  OE1 MOL d          13.227  23.796   8.224  0.00  0.00    -0.648 OA
ATOM     45  OE2 MOL d          11.760  22.517   7.190  0.00  0.00    -0.648 OA
ENDBRANCH  40  43
ENDBRANCH  37  40
ENDBRANCH  35  37
BRANCH  35  46
ATOM     46  N   MOL d           7.600  25.537   8.337  0.00  0.00    -0.066 N 
ATOM     47  H1  MOL d           7.749  25.327   9.311  0.00  0.00     0.275 HD
ATOM     48  H2  MOL d           7.156  24.751   7.888  0.00  0.00     0.275 HD
ATOM     49  H3  MOL d           7.009  26.349   8.255  0.00  0.00     0.275 HD
ENDBRANCH  35  46
ENDBRANCH  32  35
ENDBRANCH   1  31
TORSDOF 15
ENDMDL
MODEL 6
REMARK VINA RESULT:      -5.3      2.153      5.468
REMARK  15 active torsions:
REMARK  status: ('A' for Active; 'I' for Inactive)
REMARK    1  A    between atoms: CA_2  and  N_1 
REMARK    2  A    between atoms: C_3  and  CA_2 
REMARK    3  A    between atoms: CA_2  and  CB_5 
REMARK       I    between atoms: N_10  and  C_3 
REMARK    4  A    between atoms: CB_5  and  CG_6 
REMARK    5  A    between atoms: CG_6  and  CD_7 
REMARK    6  A    between atoms: CA_11  and  N_10 
REMARK    7  A    between atoms: C_12  and  CA_11 
REMARK    8  A    between atoms: CA_11  and  CB_14 
REMARK       I    between atoms: C_12  and  N_18 
REMARK    9  A    between atoms: CB_14  and  CG_15 
REMARK   10  A    between atoms: N_18  and  CA_19 
REMARK   11  A    between atoms: CA_19  and  C_20 
REMARK   12  A    between atoms: CA_19  and  CB_22 
REMARK   13  A    between atoms: CB_22  and  CG_23 
REMARK   14  A    between atoms: CG_23  and  CD2_25 
REMARK   15  A    between atoms: CG_23  and  CD1_24 
ROOT
ATOM      1  CA  MOL d           9.020  23.336   3.600  0.00  0.00     0.098 C 
ATOM      2  H10 MOL d           8.040  22.848   3.704  0.00  0.00     0.088 H 
ENDROOT
BRANCH   1   3
ATOM      3  C   MOL d           9.717  23.332   4.949  0.00  0.00     0.241 C 
ATOM      4  O   MOL d          10.293  22.321   5.359  0.00  0.00    -0.271 OA
ATOM      5  N   MOL d           9.698  24.487   5.607  0.00  0.00    -0.345 N 
ATOM      6  H13 MOL d           9.218  25.266   5.203  0.00  0.00     0.163 HD
BRANCH   5   7
ATOM      7  CA  MOL d          10.351  24.655   6.897  0.00  0.00     0.096 C 
ATOM      8  H14 MOL d          10.527  23.655   7.320  0.00  0.00     0.089 H 
BRANCH   7   9
ATOM      9  C   MOL d           9.513  25.439   7.891  0.00  0.00     0.196 C 
ATOM     10  OXT MOL d           8.523  24.873   8.397  0.00  0.00    -0.646 OA
ATOM     11  O   MOL d           9.857  26.611   8.155  0.00  0.00    -0.646 OA
ENDBRANCH   7   9
BRANCH   7  12
ATOM     12  CB  MOL d          11.696  25.338   6.691  0.00  0.00    -0.034 C 
ATOM     13  H15 MOL d          11.775  26.203   7.364  0.00  0.00     0.037 H 
ATOM     14  H16 MOL d          11.780  25.676   5.648  0.00  0.00     0.037 H 
BRANCH  12  15
ATOM     15  CG  MOL d          12.816  24.350   6.998  0.00  0.00    -0.059 C 
ATOM     16  H17 MOL d          13.642  24.899   7.474  0.00  0.00     0.038 H 
BRANCH  15  17
ATOM     17  CD2 MOL d          13.340  23.749   5.702  0.00  0.00    -0.073 C 
ATOM     18  H21 MOL d          14.366  23.383   5.857  0.00  0.00     0.028 H 
ATOM     19  H22 MOL d          13.339  24.518   4.915  0.00  0.00     0.028 H 
ATOM     20  H23 MOL d          12.693  22.913   5.397  0.00  0.00     0.028 H 
ENDBRANCH  15  17
BRANCH  15  21
ATOM     21  CD1 MOL d          12.341  23.309   7.967  0.00  0.00    -0.073 C 
ATOM     22  H18 MOL d          13.178  22.996   8.607  0.00  0.00     0.028 H 
ATOM     23  H19 MOL d          11.958  22.440   7.412  0.00  0.00     0.028 H 
ATOM     24  H20 MOL d          11.539  23.728   8.592  0.00  0.00     0.028 H 
ENDBRANCH  15  21
ENDBRANCH  12  15
ENDBRANCH   7  12
ENDBRANCH   5   7
ENDBRANCH   1   3
BRANCH   1  25
ATOM     25  CB  MOL d           9.832  22.582   2.549  0.00  0.00     0.043 C 
ATOM     26  H11 MOL d           9.310  22.648   1.583  0.00  0.00     0.052 H 
ATOM     27  H12 MOL d           9.911  21.527   2.852  0.00  0.00     0.052 H 
BRANCH  25  28
ATOM     28  CG  MOL d          11.226  23.152   2.393  0.00  0.00     0.175 C 
ATOM     29  OD1 MOL d          12.188  22.390   2.606  0.00  0.00    -0.648 OA
ATOM     30  OD2 MOL d          11.367  24.338   2.018  0.00  0.00    -0.648 OA
ENDBRANCH  25  28
ENDBRANCH   1  25
BRANCH   1  31
ATOM     31  N   MOL d           8.826  24.716   3.175  0.00  0.00    -0.345 N 
ATOM     32  C   MOL d           7.810  25.083   2.404  0.00  0.00     0.249 C 
ATOM     33  O   MOL d           6.982  24.283   1.952  0.00  0.00    -0.271 OA
ATOM     34  H9  MOL d           9.480  25.410   3.474  0.00  0.00     0.163 HD
BRANCH  32  35
ATOM     35  CA  MOL d           7.750  26.566   2.042  0.00  0.00     0.176 C 
ATOM     36  H4  MOL d           8.736  27.011   2.243  0.00  0.00     0.099 H 
BRANCH  35  37
ATOM     37  CB  MOL d           6.711  27.295   2.898  0.00  0.00    -0.021 C 
ATOM     38  H5  MOL d           5.747  27.272   2.368  0.00  0.00     0.037 H 
ATOM     39  H6  MOL d           7.035  28.338   3.022  0.00  0.00     0.037 H 
BRANCH  37  40
ATOM     40  CG  MOL d           6.512  26.690   4.274  0.00  0.00     0.018 C 
ATOM     41  H7  MOL d           6.758  25.619   4.225  0.00  0.00     0.049 H 
ATOM     42  H8  MOL d           5.457  26.812   4.560  0.00  0.00     0.049 H 
BRANCH  40  43
ATOM     43  CD  MOL d           7.378  27.337   5.338  0.00  0.00     0.172 C 
ATOM     44  OE1 MOL d           6.824  27.818   6.354  0.00  0.00    -0.648 OA
ATOM     45  OE2 MOL d           8.617  27.348   5.160  0.00  0.00    -0.648 OA
ENDBRANCH  40  43
ENDBRANCH  37  40
ENDBRANCH  35  37
BRANCH  35  46
ATOM     46  N   MOL d           7.446  26.733   0.595  0.00  0.00    -0.066 N 
ATOM     47  H1  MOL d           6.475  26.976   0.481  0.00  0.00     0.275 HD
ATOM     48  H2  MOL d           7.636  25.870   0.111  0.00  0.00     0.275 HD
ATOM     49  H3  MOL d           8.022  27.468   0.213  0.00  0.00     0.275 HD
ENDBRANCH  35  46
ENDBRANCH  32  35
ENDBRANCH   1  31
TORSDOF 15
ENDMDL
MODEL 7
REMARK VINA RESULT:      -5.3      2.235      6.681
REMARK  15 active torsions:
REMARK  status: ('A' for Active; 'I' for Inactive)
REMARK    1  A    between atoms: CA_2  and  N_1 
REMARK    2  A    between atoms: C_3  and  CA_2 
REMARK    3  A    between atoms: CA_2  and  CB_5 
REMARK       I    between atoms: N_10  and  C_3 
REMARK    4  A    between atoms: CB_5  and  CG_6 
REMARK    5  A    between atoms: CG_6  and  CD_7 
REMARK    6  A    between atoms: CA_11  and  N_10 
REMARK    7  A    between atoms: C_12  and  CA_11 
REMARK    8  A    between atoms: CA_11  and  CB_14 
REMARK       I    between atoms: C_12  and  N_18 
REMARK    9  A    between atoms: CB_14  and  CG_15 
REMARK   10  A    between atoms: N_18  and  CA_19 
REMARK   11  A    between atoms: CA_19  and  C_20 
REMARK   12  A    between atoms: CA_19  and  CB_22 
REMARK   13  A    between atoms: CB_22  and  CG_23 
REMARK   14  A    between atoms: CG_23  and  CD2_25 
REMARK   15  A    between atoms: CG_23  and  CD1_24 
ROOT
ATOM      1  CA  MOL d           9.602  26.277   6.567  0.00  0.00     0.098 C 
ATOM      2  H10 MOL d           9.898  27.257   6.164  0.00  0.00     0.088 H 
ENDROOT
BRANCH   1   3
ATOM      3  C   MOL d          10.570  25.223   6.059  0.00  0.00     0.241 C 
ATOM      4  O   MOL d          11.724  25.524   5.745  0.00  0.00    -0.271 OA
ATOM      5  N   MOL d          10.099  23.979   6.029  0.00  0.00    -0.345 N 
ATOM      6  H13 MOL d           9.153  23.814   6.309  0.00  0.00     0.163 HD
BRANCH   5   7
ATOM      7  CA  MOL d          10.913  22.852   5.601  0.00  0.00     0.096 C 
ATOM      8  H14 MOL d          10.307  21.939   5.698  0.00  0.00     0.089 H 
BRANCH   7   9
ATOM      9  C   MOL d          12.165  22.669   6.439  0.00  0.00     0.196 C 
ATOM     10  OXT MOL d          12.027  22.479   7.665  0.00  0.00    -0.646 OA
ATOM     11  O   MOL d          13.272  22.716   5.861  0.00  0.00    -0.646 OA
ENDBRANCH   7   9
BRANCH   7  12
ATOM     12  CB  MOL d          11.285  23.031   4.135  0.00  0.00    -0.034 C 
ATOM     13  H15 MOL d          11.816  22.137   3.779  0.00  0.00     0.037 H 
ATOM     14  H16 MOL d          11.934  23.912   4.027  0.00  0.00     0.037 H 
BRANCH  12  15
ATOM     15  CG  MOL d          10.016  23.230   3.313  0.00  0.00    -0.059 C 
ATOM     16  H17 MOL d           9.216  23.572   3.987  0.00  0.00     0.038 H 
BRANCH  15  17
ATOM     17  CD2 MOL d           9.583  21.902   2.710  0.00  0.00    -0.073 C 
ATOM     18  H21 MOL d          10.165  21.707   1.797  0.00  0.00     0.028 H 
ATOM     19  H22 MOL d           8.512  21.945   2.460  0.00  0.00     0.028 H 
ATOM     20  H23 MOL d           9.758  21.094   3.436  0.00  0.00     0.028 H 
ENDBRANCH  15  17
BRANCH  15  21
ATOM     21  CD1 MOL d          10.227  24.293   2.278  0.00  0.00    -0.073 C 
ATOM     22  H18 MOL d           9.903  23.918   1.297  0.00  0.00     0.028 H 
ATOM     23  H19 MOL d          11.293  24.557   2.236  0.00  0.00     0.028 H 
ATOM     24  H20 MOL d           9.638  25.184   2.542  0.00  0.00     0.028 H 
ENDBRANCH  15  21
ENDBRANCH  12  15
ENDBRANCH   7  12
ENDBRANCH   5   7
ENDBRANCH   1   3
BRANCH   1  25
ATOM     25  CB  MOL d           9.609  26.353   8.091  0.00  0.00     0.043 C 
ATOM     26  H11 MOL d           9.912  27.367   8.395  0.00  0.00     0.052 H 
ATOM     27  H12 MOL d          10.333  25.622   8.480  0.00  0.00     0.052 H 
BRANCH  25  28
ATOM     28  CG  MOL d           8.246  26.054   8.681  0.00  0.00     0.175 C 
ATOM     29  OD1 MOL d           7.485  27.016   8.892  0.00  0.00    -0.648 OA
ATOM     30  OD2 MOL d           7.916  24.865   8.892  0.00  0.00    -0.648 OA
ENDBRANCH  25  28
ENDBRANCH   1  25
BRANCH   1  31
ATOM     31  N   MOL d           8.262  25.951   6.096  0.00  0.00    -0.345 N 
ATOM     32  C   MOL d           7.625  26.696   5.201  0.00  0.00     0.249 C 
ATOM     33  O   MOL d           8.096  27.739   4.734  0.00  0.00    -0.271 OA
ATOM     34  H9  MOL d           7.806  25.139   6.461  0.00  0.00     0.163 HD
BRANCH  32  35
ATOM     35  CA  MOL d           6.225  26.222   4.815  0.00  0.00     0.176 C 
ATOM     36  H4  MOL d           5.888  25.491   5.566  0.00  0.00     0.099 H 
BRANCH  35  37
ATOM     37  CB  MOL d           6.238  25.535   3.448  0.00  0.00    -0.021 C 
ATOM     38  H5  MOL d           7.047  24.789   3.443  0.00  0.00     0.037 H 
ATOM     39  H6  MOL d           6.437  26.296   2.680  0.00  0.00     0.037 H 
BRANCH  37  40
ATOM     40  CG  MOL d           4.941  24.832   3.098  0.00  0.00     0.018 C 
ATOM     41  H7  MOL d           4.288  24.840   3.984  0.00  0.00     0.049 H 
ATOM     42  H8  MOL d           5.170  23.792   2.821  0.00  0.00     0.049 H 
BRANCH  40  43
ATOM     43  CD  MOL d           4.202  25.487   1.948  0.00  0.00     0.172 C 
ATOM     44  OE1 MOL d           3.803  24.768   1.002  0.00  0.00    -0.648 OA
ATOM     45  OE2 MOL d           4.008  26.722   2.001  0.00  0.00    -0.648 OA
ENDBRANCH  40  43
ENDBRANCH  37  40
ENDBRANCH  35  37
BRANCH  35  46
ATOM     46  N   MOL d           5.274  27.367   4.816  0.00  0.00    -0.066 N 
ATOM     47  H1  MOL d           4.395  27.074   4.420  0.00  0.00     0.275 HD
ATOM     48  H2  MOL d           5.656  28.121   4.267  0.00  0.00     0.275 HD
ATOM     49  H3  MOL d           5.126  27.681   5.763  0.00  0.00     0.275 HD
ENDBRANCH  35  46
ENDBRANCH  32  35
ENDBRANCH   1  31
TORSDOF 15
ENDMDL
MODEL 8
REMARK VINA RESULT:      -5.2      1.794      4.231
REMARK  15 active torsions:
REMARK  status: ('A' for Active; 'I' for Inactive)
REMARK    1  A    between atoms: CA_2  and  N_1 
REMARK    2  A    between atoms: C_3  and  CA_2 
REMARK    3  A    between atoms: CA_2  and  CB_5 
REMARK       I    between atoms: N_10  and  C_3 
REMARK    4  A    between atoms: CB_5  and  CG_6 
REMARK    5  A    between atoms: CG_6  and  CD_7 
REMARK    6  A    between atoms: CA_11  and  N_10 
REMARK    7  A    between atoms: C_12  and  CA_11 
REMARK    8  A    between atoms: CA_11  and  CB_14 
REMARK       I    between atoms: C_12  and  N_18 
REMARK    9  A    between atoms: CB_14  and  CG_15 
REMARK   10  A    between atoms: N_18  and  CA_19 
REMARK   11  A    between atoms: CA_19  and  C_20 
REMARK   12  A    between atoms: CA_19  and  CB_22 
REMARK   13  A    between atoms: CB_22  and  CG_23 
REMARK   14  A    between atoms: CG_23  and  CD2_25 
REMARK   15  A    between atoms: CG_23  and  CD1_24 
ROOT
ATOM      1  CA  MOL d           8.803  24.794   3.684  0.00  0.00     0.098 C 
ATOM      2  H10 MOL d           9.638  25.423   3.343  0.00  0.00     0.088 H 
ENDROOT
BRANCH   1   3
ATOM      3  C   MOL d           7.501  25.543   3.463  0.00  0.00     0.241 C 
ATOM      4  O   MOL d           7.482  26.605   2.835  0.00  0.00    -0.271 OA
ATOM      5  N   MOL d           6.411  24.953   3.946  0.00  0.00    -0.345 N 
ATOM      6  H13 MOL d           6.508  24.087   4.436  0.00  0.00     0.163 HD
BRANCH   5   7
ATOM      7  CA  MOL d           5.084  25.527   3.786  0.00  0.00     0.096 C 
ATOM      8  H14 MOL d           4.365  24.865   4.292  0.00  0.00     0.089 H 
BRANCH   7   9
ATOM      9  C   MOL d           4.658  25.648   2.334  0.00  0.00     0.196 C 
ATOM     10  OXT MOL d           4.704  24.624   1.622  0.00  0.00    -0.646 OA
ATOM     11  O   MOL d           4.282  26.766   1.923  0.00  0.00    -0.646 OA
ENDBRANCH   7   9
BRANCH   7  12
ATOM     12  CB  MOL d           5.043  26.891   4.460  0.00  0.00    -0.034 C 
ATOM     13  H15 MOL d           4.300  27.526   3.958  0.00  0.00     0.037 H 
ATOM     14  H16 MOL d           6.034  27.362   4.394  0.00  0.00     0.037 H 
BRANCH  12  15
ATOM     15  CG  MOL d           4.657  26.718   5.925  0.00  0.00    -0.059 C 
ATOM     16  H17 MOL d           5.489  26.220   6.446  0.00  0.00     0.038 H 
BRANCH  15  17
ATOM     17  CD2 MOL d           3.434  25.820   6.031  0.00  0.00    -0.073 C 
ATOM     18  H21 MOL d           3.751  24.766   6.022  0.00  0.00     0.028 H 
ATOM     19  H22 MOL d           2.765  26.010   5.179  0.00  0.00     0.028 H 
ATOM     20  H23 MOL d           2.901  26.035   6.970  0.00  0.00     0.028 H 
ENDBRANCH  15  17
BRANCH  15  21
ATOM     21  CD1 MOL d           4.450  28.055   6.570  0.00  0.00    -0.073 C 
ATOM     22  H18 MOL d           4.549  28.847   5.813  0.00  0.00     0.028 H 
ATOM     23  H19 MOL d           5.203  28.204   7.357  0.00  0.00     0.028 H 
ATOM     24  H20 MOL d           3.444  28.097   7.013  0.00  0.00     0.028 H 
ENDBRANCH  15  21
ENDBRANCH  12  15
ENDBRANCH   7  12
ENDBRANCH   5   7
ENDBRANCH   1   3
BRANCH   1  25
ATOM     25  CB  MOL d           8.831  23.481   2.905  0.00  0.00     0.043 C 
ATOM     26  H11 MOL d           8.063  23.519   2.119  0.00  0.00     0.052 H 
ATOM     27  H12 MOL d           8.610  22.654   3.596  0.00  0.00     0.052 H 
BRANCH  25  28
ATOM     28  CG  MOL d          10.179  23.233   2.261  0.00  0.00     0.175 C 
ATOM     29  OD1 MOL d          10.491  22.053   2.013  0.00  0.00    -0.648 OA
ATOM     30  OD2 MOL d          10.906  24.207   1.962  0.00  0.00    -0.648 OA
ENDBRANCH  25  28
ENDBRANCH   1  25
BRANCH   1  31
ATOM     31  N   MOL d           8.956  24.526   5.108  0.00  0.00    -0.345 N 
ATOM     32  C   MOL d          10.089  24.768   5.757  0.00  0.00     0.249 C 
ATOM     33  O   MOL d          11.107  25.194   5.200  0.00  0.00    -0.271 OA
ATOM     34  H9  MOL d           8.182  24.146   5.613  0.00  0.00     0.163 HD
BRANCH  32  35
ATOM     35  CA  MOL d          10.089  24.427   7.246  0.00  0.00     0.176 C 
ATOM     36  H4  MOL d           9.228  23.773   7.452  0.00  0.00     0.099 H 
BRANCH  35  37
ATOM     37  CB  MOL d           9.945  25.692   8.096  0.00  0.00    -0.021 C 
ATOM     38  H5  MOL d          10.660  26.441   7.726  0.00  0.00     0.037 H 
ATOM     39  H6  MOL d          10.186  25.438   9.138  0.00  0.00     0.037 H 
BRANCH  37  40
ATOM     40  CG  MOL d           8.557  26.302   8.062  0.00  0.00     0.018 C 
ATOM     41  H7  MOL d           8.217  26.456   9.097  0.00  0.00     0.049 H 
ATOM     42  H8  MOL d           7.879  25.601   7.554  0.00  0.00     0.049 H 
BRANCH  40  43
ATOM     43  CD  MOL d           8.509  27.632   7.336  0.00  0.00     0.172 C 
ATOM     44  OE1 MOL d           8.125  27.653   6.144  0.00  0.00    -0.648 OA
ATOM     45  OE2 MOL d           8.844  28.659   7.968  0.00  0.00    -0.648 OA
ENDBRANCH  40  43
ENDBRANCH  37  40
ENDBRANCH  35  37
BRANCH  35  46
ATOM     46  N   MOL d          11.332  23.693   7.607  0.00  0.00    -0.066 N 
ATOM     47  H1  MOL d          11.150  23.091   8.394  0.00  0.00     0.275 HD
ATOM     48  H2  MOL d          12.053  24.354   7.850  0.00  0.00     0.275 HD
ATOM     49  H3  MOL d          11.635  23.137   6.823  0.00  0.00     0.275 HD
ENDBRANCH  35  46
ENDBRANCH  32  35
ENDBRANCH   1  31
TORSDOF 15
ENDMDL
MODEL 9
REMARK VINA RESULT:      -4.9      2.282      4.842
REMARK  15 active torsions:
REMARK  status: ('A' for Active; 'I' for Inactive)
REMARK    1  A    between atoms: CA_2  and  N_1 
REMARK    2  A    between atoms: C_3  and  CA_2 
REMARK    3  A    between atoms: CA_2  and  CB_5 
REMARK       I    between atoms: N_10  and  C_3 
REMARK    4  A    between atoms: CB_5  and  CG_6 
REMARK    5  A    between atoms: CG_6  and  CD_7 
REMARK    6  A    between atoms: CA_11  and  N_10 
REMARK    7  A    between atoms: C_12  and  CA_11 
REMARK    8  A    between atoms: CA_11  and  CB_14 
REMARK       I    between atoms: C_12  and  N_18 
REMARK    9  A    between atoms: CB_14  and  CG_15 
REMARK   10  A    between atoms: N_18  and  CA_19 
REMARK   11  A    between atoms: CA_19  and  C_20 
REMARK   12  A    between atoms: CA_19  and  CB_22 
REMARK   13  A    between atoms: CB_22  and  CG_23 
REMARK   14  A    between atoms: CG_23  and  CD2_25 
REMARK   15  A    between atoms: CG_23  and  CD1_24 
ROOT
ATOM      1  CA  MOL d           9.543  24.272   3.974  0.00  0.00     0.098 C 
ATOM      2  H10 MOL d          10.467  24.744   3.607  0.00  0.00     0.088 H 
ENDROOT
BRANCH   1   3
ATOM      3  C   MOL d           8.357  25.123   3.556  0.00  0.00     0.241 C 
ATOM      4  O   MOL d           8.062  26.144   4.180  0.00  0.00    -0.271 OA
ATOM      5  N   MOL d           7.714  24.713   2.466  0.00  0.00    -0.345 N 
ATOM      6  H13 MOL d           8.021  23.879   2.009  0.00  0.00     0.163 HD
BRANCH   5   7
ATOM      7  CA  MOL d           6.578  25.439   1.918  0.00  0.00     0.096 C 
ATOM      8  H14 MOL d           6.088  24.791   1.176  0.00  0.00     0.089 H 
BRANCH   7   9
ATOM      9  C   MOL d           6.975  26.727   1.220  0.00  0.00     0.196 C 
ATOM     10  OXT MOL d           7.432  26.648   0.061  0.00  0.00    -0.646 OA
ATOM     11  O   MOL d           6.823  27.802   1.838  0.00  0.00    -0.646 OA
ENDBRANCH   7   9
BRANCH   7  12
ATOM     12  CB  MOL d           5.585  25.732   3.034  0.00  0.00    -0.034 C 
ATOM     13  H15 MOL d           5.272  26.784   2.980  0.00  0.00     0.037 H 
ATOM     14  H16 MOL d           6.060  25.541   4.007  0.00  0.00     0.037 H 
BRANCH  12  15
ATOM     15  CG  MOL d           4.367  24.829   2.876  0.00  0.00    -0.059 C 
ATOM     16  H17 MOL d           3.561  25.220   3.515  0.00  0.00     0.038 H 
BRANCH  15  17
ATOM     17  CD2 MOL d           4.704  23.425   3.355  0.00  0.00    -0.073 C 
ATOM     18  H21 MOL d           3.840  22.763   3.188  0.00  0.00     0.028 H 
ATOM     19  H22 MOL d           4.943  23.451   4.428  0.00  0.00     0.028 H 
ATOM     20  H23 MOL d           5.572  23.045   2.795  0.00  0.00     0.028 H 
ENDBRANCH  15  17
BRANCH  15  21
ATOM     21  CD1 MOL d           3.880  24.855   1.459  0.00  0.00    -0.073 C 
ATOM     22  H18 MOL d           4.678  24.501   0.791  0.00  0.00     0.028 H 
ATOM     23  H19 MOL d           3.602  25.883   1.186  0.00  0.00     0.028 H 
ATOM     24  H20 MOL d           3.002  24.199   1.361  0.00  0.00     0.028 H 
ENDBRANCH  15  21
ENDBRANCH  12  15
ENDBRANCH   7  12
ENDBRANCH   5   7
ENDBRANCH   1   3
BRANCH   1  25
ATOM     25  CB  MOL d           9.452  22.863   3.394  0.00  0.00     0.043 C 
ATOM     26  H11 MOL d           9.058  22.925   2.369  0.00  0.00     0.052 H 
ATOM     27  H12 MOL d           8.767  22.267   4.016  0.00  0.00     0.052 H 
BRANCH  25  28
ATOM     28  CG  MOL d          10.802  22.176   3.357  0.00  0.00     0.175 C 
ATOM     29  OD1 MOL d          11.289  21.803   4.441  0.00  0.00    -0.648 OA
ATOM     30  OD2 MOL d          11.355  21.969   2.254  0.00  0.00    -0.648 OA
ENDBRANCH  25  28
ENDBRANCH   1  25
BRANCH   1  31
ATOM     31  N   MOL d           9.585  24.204   5.428  0.00  0.00    -0.345 N 
ATOM     32  C   MOL d          10.602  24.689   6.131  0.00  0.00     0.249 C 
ATOM     33  O   MOL d          11.605  25.189   5.610  0.00  0.00    -0.271 OA
ATOM     34  H9  MOL d           8.822  23.779   5.914  0.00  0.00     0.163 HD
BRANCH  32  35
ATOM     35  CA  MOL d          10.497  24.536   7.648  0.00  0.00     0.176 C 
ATOM     36  H4  MOL d           9.790  23.720   7.865  0.00  0.00     0.099 H 
BRANCH  35  37
ATOM     37  CB  MOL d           9.962  25.818   8.290  0.00  0.00    -0.021 C 
ATOM     38  H5  MOL d          10.151  26.655   7.602  0.00  0.00     0.037 H 
ATOM     39  H6  MOL d          10.507  25.987   9.230  0.00  0.00     0.037 H 
BRANCH  37  40
ATOM     40  CG  MOL d           8.479  25.781   8.599  0.00  0.00     0.018 C 
ATOM     41  H7  MOL d           8.344  25.884   9.686  0.00  0.00     0.049 H 
ATOM     42  H8  MOL d           8.077  24.811   8.270  0.00  0.00     0.049 H 
BRANCH  40  43
ATOM     43  CD  MOL d           7.700  26.884   7.909  0.00  0.00     0.172 C 
ATOM     44  OE1 MOL d           8.332  27.834   7.393  0.00  0.00    -0.648 OA
ATOM     45  OE2 MOL d           6.453  26.788   7.873  0.00  0.00    -0.648 OA
ENDBRANCH  40  43
ENDBRANCH  37  40
ENDBRANCH  35  37
BRANCH  35  46
ATOM     46  N   MOL d          11.820  24.174   8.223  0.00  0.00    -0.066 N 
ATOM     47  H1  MOL d          12.436  24.970   8.177  0.00  0.00     0.275 HD
ATOM     48  H2  MOL d          12.217  23.410   7.698  0.00  0.00     0.275 HD
ATOM     49  H3  MOL d          11.704  23.895   9.185  0.00  0.00     0.275 HD
ENDBRANCH  35  46
ENDBRANCH  32  35
ENDBRANCH   1  31
TORSDOF 15
ENDMDL
MODEL 10
REMARK VINA RESULT:      -4.9      2.254      3.284
REMARK  15 active torsions:
REMARK  status: ('A' for Active; 'I' for Inactive)
REMARK    1  A    between atoms: CA_2  and  N_1 
REMARK    2  A    between atoms: C_3  and  CA_2 
REMARK    3  A    between atoms: CA_2  and  CB_5 
REMARK       I    between atoms: N_10  and  C_3 
REMARK    4  A    between atoms: CB_5  and  CG_6 
REMARK    5  A    between atoms: CG_6  and  CD_7 
REMARK    6  A    between atoms: CA_11  and  N_10 
REMARK    7  A    between atoms: C_12  and  CA_11 
REMARK    8  A    between atoms: CA_11  and  CB_14 
REMARK       I    between atoms: C_12  and  N_18 
REMARK    9  A    between atoms: CB_14  and  CG_15 
REMARK   10  A    between atoms: N_18  and  CA_19 
REMARK   11  A    between atoms: CA_19  and  C_20 
REMARK   12  A    between atoms: CA_19  and  CB_22 
REMARK   13  A    between atoms: CB_22  and  CG_23 
REMARK   14  A    between atoms: CG_23  and  CD2_25 
REMARK   15  A    between atoms: CG_23  and  CD1_24 
ROOT
ATOM      1  CA  MOL d           7.894  26.655   3.452  0.00  0.00     0.098 C 
ATOM      2  H10 MOL d           8.813  27.204   3.707  0.00  0.00     0.088 H 
ENDROOT
BRANCH   1   3
ATOM      3  C   MOL d           7.062  26.478   4.710  0.00  0.00     0.241 C 
ATOM      4  O   MOL d           6.049  25.775   4.703  0.00  0.00    -0.271 OA
ATOM      5  N   MOL d           7.531  27.083   5.797  0.00  0.00    -0.345 N 
ATOM      6  H13 MOL d           8.367  27.628   5.725  0.00  0.00     0.163 HD
BRANCH   5   7
ATOM      7  CA  MOL d           6.868  26.980   7.088  0.00  0.00     0.096 C 
ATOM      8  H14 MOL d           6.712  25.913   7.305  0.00  0.00     0.089 H 
BRANCH   7   9
ATOM      9  C   MOL d           5.513  27.663   7.119  0.00  0.00     0.196 C 
ATOM     10  OXT MOL d           4.518  26.977   7.429  0.00  0.00    -0.646 OA
ATOM     11  O   MOL d           5.460  28.878   6.833  0.00  0.00    -0.646 OA
ENDBRANCH   7   9
BRANCH   7  12
ATOM     12  CB  MOL d           7.774  27.564   8.163  0.00  0.00    -0.034 C 
ATOM     13  H15 MOL d           7.165  28.102   8.904  0.00  0.00     0.037 H 
ATOM     14  H16 MOL d           8.489  28.260   7.702  0.00  0.00     0.037 H 
BRANCH  12  15
ATOM     15  CG  MOL d           8.534  26.435   8.852  0.00  0.00    -0.059 C 
ATOM     16  H17 MOL d           8.738  26.737   9.890  0.00  0.00     0.038 H 
BRANCH  15  17
ATOM     17  CD2 MOL d           9.870  26.219   8.157  0.00  0.00    -0.073 C 
ATOM     18  H21 MOL d          10.518  25.597   8.794  0.00  0.00     0.028 H 
ATOM     19  H22 MOL d          10.353  27.191   7.981  0.00  0.00     0.028 H 
ATOM     20  H23 MOL d           9.706  25.712   7.195  0.00  0.00     0.028 H 
ENDBRANCH  15  17
BRANCH  15  21
ATOM     21  CD1 MOL d           7.697  25.193   8.893  0.00  0.00    -0.073 C 
ATOM     22  H18 MOL d           8.342  24.322   9.078  0.00  0.00     0.028 H 
ATOM     23  H19 MOL d           7.179  25.069   7.931  0.00  0.00     0.028 H 
ATOM     24  H20 MOL d           6.955  25.278   9.701  0.00  0.00     0.028 H 
ENDBRANCH  15  21
ENDBRANCH  12  15
ENDBRANCH   7  12
ENDBRANCH   5   7
ENDBRANCH   1   3
BRANCH   1  25
ATOM     25  CB  MOL d           7.135  27.444   2.387  0.00  0.00     0.043 C 
ATOM     26  H11 MOL d           7.694  28.364   2.161  0.00  0.00     0.052 H 
ATOM     27  H12 MOL d           6.141  27.705   2.781  0.00  0.00     0.052 H 
BRANCH  25  28
ATOM     28  CG  MOL d           6.961  26.650   1.109  0.00  0.00     0.175 C 
ATOM     29  OD1 MOL d           6.039  25.814   1.069  0.00  0.00    -0.648 OA
ATOM     30  OD2 MOL d           7.710  26.885   0.134  0.00  0.00    -0.648 OA
ENDBRANCH  25  28
ENDBRANCH   1  25
BRANCH   1  31
ATOM     31  N   MOL d           8.248  25.341   2.932  0.00  0.00    -0.345 N 
ATOM     32  C   MOL d           9.113  24.545   3.549  0.00  0.00     0.249 C 
ATOM     33  O   MOL d           9.713  24.871   4.579  0.00  0.00    -0.271 OA
ATOM     34  H9  MOL d           7.826  25.029   2.081  0.00  0.00     0.163 HD
BRANCH  32  35
ATOM     35  CA  MOL d           9.381  23.202   2.873  0.00  0.00     0.176 C 
ATOM     36  H4  MOL d           9.251  22.406   3.622  0.00  0.00     0.099 H 
BRANCH  35  37
ATOM     37  CB  MOL d          10.815  23.133   2.344  0.00  0.00    -0.021 C 
ATOM     38  H5  MOL d          11.338  24.054   2.640  0.00  0.00     0.037 H 
ATOM     39  H6  MOL d          10.777  23.070   1.247  0.00  0.00     0.037 H 
BRANCH  37  40
ATOM     40  CG  MOL d          11.608  21.949   2.863  0.00  0.00     0.018 C 
ATOM     41  H7  MOL d          12.528  21.855   2.267  0.00  0.00     0.049 H 
ATOM     42  H8  MOL d          10.998  21.041   2.743  0.00  0.00     0.049 H 
BRANCH  40  43
ATOM     43  CD  MOL d          11.991  22.084   4.323  0.00  0.00     0.172 C 
ATOM     44  OE1 MOL d          11.132  21.826   5.198  0.00  0.00    -0.648 OA
ATOM     45  OE2 MOL d          13.162  22.435   4.593  0.00  0.00    -0.648 OA
ENDBRANCH  40  43
ENDBRANCH  37  40
ENDBRANCH  35  37
BRANCH  35  46
ATOM     46  N   MOL d           8.406  22.973   1.773  0.00  0.00    -0.066 N 
ATOM     47  H1  MOL d           8.822  23.239   0.895  0.00  0.00     0.275 HD
ATOM     48  H2  MOL d           7.580  23.528   1.936  0.00  0.00     0.275 HD
ATOM     49  H3  MOL d           8.154  21.997   1.743  0.00  0.00     0.275 HD
ENDBRANCH  35  46
ENDBRANCH  32  35
ENDBRANCH   1  31
TORSDOF 15
ENDMDL
