MODEL 1
REMARK VINA RESULT:      -8.4      0.000      0.000
REMARK  4 active torsions:
REMARK  status: ('A' for Active; 'I' for Inactive)
REMARK    1  A    between atoms: S5_2  and  N21_4 
REMARK    2  A    between atoms: S5_2  and  C5_12 
REMARK    3  A    between atoms: C22_5  and  C2M_6 
REMARK    4  A    between atoms: C4_14  and  CM_15 
ROOT
ATOM      1  N21 H52 d          10.173   9.416   3.674  0.00  0.00    -0.301 N 
ATOM      2  C22 H52 d          10.502   7.945   3.888  0.00  0.00     0.042 C 
ATOM      3  C23 H52 d          11.960   7.530   3.656  0.00  0.00     0.100 C 
ATOM      4  N24 H52 d          12.811   8.192   4.721  0.00  0.00    -0.073 N 
ATOM      5  C25 H52 d          13.358   9.500   4.172  0.00  0.00     0.083 C 
ATOM      6  C26 H52 d          12.314  10.629   4.109  0.00  0.00    -0.027 C 
ATOM      7  C27 H52 d          11.213  10.312   3.105  0.00  0.00     0.007 C 
ATOM      8  H1  H52 d          10.313   7.770   4.958  0.00  0.00     0.075 H 
ATOM      9  H5  H52 d          12.287   7.859   2.658  0.00  0.00     0.078 H 
ATOM     10  H6  H52 d          12.052   6.436   3.730  0.00  0.00     0.078 H 
ATOM     11  H7  H52 d          13.575   7.583   4.969  0.00  0.00     0.277 HD
ATOM     12  H8  H52 d          12.249   8.376   5.537  0.00  0.00     0.277 HD
ATOM     13  H9  H52 d          13.736   9.318   3.155  0.00  0.00     0.075 H 
ATOM     14  H10 H52 d          14.186   9.828   4.817  0.00  0.00     0.075 H 
ATOM     15  H11 H52 d          12.814  11.563   3.809  0.00  0.00     0.037 H 
ATOM     16  H12 H52 d          11.864  10.757   5.105  0.00  0.00     0.037 H 
ATOM     17  H13 H52 d          10.737  11.254   2.793  0.00  0.00     0.065 H 
ATOM     18  H14 H52 d          11.664   9.821   2.229  0.00  0.00     0.065 H 
ENDROOT
BRANCH   1  19
ATOM     19  S5  H52 d           8.785  10.012   4.482  0.00  0.00     0.262 S 
ATOM     20  O1  H52 d           8.918  11.409   4.975  0.00  0.00    -0.200 OA
ATOM     21  O2  H52 d           8.469   8.970   5.468  0.00  0.00    -0.200 OA
BRANCH  19  22
ATOM     22  C5  H52 d           7.443   9.942   3.309  0.00  0.00     0.091 A 
ATOM     23  C10 H52 d           6.004   9.954   3.619  0.00  0.00     0.006 A 
ATOM     24  C4  H52 d           5.312  10.095   4.891  0.00  0.00    -0.032 A 
ATOM     25  C9  H52 d           5.117   9.796   2.512  0.00  0.00    -0.006 A 
ATOM     26  C3  H52 d           3.938  10.046   4.979  0.00  0.00     0.008 A 
ATOM     27  N2  H52 d           3.162   9.859   3.892  0.00  0.00    -0.272 NA
ATOM     28  H22 H52 d           3.467  10.160   5.949  0.00  0.00     0.115 H 
ATOM     29  C1  H52 d           3.702   9.771   2.701  0.00  0.00     0.013 A 
ATOM     30  H21 H52 d           3.056   9.677   1.835  0.00  0.00     0.116 H 
ATOM     31  C8  H52 d           5.615   9.648   1.188  0.00  0.00    -0.071 A 
ATOM     32  C7  H52 d           6.959   9.640   0.941  0.00  0.00    -0.081 A 
ATOM     33  H18 H52 d           4.920   9.541   0.364  0.00  0.00     0.084 H 
ATOM     34  C6  H52 d           7.878   9.759   2.013  0.00  0.00    -0.059 A 
ATOM     35  H19 H52 d           7.323   9.542  -0.076  0.00  0.00     0.083 H 
ATOM     36  H20 H52 d           8.941   9.707   1.810  0.00  0.00     0.085 H 
BRANCH  24  37
ATOM     37  CM  H52 d           5.929  10.324   6.236  0.00  0.00    -0.049 C 
ATOM     38  H15 H52 d           6.404  11.316   6.257  0.00  0.00     0.033 H 
ATOM     39  H16 H52 d           6.687   9.551   6.429  0.00  0.00     0.033 H 
ATOM     40  H17 H52 d           5.150  10.275   7.011  0.00  0.00     0.033 H 
ENDBRANCH  24  37
ENDBRANCH  19  22
ENDBRANCH   1  19
BRANCH   2  41
ATOM     41  C2M H52 d           9.580   6.999   3.138  0.00  0.00    -0.055 C 
ATOM     42  H2  H52 d           9.859   5.959   3.364  0.00  0.00     0.030 H 
ATOM     43  H3  H52 d           9.673   7.176   2.057  0.00  0.00     0.030 H 
ATOM     44  H4  H52 d           8.541   7.175   3.451  0.00  0.00     0.030 H 
ENDBRANCH   2  41
TORSDOF 4
ENDMDL
MODEL 2
REMARK VINA RESULT:      -7.9      2.393      3.146
REMARK  4 active torsions:
REMARK  status: ('A' for Active; 'I' for Inactive)
REMARK    1  A    between atoms: S5_2  and  N21_4 
REMARK    2  A    between atoms: S5_2  and  C5_12 
REMARK    3  A    between atoms: C22_5  and  C2M_6 
REMARK    4  A    between atoms: C4_14  and  CM_15 
ROOT
ATOM      1  N21 H52 d          11.093   9.103   2.097  0.00  0.00    -0.301 N 
ATOM      2  C22 H52 d          11.744   9.719   0.867  0.00  0.00     0.042 C 
ATOM      3  C23 H52 d          13.213  10.135   1.007  0.00  0.00     0.100 C 
ATOM      4  N24 H52 d          14.041   8.879   1.195  0.00  0.00    -0.073 N 
ATOM      5  C25 H52 d          14.229   8.631   2.683  0.00  0.00     0.083 C 
ATOM      6  C26 H52 d          12.975   8.075   3.381  0.00  0.00    -0.027 C 
ATOM      7  C27 H52 d          11.842   9.094   3.381  0.00  0.00     0.007 C 
ATOM      8  H1  H52 d          11.737   8.915   0.115  0.00  0.00     0.075 H 
ATOM      9  H5  H52 d          13.332  10.795   1.879  0.00  0.00     0.078 H 
ATOM     10  H6  H52 d          13.539  10.665   0.100  0.00  0.00     0.078 H 
ATOM     11  H7  H52 d          14.940   8.999   0.756  0.00  0.00     0.277 HD
ATOM     12  H8  H52 d          13.565   8.095   0.779  0.00  0.00     0.277 HD
ATOM     13  H9  H52 d          14.500   9.584   3.162  0.00  0.00     0.075 H 
ATOM     14  H10 H52 d          15.048   7.910   2.814  0.00  0.00     0.075 H 
ATOM     15  H11 H52 d          13.227   7.821   4.422  0.00  0.00     0.037 H 
ATOM     16  H12 H52 d          12.642   7.170   2.852  0.00  0.00     0.037 H 
ATOM     17  H13 H52 d          11.144   8.847   4.196  0.00  0.00     0.065 H 
ATOM     18  H14 H52 d          12.265  10.095   3.551  0.00  0.00     0.065 H 
ENDROOT
BRANCH   1  19
ATOM     19  S5  H52 d           9.730   8.103   1.817  0.00  0.00     0.262 S 
ATOM     20  O1  H52 d           9.626   6.940   2.739  0.00  0.00    -0.200 OA
ATOM     21  O2  H52 d           9.776   7.829   0.376  0.00  0.00    -0.200 OA
BRANCH  19  22
ATOM     22  C5  H52 d           8.290   9.135   2.032  0.00  0.00     0.091 A 
ATOM     23  C10 H52 d           7.625   9.460   3.305  0.00  0.00     0.006 A 
ATOM     24  C4  H52 d           7.978   9.113   4.672  0.00  0.00    -0.032 A 
ATOM     25  C9  H52 d           6.430  10.235   3.214  0.00  0.00    -0.006 A 
ATOM     26  C3  H52 d           7.196   9.489   5.743  0.00  0.00     0.008 A 
ATOM     27  N2  H52 d           6.058  10.194   5.578  0.00  0.00    -0.272 NA
ATOM     28  H22 H52 d           7.504   9.210   6.744  0.00  0.00     0.115 H 
ATOM     29  C1  H52 d           5.691  10.589   4.383  0.00  0.00     0.013 A 
ATOM     30  H21 H52 d           4.803  11.201   4.281  0.00  0.00     0.116 H 
ATOM     31  C8  H52 d           5.932  10.670   1.954  0.00  0.00    -0.071 A 
ATOM     32  C7  H52 d           6.577  10.346   0.794  0.00  0.00    -0.081 A 
ATOM     33  H18 H52 d           5.028  11.267   1.914  0.00  0.00     0.084 H 
ATOM     34  C6  H52 d           7.748   9.550   0.834  0.00  0.00    -0.059 A 
ATOM     35  H19 H52 d           6.193  10.698  -0.156  0.00  0.00     0.083 H 
ATOM     36  H20 H52 d           8.227   9.261  -0.095  0.00  0.00     0.085 H 
BRANCH  24  37
ATOM     37  CM  H52 d           9.187   8.355   5.130  0.00  0.00    -0.049 C 
ATOM     38  H15 H52 d           9.524   7.683   4.326  0.00  0.00     0.033 H 
ATOM     39  H16 H52 d           8.932   7.762   6.020  0.00  0.00     0.033 H 
ATOM     40  H17 H52 d           9.992   9.062   5.378  0.00  0.00     0.033 H 
ENDBRANCH  24  37
ENDBRANCH  19  22
ENDBRANCH   1  19
BRANCH   2  41
ATOM     41  C2M H52 d          10.948  10.863   0.264  0.00  0.00    -0.055 C 
ATOM     42  H2  H52 d          10.761  11.626   1.034  0.00  0.00     0.030 H 
ATOM     43  H3  H52 d           9.989  10.482  -0.116  0.00  0.00     0.030 H 
ATOM     44  H4  H52 d          11.519  11.310  -0.564  0.00  0.00     0.030 H 
ENDBRANCH   2  41
TORSDOF 4
ENDMDL
MODEL 3
REMARK VINA RESULT:      -7.8      1.223      1.591
REMARK  4 active torsions:
REMARK  status: ('A' for Active; 'I' for Inactive)
REMARK    1  A    between atoms: S5_2  and  N21_4 
REMARK    2  A    between atoms: S5_2  and  C5_12 
REMARK    3  A    between atoms: C22_5  and  C2M_6 
REMARK    4  A    between atoms: C4_14  and  CM_15 
ROOT
ATOM      1  N21 H52 d          11.270   9.189   3.940  0.00  0.00    -0.301 N 
ATOM      2  C22 H52 d          11.573   7.722   3.669  0.00  0.00     0.042 C 
ATOM      3  C23 H52 d          13.044   7.299   3.763  0.00  0.00     0.100 C 
ATOM      4  N24 H52 d          13.482   7.440   5.207  0.00  0.00    -0.073 N 
ATOM      5  C25 H52 d          14.122   8.805   5.398  0.00  0.00     0.083 C 
ATOM      6  C26 H52 d          13.108   9.962   5.448  0.00  0.00    -0.027 C 
ATOM      7  C27 H52 d          12.401  10.139   4.110  0.00  0.00     0.007 C 
ATOM      8  H1  H52 d          11.059   7.177   4.475  0.00  0.00     0.075 H 
ATOM      9  H5  H52 d          13.661   7.947   3.122  0.00  0.00     0.078 H 
ATOM     10  H6  H52 d          13.153   6.253   3.439  0.00  0.00     0.078 H 
ATOM     11  H7  H52 d          14.150   6.719   5.429  0.00  0.00     0.277 HD
ATOM     12  H8  H52 d          12.681   7.354   5.813  0.00  0.00     0.277 HD
ATOM     13  H9  H52 d          14.813   8.985   4.561  0.00  0.00     0.075 H 
ATOM     14  H10 H52 d          14.685   8.796   6.342  0.00  0.00     0.075 H 
ATOM     15  H11 H52 d          13.639  10.893   5.698  0.00  0.00     0.037 H 
ATOM     16  H12 H52 d          12.358   9.747   6.224  0.00  0.00     0.037 H 
ATOM     17  H13 H52 d          12.012  11.166   4.049  0.00  0.00     0.065 H 
ATOM     18  H14 H52 d          13.127   9.974   3.301  0.00  0.00     0.065 H 
ENDROOT
BRANCH   1  19
ATOM     19  S5  H52 d           9.673   9.557   4.439  0.00  0.00     0.262 S 
ATOM     20  O1  H52 d           9.575  10.716   5.367  0.00  0.00    -0.200 OA
ATOM     21  O2  H52 d           9.135   8.270   4.898  0.00  0.00    -0.200 OA
BRANCH  19  22
ATOM     22  C5  H52 d           8.750   9.927   2.958  0.00  0.00     0.091 A 
ATOM     23  C10 H52 d           7.287  10.039   2.841  0.00  0.00     0.006 A 
ATOM     24  C4  H52 d           6.248   9.959   3.855  0.00  0.00    -0.032 A 
ATOM     25  C9  H52 d           6.772  10.255   1.527  0.00  0.00    -0.006 A 
ATOM     26  C3  H52 d           4.911  10.056   3.536  0.00  0.00     0.008 A 
ATOM     27  N2  H52 d           4.495  10.225   2.264  0.00  0.00    -0.272 NA
ATOM     28  H22 H52 d           4.174   9.994   4.328  0.00  0.00     0.115 H 
ATOM     29  C1  H52 d           5.367  10.356   1.295  0.00  0.00     0.013 A 
ATOM     30  H21 H52 d           5.012  10.547   0.289  0.00  0.00     0.116 H 
ATOM     31  C8  H52 d           7.643  10.364   0.408  0.00  0.00    -0.071 A 
ATOM     32  C7  H52 d           8.997  10.252   0.557  0.00  0.00    -0.081 A 
ATOM     33  H18 H52 d           7.227  10.539  -0.578  0.00  0.00     0.084 H 
ATOM     34  C6  H52 d           9.550  10.005   1.837  0.00  0.00    -0.059 A 
ATOM     35  H19 H52 d           9.647  10.353  -0.304  0.00  0.00     0.083 H 
ATOM     36  H20 H52 d          10.621   9.874   1.938  0.00  0.00     0.085 H 
BRANCH  24  37
ATOM     37  CM  H52 d           6.436   9.789   5.332  0.00  0.00    -0.049 C 
ATOM     38  H15 H52 d           7.000   8.864   5.526  0.00  0.00     0.033 H 
ATOM     39  H16 H52 d           5.454   9.728   5.823  0.00  0.00     0.033 H 
ATOM     40  H17 H52 d           6.994  10.649   5.732  0.00  0.00     0.033 H 
ENDBRANCH  24  37
ENDBRANCH  19  22
ENDBRANCH   1  19
BRANCH   2  41
ATOM     41  C2M H52 d          10.980   7.207   2.369  0.00  0.00    -0.055 C 
ATOM     42  H2  H52 d          10.496   8.036   1.833  0.00  0.00     0.030 H 
ATOM     43  H3  H52 d          10.235   6.429   2.590  0.00  0.00     0.030 H 
ATOM     44  H4  H52 d          11.779   6.783   1.744  0.00  0.00     0.030 H 
ENDBRANCH   2  41
TORSDOF 4
ENDMDL
MODEL 4
REMARK VINA RESULT:      -7.7      0.967      2.161
REMARK  4 active torsions:
REMARK  status: ('A' for Active; 'I' for Inactive)
REMARK    1  A    between atoms: S5_2  and  N21_4 
REMARK    2  A    between atoms: S5_2  and  C5_12 
REMARK    3  A    between atoms: C22_5  and  C2M_6 
REMARK    4  A    between atoms: C4_14  and  CM_15 
ROOT
ATOM      1  N21 H52 d          10.370   9.480   3.814  0.00  0.00    -0.301 N 
ATOM      2  C22 H52 d          11.036  10.371   2.775  0.00  0.00     0.042 C 
ATOM      3  C23 H52 d          11.899   9.666   1.722  0.00  0.00     0.100 C 
ATOM      4  N24 H52 d          10.986   8.819   0.858  0.00  0.00    -0.073 N 
ATOM      5  C25 H52 d          10.952   7.405   1.415  0.00  0.00     0.083 C 
ATOM      6  C26 H52 d          10.105   7.263   2.692  0.00  0.00    -0.027 C 
ATOM      7  C27 H52 d          10.717   8.035   3.854  0.00  0.00     0.007 C 
ATOM      8  H1  H52 d          10.201  10.822   2.218  0.00  0.00     0.075 H 
ATOM      9  H5  H52 d          12.644   9.026   2.217  0.00  0.00     0.078 H 
ATOM     10  H6  H52 d          12.414  10.414   1.100  0.00  0.00     0.078 H 
ATOM     11  H7  H52 d          11.335   8.802  -0.087  0.00  0.00     0.277 HD
ATOM     12  H8  H52 d          10.056   9.208   0.866  0.00  0.00     0.277 HD
ATOM     13  H9  H52 d          11.983   7.099   1.646  0.00  0.00     0.075 H 
ATOM     14  H10 H52 d          10.536   6.738   0.645  0.00  0.00     0.075 H 
ATOM     15  H11 H52 d          10.042   6.198   2.963  0.00  0.00     0.037 H 
ATOM     16  H12 H52 d           9.095   7.652   2.496  0.00  0.00     0.037 H 
ATOM     17  H13 H52 d          10.346   7.608   4.797  0.00  0.00     0.065 H 
ATOM     18  H14 H52 d          11.811   7.932   3.810  0.00  0.00     0.065 H 
ENDROOT
BRANCH   1  19
ATOM     19  S5  H52 d           8.975  10.115   4.580  0.00  0.00     0.262 S 
ATOM     20  O1  H52 d           9.110  11.530   5.020  0.00  0.00    -0.200 OA
ATOM     21  O2  H52 d           8.640   9.114   5.601  0.00  0.00    -0.200 OA
BRANCH  19  22
ATOM     22  C5  H52 d           7.649  10.007   3.392  0.00  0.00     0.091 A 
ATOM     23  C10 H52 d           6.206  10.000   3.686  0.00  0.00     0.006 A 
ATOM     24  C4  H52 d           5.497  10.147   4.947  0.00  0.00    -0.032 A 
ATOM     25  C9  H52 d           5.335   9.813   2.571  0.00  0.00    -0.006 A 
ATOM     26  C3  H52 d           4.123  10.077   5.020  0.00  0.00     0.008 A 
ATOM     27  N2  H52 d           3.363   9.862   3.927  0.00  0.00    -0.272 NA
ATOM     28  H22 H52 d           3.639  10.197   5.983  0.00  0.00     0.115 H 
ATOM     29  C1  H52 d           3.919   9.767   2.743  0.00  0.00     0.013 A 
ATOM     30  H21 H52 d           3.285   9.650   1.872  0.00  0.00     0.116 H 
ATOM     31  C8  H52 d           5.852   9.655   1.255  0.00  0.00    -0.071 A 
ATOM     32  C7  H52 d           7.198   9.665   1.023  0.00  0.00    -0.081 A 
ATOM     33  H18 H52 d           5.168   9.525   0.424  0.00  0.00     0.084 H 
ATOM     34  C6  H52 d           8.102   9.814   2.104  0.00  0.00    -0.059 A 
ATOM     35  H19 H52 d           7.575   9.559   0.012  0.00  0.00     0.083 H 
ATOM     36  H20 H52 d           9.168   9.776   1.915  0.00  0.00     0.085 H 
BRANCH  24  37
ATOM     37  CM  H52 d           6.094  10.405   6.296  0.00  0.00    -0.049 C 
ATOM     38  H15 H52 d           6.030   9.492   6.906  0.00  0.00     0.033 H 
ATOM     39  H16 H52 d           5.543  11.217   6.792  0.00  0.00     0.033 H 
ATOM     40  H17 H52 d           7.149  10.695   6.181  0.00  0.00     0.033 H 
ENDBRANCH  24  37
ENDBRANCH  19  22
ENDBRANCH   1  19
BRANCH   2  41
ATOM     41  C2M H52 d          11.814  11.530   3.374  0.00  0.00    -0.055 C 
ATOM     42  H2  H52 d          11.137  12.155   3.975  0.00  0.00     0.030 H 
ATOM     43  H3  H52 d          12.250  12.135   2.566  0.00  0.00     0.030 H 
ATOM     44  H4  H52 d          12.618  11.140   4.015  0.00  0.00     0.030 H 
ENDBRANCH   2  41
TORSDOF 4
ENDMDL
MODEL 5
REMARK VINA RESULT:      -7.5      2.389      3.825
REMARK  4 active torsions:
REMARK  status: ('A' for Active; 'I' for Inactive)
REMARK    1  A    between atoms: S5_2  and  N21_4 
REMARK    2  A    between atoms: S5_2  and  C5_12 
REMARK    3  A    between atoms: C22_5  and  C2M_6 
REMARK    4  A    between atoms: C4_14  and  CM_15 
ROOT
ATOM      1  N21 H52 d          11.820   9.237   2.566  0.00  0.00    -0.301 N 
ATOM      2  C22 H52 d          12.533  10.449   1.984  0.00  0.00     0.042 C 
ATOM      3  C23 H52 d          14.056  10.344   1.843  0.00  0.00     0.100 C 
ATOM      4  N24 H52 d          14.359   9.283   0.803  0.00  0.00    -0.073 N 
ATOM      5  C25 H52 d          14.583   7.954   1.506  0.00  0.00     0.083 C 
ATOM      6  C26 H52 d          13.285   7.291   2.005  0.00  0.00    -0.027 C 
ATOM      7  C27 H52 d          12.630   8.114   3.107  0.00  0.00     0.007 C 
ATOM      8  H1  H52 d          12.148  10.533   0.956  0.00  0.00     0.075 H 
ATOM      9  H5  H52 d          14.502  10.059   2.808  0.00  0.00     0.078 H 
ATOM     10  H6  H52 d          14.469  11.311   1.521  0.00  0.00     0.078 H 
ATOM     11  H7  H52 d          15.189   9.538   0.292  0.00  0.00     0.277 HD
ATOM     12  H8  H52 d          13.582   9.202   0.167  0.00  0.00     0.277 HD
ATOM     13  H9  H52 d          15.240   8.125   2.371  0.00  0.00     0.075 H 
ATOM     14  H10 H52 d          15.075   7.267   0.802  0.00  0.00     0.075 H 
ATOM     15  H11 H52 d          13.522   6.291   2.398  0.00  0.00     0.037 H 
ATOM     16  H12 H52 d          12.584   7.199   1.162  0.00  0.00     0.037 H 
ATOM     17  H13 H52 d          11.974   7.457   3.697  0.00  0.00     0.065 H 
ATOM     18  H14 H52 d          13.417   8.526   3.756  0.00  0.00     0.065 H 
ENDROOT
BRANCH   1  19
ATOM     19  S5  H52 d          10.159   9.072   2.179  0.00  0.00     0.262 S 
ATOM     20  O1  H52 d           9.771   7.712   1.716  0.00  0.00    -0.200 OA
ATOM     21  O2  H52 d           9.886  10.201   1.280  0.00  0.00    -0.200 OA
BRANCH  19  22
ATOM     22  C5  H52 d           9.250   9.453   3.666  0.00  0.00     0.091 A 
ATOM     23  C10 H52 d           7.815   9.766   3.761  0.00  0.00     0.006 A 
ATOM     24  C4  H52 d           6.779   9.777   2.740  0.00  0.00    -0.032 A 
ATOM     25  C9  H52 d           7.331  10.129   5.054  0.00  0.00    -0.006 A 
ATOM     26  C3  H52 d           5.480  10.136   3.027  0.00  0.00     0.008 A 
ATOM     27  N2  H52 d           5.101  10.502   4.268  0.00  0.00    -0.272 NA
ATOM     28  H22 H52 d           4.742  10.125   2.232  0.00  0.00     0.115 H 
ATOM     29  C1  H52 d           5.960  10.474   5.257  0.00  0.00     0.013 A 
ATOM     30  H21 H52 d           5.621  10.718   6.257  0.00  0.00     0.116 H 
ATOM     31  C8  H52 d           8.202  10.169   6.178  0.00  0.00    -0.071 A 
ATOM     32  C7  H52 d           9.530   9.874   6.049  0.00  0.00    -0.081 A 
ATOM     33  H18 H52 d           7.807  10.437   7.152  0.00  0.00     0.084 H 
ATOM     34  C6  H52 d          10.061   9.542   4.778  0.00  0.00    -0.059 A 
ATOM     35  H19 H52 d          10.177   9.894   6.918  0.00  0.00     0.083 H 
ATOM     36  H20 H52 d          11.123   9.352   4.678  0.00  0.00     0.085 H 
BRANCH  24  37
ATOM     37  CM  H52 d           6.928   9.404   1.297  0.00  0.00    -0.049 C 
ATOM     38  H15 H52 d           6.928   8.308   1.200  0.00  0.00     0.033 H 
ATOM     39  H16 H52 d           7.875   9.807   0.909  0.00  0.00     0.033 H 
ATOM     40  H17 H52 d           6.089   9.823   0.721  0.00  0.00     0.033 H 
ENDBRANCH  24  37
ENDBRANCH  19  22
ENDBRANCH   1  19
BRANCH   2  41
ATOM     41  C2M H52 d          12.177  11.755   2.673  0.00  0.00    -0.055 C 
ATOM     42  H2  H52 d          12.286  12.587   1.962  0.00  0.00     0.030 H 
ATOM     43  H3  H52 d          12.851  11.913   3.528  0.00  0.00     0.030 H 
ATOM     44  H4  H52 d          11.137  11.711   3.028  0.00  0.00     0.030 H 
ENDBRANCH   2  41
TORSDOF 4
ENDMDL
MODEL 6
REMARK VINA RESULT:      -7.3      2.175      2.743
REMARK  4 active torsions:
REMARK  status: ('A' for Active; 'I' for Inactive)
REMARK    1  A    between atoms: S5_2  and  N21_4 
REMARK    2  A    between atoms: S5_2  and  C5_12 
REMARK    3  A    between atoms: C22_5  and  C2M_6 
REMARK    4  A    between atoms: C4_14  and  CM_15 
ROOT
ATOM      1  N21 H52 d          11.344   8.568   2.646  0.00  0.00    -0.301 N 
ATOM      2  C22 H52 d          12.300   7.793   3.543  0.00  0.00     0.042 C 
ATOM      3  C23 H52 d          13.186   8.625   4.477  0.00  0.00     0.100 C 
ATOM      4  N24 H52 d          12.290   9.301   5.496  0.00  0.00    -0.073 N 
ATOM      5  C25 H52 d          11.939  10.693   4.998  0.00  0.00     0.083 C 
ATOM      6  C26 H52 d          10.894  10.701   3.868  0.00  0.00    -0.027 C 
ATOM      7  C27 H52 d          11.438  10.051   2.603  0.00  0.00     0.007 C 
ATOM      8  H1  H52 d          11.646   7.205   4.204  0.00  0.00     0.075 H 
ATOM      9  H5  H52 d          13.731   9.385   3.897  0.00  0.00     0.078 H 
ATOM     10  H6  H52 d          13.907   7.970   4.989  0.00  0.00     0.078 H 
ATOM     11  H7  H52 d          12.773   9.369   6.378  0.00  0.00     0.277 HD
ATOM     12  H8  H52 d          11.447   8.762   5.615  0.00  0.00     0.277 HD
ATOM     13  H9  H52 d          12.858  11.170   4.625  0.00  0.00     0.075 H 
ATOM     14  H10 H52 d          11.542  11.275   5.843  0.00  0.00     0.075 H 
ATOM     15  H11 H52 d          10.616  11.742   3.645  0.00  0.00     0.037 H 
ATOM     16  H12 H52 d          10.004  10.147   4.201  0.00  0.00     0.037 H 
ATOM     17  H13 H52 d          10.862  10.417   1.740  0.00  0.00     0.065 H 
ATOM     18  H14 H52 d          12.495  10.336   2.485  0.00  0.00     0.065 H 
ENDROOT
BRANCH   1  19
ATOM     19  S5  H52 d           9.972   7.714   2.077  0.00  0.00     0.262 S 
ATOM     20  O1  H52 d           9.584   6.552   2.920  0.00  0.00    -0.200 OA
ATOM     21  O2  H52 d          10.269   7.460   0.662  0.00  0.00    -0.200 OA
BRANCH  19  22
ATOM     22  C5  H52 d           8.623   8.881   2.051  0.00  0.00     0.091 A 
ATOM     23  C10 H52 d           7.798   9.295   3.198  0.00  0.00     0.006 A 
ATOM     24  C4  H52 d           7.894   8.947   4.606  0.00  0.00    -0.032 A 
ATOM     25  C9  H52 d           6.713  10.177   2.911  0.00  0.00    -0.006 A 
ATOM     26  C3  H52 d           6.991   9.418   5.535  0.00  0.00     0.008 A 
ATOM     27  N2  H52 d           5.967  10.222   5.185  0.00  0.00    -0.272 NA
ATOM     28  H22 H52 d           7.107   9.134   6.575  0.00  0.00     0.115 H 
ATOM     29  C1  H52 d           5.835  10.624   3.944  0.00  0.00     0.013 A 
ATOM     30  H21 H52 d           5.037  11.314   3.696  0.00  0.00     0.116 H 
ATOM     31  C8  H52 d           6.466  10.628   1.585  0.00  0.00    -0.071 A 
ATOM     32  C7  H52 d           7.253  10.220   0.546  0.00  0.00    -0.081 A 
ATOM     33  H18 H52 d           5.642  11.307   1.396  0.00  0.00     0.084 H 
ATOM     34  C6  H52 d           8.321   9.318   0.778  0.00  0.00    -0.059 A 
ATOM     35  H19 H52 d           7.061  10.585  -0.457  0.00  0.00     0.083 H 
ATOM     36  H20 H52 d           8.912   8.966  -0.060  0.00  0.00     0.085 H 
BRANCH  24  37
ATOM     37  CM  H52 d           8.935   8.088   5.257  0.00  0.00    -0.049 C 
ATOM     38  H15 H52 d           8.726   8.011   6.335  0.00  0.00     0.033 H 
ATOM     39  H16 H52 d           9.928   8.539   5.109  0.00  0.00     0.033 H 
ATOM     40  H17 H52 d           8.918   7.085   4.807  0.00  0.00     0.033 H 
ENDBRANCH  24  37
ENDBRANCH  19  22
ENDBRANCH   1  19
BRANCH   2  41
ATOM     41  C2M H52 d          13.156   6.786   2.795  0.00  0.00    -0.055 C 
ATOM     42  H2  H52 d          14.035   6.528   3.405  0.00  0.00     0.030 H 
ATOM     43  H3  H52 d          13.488   7.223   1.842  0.00  0.00     0.030 H 
ATOM     44  H4  H52 d          12.567   5.878   2.598  0.00  0.00     0.030 H 
ENDBRANCH   2  41
TORSDOF 4
ENDMDL
MODEL 7
REMARK VINA RESULT:      -7.3      2.732      6.834
REMARK  4 active torsions:
REMARK  status: ('A' for Active; 'I' for Inactive)
REMARK    1  A    between atoms: S5_2  and  N21_4 
REMARK    2  A    between atoms: S5_2  and  C5_12 
REMARK    3  A    between atoms: C22_5  and  C2M_6 
REMARK    4  A    between atoms: C4_14  and  CM_15 
ROOT
ATOM      1  N21 H52 d           8.839   9.666   2.627  0.00  0.00    -0.301 N 
ATOM      2  C22 H52 d           9.097   9.890   4.110  0.00  0.00     0.042 C 
ATOM      3  C23 H52 d           8.063  10.735   4.864  0.00  0.00     0.100 C 
ATOM      4  N24 H52 d           6.758   9.963   4.894  0.00  0.00    -0.073 N 
ATOM      5  C25 H52 d           5.896  10.405   3.723  0.00  0.00     0.083 C 
ATOM      6  C26 H52 d           6.359   9.842   2.367  0.00  0.00    -0.027 C 
ATOM      7  C27 H52 d           7.721  10.396   1.971  0.00  0.00     0.007 C 
ATOM      8  H1  H52 d           9.040   8.887   4.558  0.00  0.00     0.075 H 
ATOM      9  H5  H52 d           7.916  11.695   4.348  0.00  0.00     0.078 H 
ATOM     10  H6  H52 d           8.410  10.921   5.891  0.00  0.00     0.078 H 
ATOM     11  H7  H52 d           6.276  10.149   5.759  0.00  0.00     0.277 HD
ATOM     12  H8  H52 d           6.948   8.976   4.821  0.00  0.00     0.277 HD
ATOM     13  H9  H52 d           5.921  11.503   3.670  0.00  0.00     0.075 H 
ATOM     14  H10 H52 d           4.865  10.070   3.905  0.00  0.00     0.075 H 
ATOM     15  H11 H52 d           5.623  10.116   1.596  0.00  0.00     0.037 H 
ATOM     16  H12 H52 d           6.425   8.746   2.439  0.00  0.00     0.037 H 
ATOM     17  H13 H52 d           7.835  10.310   0.880  0.00  0.00     0.065 H 
ATOM     18  H14 H52 d           7.771  11.455   2.263  0.00  0.00     0.065 H 
ENDROOT
BRANCH   1  19
ATOM     19  S5  H52 d           9.580   8.291   1.924  0.00  0.00     0.262 S 
ATOM     20  O1  H52 d           9.351   8.155   0.460  0.00  0.00    -0.200 OA
ATOM     21  O2  H52 d           9.160   7.178   2.785  0.00  0.00    -0.200 OA
BRANCH  19  22
ATOM     22  C5  H52 d          11.332   8.451   2.219  0.00  0.00     0.091 A 
ATOM     23  C10 H52 d          12.256   9.374   1.540  0.00  0.00     0.006 A 
ATOM     24  C4  H52 d          12.001  10.409   0.550  0.00  0.00    -0.032 A 
ATOM     25  C9  H52 d          13.636   9.255   1.884  0.00  0.00    -0.006 A 
ATOM     26  C3  H52 d          13.020  11.156   0.001  0.00  0.00     0.008 A 
ATOM     27  N2  H52 d          14.308  10.964   0.349  0.00  0.00    -0.272 NA
ATOM     28  H22 H52 d          12.779  11.919  -0.731  0.00  0.00     0.115 H 
ATOM     29  C1  H52 d          14.621  10.086   1.270  0.00  0.00     0.013 A 
ATOM     30  H21 H52 d          15.657   9.987   1.573  0.00  0.00     0.116 H 
ATOM     31  C8  H52 d          14.073   8.298   2.840  0.00  0.00    -0.071 A 
ATOM     32  C7  H52 d          13.185   7.455   3.448  0.00  0.00    -0.081 A 
ATOM     33  H18 H52 d          15.126   8.235   3.092  0.00  0.00     0.084 H 
ATOM     34  C6  H52 d          11.810   7.515   3.113  0.00  0.00    -0.059 A 
ATOM     35  H19 H52 d          13.532   6.742   4.186  0.00  0.00     0.083 H 
ATOM     36  H20 H52 d          11.120   6.813   3.568  0.00  0.00     0.085 H 
BRANCH  24  37
ATOM     37  CM  H52 d          10.671  10.831   0.004  0.00  0.00    -0.049 C 
ATOM     38  H15 H52 d          10.576  10.487  -1.037  0.00  0.00     0.033 H 
ATOM     39  H16 H52 d          10.592  11.927   0.036  0.00  0.00     0.033 H 
ATOM     40  H17 H52 d           9.867  10.387   0.611  0.00  0.00     0.033 H 
ENDBRANCH  24  37
ENDBRANCH  19  22
ENDBRANCH   1  19
BRANCH   2  41
ATOM     41  C2M H52 d          10.492  10.407   4.415  0.00  0.00    -0.055 C 
ATOM     42  H2  H52 d          11.189   9.560   4.489  0.00  0.00     0.030 H 
ATOM     43  H3  H52 d          10.480  10.955   5.368  0.00  0.00     0.030 H 
ATOM     44  H4  H52 d          10.818  11.080   3.609  0.00  0.00     0.030 H 
ENDBRANCH   2  41
TORSDOF 4
ENDMDL
MODEL 8
REMARK VINA RESULT:      -7.2      2.011      3.331
REMARK  4 active torsions:
REMARK  status: ('A' for Active; 'I' for Inactive)
REMARK    1  A    between atoms: S5_2  and  N21_4 
REMARK    2  A    between atoms: S5_2  and  C5_12 
REMARK    3  A    between atoms: C22_5  and  C2M_6 
REMARK    4  A    between atoms: C4_14  and  CM_15 
ROOT
ATOM      1  N21 H52 d           9.980   9.807   2.102  0.00  0.00    -0.301 N 
ATOM      2  C22 H52 d          10.902   9.876   0.893  0.00  0.00     0.042 C 
ATOM      3  C23 H52 d          12.322   9.328   1.083  0.00  0.00     0.100 C 
ATOM      4  N24 H52 d          12.222   7.832   1.306  0.00  0.00    -0.073 N 
ATOM      5  C25 H52 d          12.185   7.558   2.801  0.00  0.00     0.083 C 
ATOM      6  C26 H52 d          10.831   7.886   3.457  0.00  0.00    -0.027 C 
ATOM      7  C27 H52 d          10.540   9.381   3.412  0.00  0.00     0.007 C 
ATOM      8  H1  H52 d          10.432   9.219   0.145  0.00  0.00     0.075 H 
ATOM      9  H5  H52 d          12.792   9.805   1.956  0.00  0.00     0.078 H 
ATOM     10  H6  H52 d          12.924   9.533   0.185  0.00  0.00     0.078 H 
ATOM     11  H7  H52 d          13.023   7.376   0.898  0.00  0.00     0.277 HD
ATOM     12  H8  H52 d          11.380   7.482   0.877  0.00  0.00     0.277 HD
ATOM     13  H9  H52 d          12.962   8.168   3.285  0.00  0.00     0.075 H 
ATOM     14  H10 H52 d          12.401   6.492   2.964  0.00  0.00     0.075 H 
ATOM     15  H11 H52 d          10.853   7.557   4.507  0.00  0.00     0.037 H 
ATOM     16  H12 H52 d          10.035   7.350   2.920  0.00  0.00     0.037 H 
ATOM     17  H13 H52 d           9.814   9.623   4.203  0.00  0.00     0.065 H 
ATOM     18  H14 H52 d          11.476   9.929   3.593  0.00  0.00     0.065 H 
ENDROOT
BRANCH   1  19
ATOM     19  S5  H52 d           8.298   9.821   1.780  0.00  0.00     0.262 S 
ATOM     20  O1  H52 d           7.790   8.584   1.128  0.00  0.00    -0.200 OA
ATOM     21  O2  H52 d           8.077  11.097   1.086  0.00  0.00    -0.200 OA
BRANCH  19  22
ATOM     22  C5  H52 d           7.480  10.018   3.353  0.00  0.00     0.091 A 
ATOM     23  C10 H52 d           6.030   9.956   3.602  0.00  0.00     0.006 A 
ATOM     24  C4  H52 d           4.928   9.659   2.702  0.00  0.00    -0.032 A 
ATOM     25  C9  H52 d           5.605  10.236   4.936  0.00  0.00    -0.006 A 
ATOM     26  C3  H52 d           3.616   9.685   3.125  0.00  0.00     0.008 A 
ATOM     27  N2  H52 d           3.286   9.992   4.396  0.00  0.00    -0.272 NA
ATOM     28  H22 H52 d           2.829   9.452   2.418  0.00  0.00     0.115 H 
ATOM     29  C1  H52 d           4.221  10.226   5.284  0.00  0.00     0.013 A 
ATOM     30  H21 H52 d           3.935  10.417   6.313  0.00  0.00     0.116 H 
ATOM     31  C8  H52 d           6.548  10.545   5.956  0.00  0.00    -0.071 A 
ATOM     32  C7  H52 d           7.886  10.595   5.684  0.00  0.00    -0.081 A 
ATOM     33  H18 H52 d           6.199  10.743   6.963  0.00  0.00     0.084 H 
ATOM     34  C6  H52 d           8.350  10.357   4.368  0.00  0.00    -0.059 A 
ATOM     35  H19 H52 d           8.592  10.816   6.476  0.00  0.00     0.083 H 
ATOM     36  H20 H52 d           9.410  10.443   4.153  0.00  0.00     0.085 H 
BRANCH  24  37
ATOM     37  CM  H52 d           5.018   9.277   1.256  0.00  0.00    -0.049 C 
ATOM     38  H15 H52 d           4.116   9.621   0.729  0.00  0.00     0.033 H 
ATOM     39  H16 H52 d           5.098   8.183   1.170  0.00  0.00     0.033 H 
ATOM     40  H17 H52 d           5.906   9.746   0.807  0.00  0.00     0.033 H 
ENDBRANCH  24  37
ENDBRANCH  19  22
ENDBRANCH   1  19
BRANCH   2  41
ATOM     41  C2M H52 d          10.971  11.253   0.257  0.00  0.00    -0.055 C 
ATOM     42  H2  H52 d          11.260  11.156  -0.800  0.00  0.00     0.030 H 
ATOM     43  H3  H52 d          11.718  11.864   0.786  0.00  0.00     0.030 H 
ATOM     44  H4  H52 d           9.986  11.738   0.324  0.00  0.00     0.030 H 
ENDBRANCH   2  41
TORSDOF 4
ENDMDL
MODEL 9
REMARK VINA RESULT:      -6.9      2.082      6.378
REMARK  4 active torsions:
REMARK  status: ('A' for Active; 'I' for Inactive)
REMARK    1  A    between atoms: S5_2  and  N21_4 
REMARK    2  A    between atoms: S5_2  and  C5_12 
REMARK    3  A    between atoms: C22_5  and  C2M_6 
REMARK    4  A    between atoms: C4_14  and  CM_15 
ROOT
ATOM      1  N21 H52 d           7.012   9.830   3.796  0.00  0.00    -0.301 N 
ATOM      2  C22 H52 d           6.400  10.035   5.174  0.00  0.00     0.042 C 
ATOM      3  C23 H52 d           4.984  10.621   5.213  0.00  0.00     0.100 C 
ATOM      4  N24 H52 d           4.038   9.604   4.607  0.00  0.00    -0.073 N 
ATOM      5  C25 H52 d           3.857   9.917   3.131  0.00  0.00     0.083 C 
ATOM      6  C26 H52 d           5.064   9.518   2.262  0.00  0.00    -0.027 C 
ATOM      7  C27 H52 d           6.293  10.350   2.603  0.00  0.00     0.007 C 
ATOM      8  H1  H52 d           6.311   9.021   5.594  0.00  0.00     0.075 H 
ATOM      9  H5  H52 d           4.950  11.555   4.632  0.00  0.00     0.078 H 
ATOM     10  H6  H52 d           4.694  10.828   6.254  0.00  0.00     0.078 H 
ATOM     11  H7  H52 d           3.146   9.651   5.075  0.00  0.00     0.277 HD
ATOM     12  H8  H52 d           4.424   8.679   4.712  0.00  0.00     0.277 HD
ATOM     13  H9  H52 d           3.694  10.999   3.023  0.00  0.00     0.075 H 
ATOM     14  H10 H52 d           2.973   9.375   2.766  0.00  0.00     0.075 H 
ATOM     15  H11 H52 d           4.809   9.673   1.202  0.00  0.00     0.037 H 
ATOM     16  H12 H52 d           5.292   8.455   2.432  0.00  0.00     0.037 H 
ATOM     17  H13 H52 d           6.979  10.337   1.743  0.00  0.00     0.065 H 
ATOM     18  H14 H52 d           5.977  11.384   2.804  0.00  0.00     0.065 H 
ENDROOT
BRANCH   1  19
ATOM     19  S5  H52 d           8.261   8.663   3.683  0.00  0.00     0.262 S 
ATOM     20  O1  H52 d           8.113   7.717   2.544  0.00  0.00    -0.200 OA
ATOM     21  O2  H52 d           8.344   8.093   5.034  0.00  0.00    -0.200 OA
BRANCH  19  22
ATOM     22  C5  H52 d           9.786   9.567   3.484  0.00  0.00     0.091 A 
ATOM     23  C10 H52 d          10.389  10.001   2.212  0.00  0.00     0.006 A 
ATOM     24  C4  H52 d           9.902   9.887   0.847  0.00  0.00    -0.032 A 
ATOM     25  C9  H52 d          11.665  10.634   2.301  0.00  0.00    -0.006 A 
ATOM     26  C3  H52 d          10.641  10.331  -0.228  0.00  0.00     0.008 A 
ATOM     27  N2  H52 d          11.858  10.890  -0.071  0.00  0.00    -0.272 NA
ATOM     28  H22 H52 d          10.234  10.228  -1.227  0.00  0.00     0.115 H 
ATOM     29  C1  H52 d          12.351  11.075   1.130  0.00  0.00     0.013 A 
ATOM     30  H21 H52 d          13.307  11.576   1.235  0.00  0.00     0.116 H 
ATOM     31  C8  H52 d          12.297  10.836   3.560  0.00  0.00    -0.071 A 
ATOM     32  C7  H52 d          11.706  10.417   4.718  0.00  0.00    -0.081 A 
ATOM     33  H18 H52 d          13.262  11.330   3.601  0.00  0.00     0.084 H 
ATOM     34  C6  H52 d          10.455   9.754   4.675  0.00  0.00    -0.059 A 
ATOM     35  H19 H52 d          12.194  10.592   5.670  0.00  0.00     0.083 H 
ATOM     36  H20 H52 d          10.016   9.386   5.595  0.00  0.00     0.085 H 
BRANCH  24  37
ATOM     37  CM  H52 d           8.588   9.323   0.399  0.00  0.00    -0.049 C 
ATOM     38  H15 H52 d           7.899  10.147   0.158  0.00  0.00     0.033 H 
ATOM     39  H16 H52 d           8.158   8.710   1.204  0.00  0.00     0.033 H 
ATOM     40  H17 H52 d           8.741   8.700  -0.494  0.00  0.00     0.033 H 
ENDBRANCH  24  37
ENDBRANCH  19  22
ENDBRANCH   1  19
BRANCH   2  41
ATOM     41  C2M H52 d           7.294  10.806   6.130  0.00  0.00    -0.055 C 
ATOM     42  H2  H52 d           6.858  10.784   7.139  0.00  0.00     0.030 H 
ATOM     43  H3  H52 d           7.380  11.849   5.791  0.00  0.00     0.030 H 
ATOM     44  H4  H52 d           8.292  10.344   6.152  0.00  0.00     0.030 H 
ENDBRANCH   2  41
TORSDOF 4
ENDMDL
MODEL 10
REMARK VINA RESULT:      -6.5      2.286      3.615
REMARK  4 active torsions:
REMARK  status: ('A' for Active; 'I' for Inactive)
REMARK    1  A    between atoms: S5_2  and  N21_4 
REMARK    2  A    between atoms: S5_2  and  C5_12 
REMARK    3  A    between atoms: C22_5  and  C2M_6 
REMARK    4  A    between atoms: C4_14  and  CM_15 
ROOT
ATOM      1  N21 H52 d          12.165   8.567   2.756  0.00  0.00    -0.301 N 
ATOM      2  C22 H52 d          12.909   7.525   3.578  0.00  0.00     0.042 C 
ATOM      3  C23 H52 d          13.848   8.058   4.668  0.00  0.00     0.100 C 
ATOM      4  N24 H52 d          13.001   8.735   5.727  0.00  0.00    -0.073 N 
ATOM      5  C25 H52 d          12.922  10.221   5.419  0.00  0.00     0.083 C 
ATOM      6  C26 H52 d          11.979  10.562   4.251  0.00  0.00    -0.027 C 
ATOM      7  C27 H52 d          12.504  10.004   2.934  0.00  0.00     0.007 C 
ATOM      8  H1  H52 d          12.120   6.975   4.113  0.00  0.00     0.075 H 
ATOM      9  H5  H52 d          14.552   8.783   4.233  0.00  0.00     0.078 H 
ATOM     10  H6  H52 d          14.410   7.225   5.116  0.00  0.00     0.078 H 
ATOM     11  H7  H52 d          13.420   8.598   6.633  0.00  0.00     0.277 HD
ATOM     12  H8  H52 d          12.074   8.339   5.723  0.00  0.00     0.277 HD
ATOM     13  H9  H52 d          13.931  10.577   5.167  0.00  0.00     0.075 H 
ATOM     14  H10 H52 d          12.563  10.743   6.318  0.00  0.00     0.075 H 
ATOM     15  H11 H52 d          11.894  11.656   4.167  0.00  0.00     0.037 H 
ATOM     16  H12 H52 d          10.988  10.130   4.453  0.00  0.00     0.037 H 
ATOM     17  H13 H52 d          12.061  10.577   2.105  0.00  0.00     0.065 H 
ATOM     18  H14 H52 d          13.598  10.114   2.913  0.00  0.00     0.065 H 
ENDROOT
BRANCH   1  19
ATOM     19  S5  H52 d          10.717   8.048   2.000  0.00  0.00     0.262 S 
ATOM     20  O1  H52 d          10.651   6.583   1.748  0.00  0.00    -0.200 OA
ATOM     21  O2  H52 d          10.575   8.945   0.845  0.00  0.00    -0.200 OA
BRANCH  19  22
ATOM     22  C5  H52 d           9.382   8.505   3.091  0.00  0.00     0.091 A 
ATOM     23  C10 H52 d           8.156   9.232   2.721  0.00  0.00     0.006 A 
ATOM     24  C4  H52 d           7.682   9.688   1.424  0.00  0.00    -0.032 A 
ATOM     25  C9  H52 d           7.270   9.564   3.789  0.00  0.00    -0.006 A 
ATOM     26  C3  H52 d           6.506  10.393   1.286  0.00  0.00     0.008 A 
ATOM     27  N2  H52 d           5.735  10.702   2.348  0.00  0.00    -0.272 NA
ATOM     28  H22 H52 d           6.192  10.709   0.298  0.00  0.00     0.115 H 
ATOM     29  C1  H52 d           6.064  10.288   3.548  0.00  0.00     0.013 A 
ATOM     30  H21 H52 d           5.401  10.500   4.379  0.00  0.00     0.116 H 
ATOM     31  C8  H52 d           7.569   9.195   5.130  0.00  0.00    -0.071 A 
ATOM     32  C7  H52 d           8.719   8.522   5.434  0.00  0.00    -0.081 A 
ATOM     33  H18 H52 d           6.874   9.449   5.923  0.00  0.00     0.084 H 
ATOM     34  C6  H52 d           9.643   8.201   4.410  0.00  0.00    -0.059 A 
ATOM     35  H19 H52 d           8.924   8.234   6.459  0.00  0.00     0.083 H 
ATOM     36  H20 H52 d          10.573   7.707   4.668  0.00  0.00     0.085 H 
BRANCH  24  37
ATOM     37  CM  H52 d           8.335   9.468   0.093  0.00  0.00    -0.049 C 
ATOM     38  H15 H52 d           9.427   9.438   0.221  0.00  0.00     0.033 H 
ATOM     39  H16 H52 d           8.069  10.291  -0.587  0.00  0.00     0.033 H 
ATOM     40  H17 H52 d           7.989   8.515  -0.332  0.00  0.00     0.033 H 
ENDBRANCH  24  37
ENDBRANCH  19  22
ENDBRANCH   1  19
BRANCH   2  41
ATOM     41  C2M H52 d          13.643   6.495   2.737  0.00  0.00    -0.055 C 
ATOM     42  H2  H52 d          14.565   6.190   3.253  0.00  0.00     0.030 H 
ATOM     43  H3  H52 d          13.896   6.932   1.761  0.00  0.00     0.030 H 
ATOM     44  H4  H52 d          12.998   5.616   2.590  0.00  0.00     0.030 H 
ENDBRANCH   2  41
TORSDOF 4
ENDMDL
