MODEL 1
REMARK VINA RESULT:      -5.8      0.000      0.000
REMARK  4 active torsions:
REMARK  status: ('A' for Active; 'I' for Inactive)
REMARK    1  A    between atoms: C4_4  and  C6_6 
REMARK    2  A    between atoms: C5_5  and  O8_8 
REMARK    3  A    between atoms: O8_8  and  C9_9 
REMARK    4  A    between atoms: C9_9  and  C10_10 
ROOT
ATOM      1  C1  MOL d          46.817  13.257   3.247  0.00  0.00    -0.024 A 
ATOM      2  C2  MOL d          45.636  13.551   2.530  0.00  0.00     0.052 A 
ATOM      3  S3  MOL d          47.134  14.531   4.324  0.00  0.00    -0.091 SA
ATOM      4  C4  MOL d          45.781  15.472   3.887  0.00  0.00     0.116 A 
ATOM      5  C5  MOL d          45.040  14.795   2.879  0.00  0.00     0.111 A 
ATOM      6 BR19 MOL d          44.932  12.383   1.235  0.00  0.00    -0.048 Br
ATOM      7  H1  MOL d          47.425  12.361   3.128  0.00  0.00     0.097 H 
ENDROOT
BRANCH   5   8
ATOM      8  O8  MOL d          43.823  15.240   2.235  0.00  0.00    -0.338 OA
BRANCH   8   9
ATOM      9  C9  MOL d          44.008  15.658   0.865  0.00  0.00     0.106 C 
ATOM     10  H2  MOL d          43.085  15.456   0.302  0.00  0.00     0.091 H 
ATOM     11  H3  MOL d          44.839  15.087   0.425  0.00  0.00     0.091 H 
BRANCH   9  12
ATOM     12  C10 MOL d          44.328  17.152   0.780  0.00  0.00     0.198 C 
ATOM     13  O13 MOL d          43.813  17.890   1.775  0.00  0.00    -0.646 OA
ATOM     14  O15 MOL d          44.974  17.633  -0.098  0.00  0.00    -0.646 OA
ENDBRANCH   9  12
ENDBRANCH   8   9
ENDBRANCH   5   8
BRANCH   4  15
ATOM     15  C6  MOL d          45.519  16.710   4.484  0.00  0.00     0.219 C 
ATOM     16  O7  MOL d          46.452  17.653   4.253  0.00  0.00    -0.643 OA
ATOM     17  O14 MOL d          44.540  16.931   5.156  0.00  0.00    -0.643 OA
ENDBRANCH   4  15
TORSDOF 4
ENDMDL
MODEL 2
REMARK VINA RESULT:      -5.5      1.986      3.742
REMARK  4 active torsions:
REMARK  status: ('A' for Active; 'I' for Inactive)
REMARK    1  A    between atoms: C4_4  and  C6_6 
REMARK    2  A    between atoms: C5_5  and  O8_8 
REMARK    3  A    between atoms: O8_8  and  C9_9 
REMARK    4  A    between atoms: C9_9  and  C10_10 
ROOT
ATOM      1  C1  MOL d          45.251  12.940   0.961  0.00  0.00    -0.024 A 
ATOM      2  C2  MOL d          45.713  13.450   2.195  0.00  0.00     0.052 A 
ATOM      3  S3  MOL d          44.483  14.190   0.106  0.00  0.00    -0.091 SA
ATOM      4  C4  MOL d          44.722  15.389   1.294  0.00  0.00     0.116 A 
ATOM      5  C5  MOL d          45.423  14.829   2.398  0.00  0.00     0.111 A 
ATOM      6 BR19 MOL d          46.632  12.382   3.441  0.00  0.00    -0.048 Br
ATOM      7  H1  MOL d          45.369  11.914   0.616  0.00  0.00     0.097 H 
ENDROOT
BRANCH   5   8
ATOM      8  O8  MOL d          45.832  15.500   3.612  0.00  0.00    -0.338 OA
BRANCH   8   9
ATOM      9  C9  MOL d          47.245  15.789   3.672  0.00  0.00     0.106 C 
ATOM     10  H2  MOL d          47.629  15.915   2.649  0.00  0.00     0.091 H 
ATOM     11  H3  MOL d          47.763  14.948   4.156  0.00  0.00     0.091 H 
BRANCH   9  12
ATOM     12  C10 MOL d          47.517  17.067   4.468  0.00  0.00     0.198 C 
ATOM     13  O13 MOL d          46.556  17.999   4.372  0.00  0.00    -0.646 OA
ATOM     14  O15 MOL d          48.502  17.237   5.116  0.00  0.00    -0.646 OA
ENDBRANCH   9  12
ENDBRANCH   8   9
ENDBRANCH   5   8
BRANCH   4  15
ATOM     15  C6  MOL d          44.263  16.699   1.123  0.00  0.00     0.219 C 
ATOM     16  O7  MOL d          44.892  17.393   0.155  0.00  0.00    -0.643 OA
ATOM     17  O14 MOL d          43.373  17.184   1.781  0.00  0.00    -0.643 OA
ENDBRANCH   4  15
TORSDOF 4
ENDMDL
MODEL 3
REMARK VINA RESULT:      -4.3      2.777      4.297
REMARK  4 active torsions:
REMARK  status: ('A' for Active; 'I' for Inactive)
REMARK    1  A    between atoms: C4_4  and  C6_6 
REMARK    2  A    between atoms: C5_5  and  O8_8 
REMARK    3  A    between atoms: O8_8  and  C9_9 
REMARK    4  A    between atoms: C9_9  and  C10_10 
ROOT
ATOM      1  C1  MOL d          44.149  14.964   0.762  0.00  0.00    -0.024 A 
ATOM      2  C2  MOL d          44.412  15.880   1.805  0.00  0.00     0.052 A 
ATOM      3  S3  MOL d          45.007  13.530   1.066  0.00  0.00    -0.091 SA
ATOM      4  C4  MOL d          45.726  14.058   2.519  0.00  0.00     0.116 A 
ATOM      5  C5  MOL d          45.298  15.385   2.803  0.00  0.00     0.111 A 
ATOM      6 BR19 MOL d          43.642  17.595   1.850  0.00  0.00    -0.048 Br
ATOM      7  H1  MOL d          43.503  15.147  -0.095  0.00  0.00     0.097 H 
ENDROOT
BRANCH   5   8
ATOM      8  O8  MOL d          45.665  16.202   3.939  0.00  0.00    -0.338 OA
BRANCH   8   9
ATOM      9  C9  MOL d          46.678  17.187   3.645  0.00  0.00     0.106 C 
ATOM     10  H2  MOL d          46.310  18.180   3.942  0.00  0.00     0.091 H 
ATOM     11  H3  MOL d          46.883  17.180   2.564  0.00  0.00     0.091 H 
BRANCH   9  12
ATOM     12  C10 MOL d          47.976  16.890   4.400  0.00  0.00     0.198 C 
ATOM     13  O13 MOL d          48.390  17.879   5.208  0.00  0.00    -0.646 OA
ATOM     14  O15 MOL d          48.582  15.872   4.283  0.00  0.00    -0.646 OA
ENDBRANCH   9  12
ENDBRANCH   8   9
ENDBRANCH   5   8
BRANCH   4  15
ATOM     15  C6  MOL d          46.592  13.241   3.252  0.00  0.00     0.219 C 
ATOM     16  O7  MOL d          46.602  13.480   4.578  0.00  0.00    -0.643 OA
ATOM     17  O14 MOL d          47.283  12.385   2.752  0.00  0.00    -0.643 OA
ENDBRANCH   4  15
TORSDOF 4
ENDMDL
MODEL 4
REMARK VINA RESULT:      -3.0      2.580      3.624
REMARK  4 active torsions:
REMARK  status: ('A' for Active; 'I' for Inactive)
REMARK    1  A    between atoms: C4_4  and  C6_6 
REMARK    2  A    between atoms: C5_5  and  O8_8 
REMARK    3  A    between atoms: O8_8  and  C9_9 
REMARK    4  A    between atoms: C9_9  and  C10_10 
ROOT
ATOM      1  C1  MOL d          45.567  17.539   1.925  0.00  0.00    -0.024 A 
ATOM      2  C2  MOL d          44.967  16.307   1.581  0.00  0.00     0.052 A 
ATOM      3  S3  MOL d          46.389  17.353   3.399  0.00  0.00    -0.091 SA
ATOM      4  C4  MOL d          45.986  15.712   3.621  0.00  0.00     0.116 A 
ATOM      5  C5  MOL d          45.194  15.267   2.526  0.00  0.00     0.111 A 
ATOM      6 BR19 MOL d          43.965  16.085   0.005  0.00  0.00    -0.048 Br
ATOM      7  H1  MOL d          45.512  18.455   1.340  0.00  0.00     0.097 H 
ENDROOT
BRANCH   5   8
ATOM      8  O8  MOL d          44.646  13.945   2.318  0.00  0.00    -0.338 OA
BRANCH   8   9
ATOM      9  C9  MOL d          45.636  12.950   1.979  0.00  0.00     0.106 C 
ATOM     10  H2  MOL d          45.483  12.062   2.609  0.00  0.00     0.091 H 
ATOM     11  H3  MOL d          46.638  13.363   2.166  0.00  0.00     0.091 H 
BRANCH   9  12
ATOM     12  C10 MOL d          45.532  12.541   0.508  0.00  0.00     0.198 C 
ATOM     13  O13 MOL d          46.712  12.382  -0.111  0.00  0.00    -0.646 OA
ATOM     14  O15 MOL d          44.494  12.383  -0.054  0.00  0.00    -0.646 OA
ENDBRANCH   9  12
ENDBRANCH   8   9
ENDBRANCH   5   8
BRANCH   4  15
ATOM     15  C6  MOL d          46.414  14.992   4.742  0.00  0.00     0.219 C 
ATOM     16  O7  MOL d          47.750  14.963   4.914  0.00  0.00    -0.643 OA
ATOM     17  O14 MOL d          45.659  14.436   5.504  0.00  0.00    -0.643 OA
ENDBRANCH   4  15
TORSDOF 4
ENDMDL
