MODEL 1
REMARK VINA RESULT:      -6.3      0.000      0.000
REMARK  4 active torsions:
REMARK  status: ('A' for Active; 'I' for Inactive)
REMARK    1  A    between atoms: S1_4  and  N1_2 
REMARK    2  A    between atoms: C3_7  and  O1_3 
REMARK    3  A    between atoms: O1_3  and  C6_11 
REMARK    4  A    between atoms: C5_10  and  S1_4 
ROOT
ATOM      1  C1  M4S d           4.978  -6.435   6.792  0.00  0.00    -0.058 A 
ATOM      2  C2  M4S d           6.121  -6.855   7.454  0.00  0.00    -0.049 A 
ATOM      3  C3  M4S d           6.133  -7.030   8.833  0.00  0.00     0.068 A 
ATOM      4  C4  M4S d           4.967  -6.813   9.573  0.00  0.00    -0.049 A 
ATOM      5  C5  M4S d           3.811  -6.189   7.514  0.00  0.00     0.079 A 
ATOM      6  C7  M4S d           3.811  -6.379   8.906  0.00  0.00    -0.058 A 
ATOM      7  H1  M4S d           4.992  -6.298   5.717  0.00  0.00     0.086 H 
ATOM      8  H4  M4S d           7.023  -7.051   6.886  0.00  0.00     0.087 H 
ATOM      9  H5  M4S d           4.956  -6.978  10.645  0.00  0.00     0.087 H 
ATOM     10  H9  M4S d           2.907  -6.189   9.472  0.00  0.00     0.086 H 
ENDROOT
BRANCH   5  11
ATOM     11  S1  M4S d           2.482  -5.690   6.745  0.00  0.00     0.256 S 
ATOM     12  O2  M4S d           2.957  -4.607   5.834  0.00  0.00    -0.201 OA
ATOM     13  O3  M4S d           1.760  -6.691   5.907  0.00  0.00    -0.201 OA
BRANCH  11  14
ATOM     14  N1  M4S d           1.596  -5.104   7.783  0.00  0.00    -0.324 N 
ATOM     15  H2  M4S d           1.883  -5.100   8.741  0.00  0.00     0.169 HD
ATOM     16  H3  M4S d           0.712  -4.713   7.524  0.00  0.00     0.169 HD
ENDBRANCH  11  14
ENDBRANCH   5  11
BRANCH   3  17
ATOM     17  O1  M4S d           7.307  -7.428   9.423  0.00  0.00    -0.356 OA
BRANCH  17  18
ATOM     18  C6  M4S d           7.306  -8.049  10.705  0.00  0.00     0.010 C 
ATOM     19  H6  M4S d           7.931  -8.954  10.674  0.00  0.00     0.066 H 
ATOM     20  H7  M4S d           6.277  -8.324  10.978  0.00  0.00     0.066 H 
ATOM     21  H8  M4S d           7.709  -7.350  11.451  0.00  0.00     0.066 H 
ENDBRANCH  17  18
ENDBRANCH   3  17
TORSDOF 4
ENDMDL
MODEL 2
REMARK VINA RESULT:      -6.2      0.837      1.619
REMARK  4 active torsions:
REMARK  status: ('A' for Active; 'I' for Inactive)
REMARK    1  A    between atoms: S1_4  and  N1_2 
REMARK    2  A    between atoms: C3_7  and  O1_3 
REMARK    3  A    between atoms: O1_3  and  C6_11 
REMARK    4  A    between atoms: C5_10  and  S1_4 
ROOT
ATOM      1  C1  M4S d           3.026  -6.452   8.526  0.00  0.00    -0.058 A 
ATOM      2  C2  M4S d           4.087  -6.967   9.253  0.00  0.00    -0.049 A 
ATOM      3  C3  M4S d           5.345  -7.121   8.684  0.00  0.00     0.068 A 
ATOM      4  C4  M4S d           5.566  -6.721   7.363  0.00  0.00    -0.049 A 
ATOM      5  C5  M4S d           3.217  -6.070   7.198  0.00  0.00     0.079 A 
ATOM      6  C7  M4S d           4.491  -6.208   6.621  0.00  0.00    -0.058 A 
ATOM      7  H1  M4S d           2.050  -6.347   8.987  0.00  0.00     0.086 H 
ATOM      8  H4  M4S d           3.932  -7.256  10.287  0.00  0.00     0.087 H 
ATOM      9  H5  M4S d           6.551  -6.806   6.919  0.00  0.00     0.087 H 
ATOM     10  H9  M4S d           4.645  -5.913   5.590  0.00  0.00     0.086 H 
ENDROOT
BRANCH   5  11
ATOM     11  S1  M4S d           1.979  -5.479   6.346  0.00  0.00     0.256 S 
ATOM     12  O2  M4S d           2.609  -4.559   5.356  0.00  0.00    -0.201 OA
ATOM     13  O3  M4S d           1.148  -6.454   5.583  0.00  0.00    -0.201 OA
BRANCH  11  14
ATOM     14  N1  M4S d           1.159  -4.688   7.299  0.00  0.00    -0.324 N 
ATOM     15  H2  M4S d           0.472  -5.144   7.865  0.00  0.00     0.169 HD
ATOM     16  H3  M4S d           1.293  -3.699   7.374  0.00  0.00     0.169 HD
ENDBRANCH  11  14
ENDBRANCH   5  11
BRANCH   3  17
ATOM     17  O1  M4S d           6.343  -7.657   9.459  0.00  0.00    -0.356 OA
BRANCH  17  18
ATOM     18  C6  M4S d           7.527  -6.917   9.741  0.00  0.00     0.010 C 
ATOM     19  H6  M4S d           8.174  -7.501  10.413  0.00  0.00     0.066 H 
ATOM     20  H7  M4S d           7.258  -5.966  10.225  0.00  0.00     0.066 H 
ATOM     21  H8  M4S d           8.063  -6.711   8.803  0.00  0.00     0.066 H 
ENDBRANCH  17  18
ENDBRANCH   3  17
TORSDOF 4
ENDMDL
MODEL 3
REMARK VINA RESULT:      -5.5      2.765      5.112
REMARK  4 active torsions:
REMARK  status: ('A' for Active; 'I' for Inactive)
REMARK    1  A    between atoms: S1_4  and  N1_2 
REMARK    2  A    between atoms: C3_7  and  O1_3 
REMARK    3  A    between atoms: O1_3  and  C6_11 
REMARK    4  A    between atoms: C5_10  and  S1_4 
ROOT
ATOM      1  C1  M4S d           4.198  -6.636   9.278  0.00  0.00    -0.058 A 
ATOM      2  C2  M4S d           3.078  -6.199   8.589  0.00  0.00    -0.049 A 
ATOM      3  C3  M4S d           3.129  -5.928   7.227  0.00  0.00     0.068 A 
ATOM      4  C4  M4S d           4.319  -6.128   6.521  0.00  0.00    -0.049 A 
ATOM      5  C5  M4S d           5.402  -6.818   8.599  0.00  0.00     0.079 A 
ATOM      6  C7  M4S d           5.457  -6.562   7.219  0.00  0.00    -0.058 A 
ATOM      7  H1  M4S d           4.138  -6.836  10.342  0.00  0.00     0.086 H 
ATOM      8  H4  M4S d           2.143  -6.066   9.123  0.00  0.00     0.087 H 
ATOM      9  H5  M4S d           4.362  -5.951   5.452  0.00  0.00     0.087 H 
ATOM     10  H9  M4S d           6.390  -6.701   6.685  0.00  0.00     0.086 H 
ENDROOT
BRANCH   5  11
ATOM     11  S1  M4S d           6.710  -7.318   9.403  0.00  0.00     0.256 S 
ATOM     12  O2  M4S d           7.429  -6.064   9.769  0.00  0.00    -0.201 OA
ATOM     13  O3  M4S d           6.486  -8.087  10.662  0.00  0.00    -0.201 OA
BRANCH  11  14
ATOM     14  N1  M4S d           7.527  -8.087   8.430  0.00  0.00    -0.324 N 
ATOM     15  H2  M4S d           7.157  -8.916   8.010  0.00  0.00     0.169 HD
ATOM     16  H3  M4S d           8.449  -7.776   8.195  0.00  0.00     0.169 HD
ENDBRANCH  11  14
ENDBRANCH   5  11
BRANCH   3  17
ATOM     17  O1  M4S d           1.985  -5.479   6.615  0.00  0.00    -0.356 OA
BRANCH  17  18
ATOM     18  C6  M4S d           2.044  -4.480   5.601  0.00  0.00     0.010 C 
ATOM     19  H6  M4S d           1.064  -3.988   5.513  0.00  0.00     0.066 H 
ATOM     20  H7  M4S d           2.308  -4.947   4.641  0.00  0.00     0.066 H 
ATOM     21  H8  M4S d           2.807  -3.733   5.866  0.00  0.00     0.066 H 
ENDBRANCH  17  18
ENDBRANCH   3  17
TORSDOF 4
ENDMDL
MODEL 4
REMARK VINA RESULT:      -4.6      2.607      4.879
REMARK  4 active torsions:
REMARK  status: ('A' for Active; 'I' for Inactive)
REMARK    1  A    between atoms: S1_4  and  N1_2 
REMARK    2  A    between atoms: C3_7  and  O1_3 
REMARK    3  A    between atoms: O1_3  and  C6_11 
REMARK    4  A    between atoms: C5_10  and  S1_4 
ROOT
ATOM      1  C1  M4S d           5.123  -6.467   7.158  0.00  0.00    -0.058 A 
ATOM      2  C2  M4S d           4.074  -6.079   6.339  0.00  0.00    -0.049 A 
ATOM      3  C3  M4S d           2.826  -5.765   6.864  0.00  0.00     0.068 A 
ATOM      4  C4  M4S d           2.621  -5.806   8.247  0.00  0.00    -0.049 A 
ATOM      5  C5  M4S d           4.934  -6.540   8.538  0.00  0.00     0.079 A 
ATOM      6  C7  M4S d           3.679  -6.208   9.077  0.00  0.00    -0.058 A 
ATOM      7  H1  M4S d           6.086  -6.714   6.728  0.00  0.00     0.086 H 
ATOM      8  H4  M4S d           4.230  -6.018   5.268  0.00  0.00     0.087 H 
ATOM      9  H5  M4S d           1.661  -5.533   8.670  0.00  0.00     0.087 H 
ATOM     10  H9  M4S d           3.526  -6.263  10.149  0.00  0.00     0.086 H 
ENDROOT
BRANCH   5  11
ATOM     11  S1  M4S d           6.151  -7.002   9.492  0.00  0.00     0.256 S 
ATOM     12  O2  M4S d           5.489  -7.508  10.729  0.00  0.00    -0.201 OA
ATOM     13  O3  M4S d           7.041  -8.087   8.987  0.00  0.00    -0.201 OA
BRANCH  11  14
ATOM     14  N1  M4S d           6.917  -5.770   9.814  0.00  0.00    -0.324 N 
ATOM     15  H2  M4S d           7.198  -5.150   9.081  0.00  0.00     0.169 HD
ATOM     16  H3  M4S d           7.153  -5.561  10.764  0.00  0.00     0.169 HD
ENDBRANCH  11  14
ENDBRANCH   5  11
BRANCH   3  17
ATOM     17  O1  M4S d           1.829  -5.409   5.991  0.00  0.00    -0.356 OA
BRANCH  17  18
ATOM     18  C6  M4S d           2.138  -4.934   4.684  0.00  0.00     0.010 C 
ATOM     19  H6  M4S d           1.957  -5.735   3.951  0.00  0.00     0.066 H 
ATOM     20  H7  M4S d           3.195  -4.633   4.644  0.00  0.00     0.066 H 
ATOM     21  H8  M4S d           1.502  -4.070   4.447  0.00  0.00     0.066 H 
ENDBRANCH  17  18
ENDBRANCH   3  17
TORSDOF 4
ENDMDL
MODEL 5
REMARK VINA RESULT:      -4.5      3.151      5.286
REMARK  4 active torsions:
REMARK  status: ('A' for Active; 'I' for Inactive)
REMARK    1  A    between atoms: S1_4  and  N1_2 
REMARK    2  A    between atoms: C3_7  and  O1_3 
REMARK    3  A    between atoms: O1_3  and  C6_11 
REMARK    4  A    between atoms: C5_10  and  S1_4 
ROOT
ATOM      1  C1  M4S d           3.214  -7.033   6.419  0.00  0.00    -0.058 A 
ATOM      2  C2  M4S d           2.310  -6.798   5.396  0.00  0.00    -0.049 A 
ATOM      3  C3  M4S d           1.273  -5.884   5.545  0.00  0.00     0.068 A 
ATOM      4  C4  M4S d           1.150  -5.158   6.733  0.00  0.00    -0.049 A 
ATOM      5  C5  M4S d           3.095  -6.339   7.622  0.00  0.00     0.079 A 
ATOM      6  C7  M4S d           2.059  -5.401   7.774  0.00  0.00    -0.058 A 
ATOM      7  H1  M4S d           4.012  -7.755   6.285  0.00  0.00     0.086 H 
ATOM      8  H4  M4S d           2.412  -7.337   4.461  0.00  0.00     0.087 H 
ATOM      9  H5  M4S d           0.365  -4.420   6.849  0.00  0.00     0.087 H 
ATOM     10  H9  M4S d           1.962  -4.859   8.708  0.00  0.00     0.086 H 
ENDROOT
BRANCH   5  11
ATOM     11  S1  M4S d           4.143  -6.619   8.819  0.00  0.00     0.256 S 
ATOM     12  O2  M4S d           4.291  -5.303   9.506  0.00  0.00    -0.201 OA
ATOM     13  O3  M4S d           3.748  -7.620   9.852  0.00  0.00    -0.201 OA
BRANCH  11  14
ATOM     14  N1  M4S d           5.429  -6.981   8.169  0.00  0.00    -0.324 N 
ATOM     15  H2  M4S d           6.118  -7.497   8.678  0.00  0.00     0.169 HD
ATOM     16  H3  M4S d           5.606  -6.707   7.223  0.00  0.00     0.169 HD
ENDBRANCH  11  14
ENDBRANCH   5  11
BRANCH   3  17
ATOM     17  O1  M4S d           0.403  -5.719   4.497  0.00  0.00    -0.356 OA
BRANCH  17  18
ATOM     18  C6  M4S d           0.407  -4.521   3.726  0.00  0.00     0.010 C 
ATOM     19  H6  M4S d           1.210  -4.570   2.976  0.00  0.00     0.066 H 
ATOM     20  H7  M4S d           0.577  -3.659   4.389  0.00  0.00     0.066 H 
ATOM     21  H8  M4S d          -0.562  -4.407   3.219  0.00  0.00     0.066 H 
ENDBRANCH  17  18
ENDBRANCH   3  17
TORSDOF 4
ENDMDL
MODEL 6
REMARK VINA RESULT:      -4.3      1.601      1.873
REMARK  4 active torsions:
REMARK  status: ('A' for Active; 'I' for Inactive)
REMARK    1  A    between atoms: S1_4  and  N1_2 
REMARK    2  A    between atoms: C3_7  and  O1_3 
REMARK    3  A    between atoms: O1_3  and  C6_11 
REMARK    4  A    between atoms: C5_10  and  S1_4 
ROOT
ATOM      1  C1  M4S d           3.728  -7.009   7.027  0.00  0.00    -0.058 A 
ATOM      2  C2  M4S d           4.631  -7.350   8.022  0.00  0.00    -0.049 A 
ATOM      3  C3  M4S d           4.811  -6.546   9.140  0.00  0.00     0.068 A 
ATOM      4  C4  M4S d           4.049  -5.384   9.293  0.00  0.00    -0.049 A 
ATOM      5  C5  M4S d           2.976  -5.841   7.146  0.00  0.00     0.079 A 
ATOM      6  C7  M4S d           3.141  -5.031   8.282  0.00  0.00    -0.058 A 
ATOM      7  H1  M4S d           3.608  -7.647   6.160  0.00  0.00     0.086 H 
ATOM      8  H4  M4S d           5.208  -8.263   7.926  0.00  0.00     0.087 H 
ATOM      9  H5  M4S d           4.158  -4.765  10.177  0.00  0.00     0.087 H 
ATOM     10  H9  M4S d           2.559  -4.121   8.380  0.00  0.00     0.086 H 
ENDROOT
BRANCH   5  11
ATOM     11  S1  M4S d           1.931  -5.437   5.983  0.00  0.00     0.256 S 
ATOM     12  O2  M4S d           1.427  -6.740   5.461  0.00  0.00    -0.201 OA
ATOM     13  O3  M4S d           0.744  -4.627   6.383  0.00  0.00    -0.201 OA
BRANCH  11  14
ATOM     14  N1  M4S d           2.726  -4.759   4.927  0.00  0.00    -0.324 N 
ATOM     15  H2  M4S d           3.541  -5.203   4.553  0.00  0.00     0.169 HD
ATOM     16  H3  M4S d           2.447  -3.859   4.591  0.00  0.00     0.169 HD
ENDBRANCH  11  14
ENDBRANCH   5  11
BRANCH   3  17
ATOM     17  O1  M4S d           5.738  -6.937  10.075  0.00  0.00    -0.356 OA
BRANCH  17  18
ATOM     18  C6  M4S d           7.129  -6.720   9.859  0.00  0.00     0.010 C 
ATOM     19  H6  M4S d           7.286  -5.699   9.480  0.00  0.00     0.066 H 
ATOM     20  H7  M4S d           7.503  -7.446   9.123  0.00  0.00     0.066 H 
ATOM     21  H8  M4S d           7.671  -6.847  10.807  0.00  0.00     0.066 H 
ENDBRANCH  17  18
ENDBRANCH   3  17
TORSDOF 4
ENDMDL
MODEL 7
REMARK VINA RESULT:      -3.6      2.746      5.278
REMARK  4 active torsions:
REMARK  status: ('A' for Active; 'I' for Inactive)
REMARK    1  A    between atoms: S1_4  and  N1_2 
REMARK    2  A    between atoms: C3_7  and  O1_3 
REMARK    3  A    between atoms: O1_3  and  C6_11 
REMARK    4  A    between atoms: C5_10  and  S1_4 
ROOT
ATOM      1  C1  M4S d           2.617  -5.274   7.918  0.00  0.00    -0.058 A 
ATOM      2  C2  M4S d           1.582  -5.105   7.012  0.00  0.00    -0.049 A 
ATOM      3  C3  M4S d           1.442  -5.942   5.912  0.00  0.00     0.068 A 
ATOM      4  C4  M4S d           2.336  -6.999   5.722  0.00  0.00    -0.049 A 
ATOM      5  C5  M4S d           3.537  -6.306   7.734  0.00  0.00     0.079 A 
ATOM      6  C7  M4S d           3.391  -7.167   6.632  0.00  0.00    -0.058 A 
ATOM      7  H1  M4S d           2.713  -4.606   8.766  0.00  0.00     0.086 H 
ATOM      8  H4  M4S d           0.867  -4.304   7.165  0.00  0.00     0.087 H 
ATOM      9  H5  M4S d           2.218  -7.678   4.885  0.00  0.00     0.087 H 
ATOM     10  H9  M4S d           4.103  -7.971   6.484  0.00  0.00     0.086 H 
ENDROOT
BRANCH   5  11
ATOM     11  S1  M4S d           4.749  -6.499   8.783  0.00  0.00     0.256 S 
ATOM     12  O2  M4S d           4.519  -7.846   9.381  0.00  0.00    -0.201 OA
ATOM     13  O3  M4S d           6.136  -6.486   8.233  0.00  0.00    -0.201 OA
BRANCH  11  14
ATOM     14  N1  M4S d           4.564  -5.459   9.828  0.00  0.00    -0.324 N 
ATOM     15  H2  M4S d           4.882  -4.525   9.665  0.00  0.00     0.169 HD
ATOM     16  H3  M4S d           4.121  -5.693  10.693  0.00  0.00     0.169 HD
ENDBRANCH  11  14
ENDBRANCH   5  11
BRANCH   3  17
ATOM     17  O1  M4S d           0.404  -5.701   5.046  0.00  0.00    -0.356 OA
BRANCH  17  18
ATOM     18  C6  M4S d           0.467  -6.138   3.692  0.00  0.00     0.010 C 
ATOM     19  H6  M4S d          -0.530  -6.059   3.234  0.00  0.00     0.066 H 
ATOM     20  H7  M4S d           0.804  -7.185   3.659  0.00  0.00     0.066 H 
ATOM     21  H8  M4S d           1.176  -5.508   3.136  0.00  0.00     0.066 H 
ENDBRANCH  17  18
ENDBRANCH   3  17
TORSDOF 4
ENDMDL
MODEL 8
REMARK VINA RESULT:      -3.6      2.659      5.188
REMARK  4 active torsions:
REMARK  status: ('A' for Active; 'I' for Inactive)
REMARK    1  A    between atoms: S1_4  and  N1_2 
REMARK    2  A    between atoms: C3_7  and  O1_3 
REMARK    3  A    between atoms: O1_3  and  C6_11 
REMARK    4  A    between atoms: C5_10  and  S1_4 
ROOT
ATOM      1  C1  M4S d           3.103  -5.764   8.689  0.00  0.00    -0.058 A 
ATOM      2  C2  M4S d           1.939  -5.421   8.019  0.00  0.00    -0.049 A 
ATOM      3  C3  M4S d           1.766  -5.722   6.674  0.00  0.00     0.068 A 
ATOM      4  C4  M4S d           2.763  -6.414   5.980  0.00  0.00    -0.049 A 
ATOM      5  C5  M4S d           4.122  -6.432   8.010  0.00  0.00     0.079 A 
ATOM      6  C7  M4S d           3.946  -6.754   6.654  0.00  0.00    -0.058 A 
ATOM      7  H1  M4S d           3.221  -5.514   9.737  0.00  0.00     0.086 H 
ATOM      8  H4  M4S d           1.149  -4.907   8.555  0.00  0.00     0.087 H 
ATOM      9  H5  M4S d           2.625  -6.683   4.939  0.00  0.00     0.087 H 
ATOM     10  H9  M4S d           4.735  -7.273   6.121  0.00  0.00     0.086 H 
ENDROOT
BRANCH   5  11
ATOM     11  S1  M4S d           5.482  -6.823   8.787  0.00  0.00     0.256 S 
ATOM     12  O2  M4S d           5.959  -8.064   8.109  0.00  0.00    -0.201 OA
ATOM     13  O3  M4S d           6.600  -5.836   8.747  0.00  0.00    -0.201 OA
BRANCH  11  14
ATOM     14  N1  M4S d           5.086  -7.147  10.181  0.00  0.00    -0.324 N 
ATOM     15  H2  M4S d           5.101  -6.435  10.884  0.00  0.00     0.169 HD
ATOM     16  H3  M4S d           4.805  -8.078  10.418  0.00  0.00     0.169 HD
ENDBRANCH  11  14
ENDBRANCH   5  11
BRANCH   3  17
ATOM     17  O1  M4S d           0.595  -5.333   6.071  0.00  0.00    -0.356 OA
BRANCH  17  18
ATOM     18  C6  M4S d           0.523  -5.164   4.658  0.00  0.00     0.010 C 
ATOM     19  H6  M4S d          -0.510  -5.339   4.321  0.00  0.00     0.066 H 
ATOM     20  H7  M4S d           1.196  -5.882   4.168  0.00  0.00     0.066 H 
ATOM     21  H8  M4S d           0.826  -4.140   4.396  0.00  0.00     0.066 H 
ENDBRANCH  17  18
ENDBRANCH   3  17
TORSDOF 4
ENDMDL
