MODEL 1
REMARK VINA RESULT:     -10.5      0.000      0.000
REMARK  3 active torsions:
REMARK  status: ('A' for Active; 'I' for Inactive)
REMARK    1  A    between atoms: CAU_21  and  OAA_1 
REMARK    2  A    between atoms: CAQ_17  and  CAP_16 
REMARK    3  A    between atoms: CAR_18  and  CAU_21 
ROOT
ATOM      1  CAK MOL d          58.202  11.844  51.816  0.00  0.00    -0.036 C 
ATOM      2  CAL MOL d          56.806  10.387  53.129  0.00  0.00    -0.036 C 
ATOM      3  CAM MOL d          57.478  11.238  50.617  0.00  0.00     0.084 C 
ATOM      4  CAN MOL d          55.894  10.018  51.961  0.00  0.00     0.084 C 
ATOM      5  CAO MOL d          55.426  12.325  51.363  0.00  0.00     0.116 C 
ATOM      6  CAS MOL d          57.216  11.848  52.979  0.00  0.00    -0.015 C 
ATOM      7  NAT MOL d          56.048  11.055  50.926  0.00  0.00    -0.068 N 
ATOM      8  CAU MOL d          56.016  12.752  52.707  0.00  0.00     0.113 C 
ATOM      9  H11 MOL d          58.518  12.872  51.585  0.00  0.00     0.036 H 
ATOM     10  H12 MOL d          59.083  11.237  52.071  0.00  0.00     0.036 H 
ATOM     11  H13 MOL d          57.701   9.747  53.118  0.00  0.00     0.036 H 
ATOM     12  H14 MOL d          56.268  10.249  54.079  0.00  0.00     0.036 H 
ATOM     13  H15 MOL d          57.926  10.262  50.378  0.00  0.00     0.076 H 
ATOM     14  H16 MOL d          57.581  11.910  49.753  0.00  0.00     0.076 H 
ATOM     15  H17 MOL d          54.848   9.980  52.300  0.00  0.00     0.076 H 
ATOM     16  H18 MOL d          56.183   9.037  51.555  0.00  0.00     0.076 H 
ATOM     17  H19 MOL d          54.341  12.184  51.469  0.00  0.00     0.081 H 
ATOM     18  H20 MOL d          55.623  13.106  50.613  0.00  0.00     0.081 H 
ATOM     19  H21 MOL d          57.716  12.196  53.894  0.00  0.00     0.045 H 
ATOM     20  H22 MOL d          55.577  10.746  50.090  0.00  0.00     0.280 HD
ENDROOT
BRANCH   8  21
ATOM     21  OAA MOL d          55.042  12.501  53.725  0.00  0.00    -0.383 OA
ATOM     22  H1  MOL d          55.393  12.761  54.569  0.00  0.00     0.211 HD
ENDBRANCH   8  21
BRANCH   8  23
ATOM     23  CAR MOL d          56.343  14.221  52.786  0.00  0.00    -0.022 A 
ATOM     24  CAI MOL d          56.002  15.116  51.775  0.00  0.00    -0.073 A 
ATOM     25  CAG MOL d          56.295  16.472  51.882  0.00  0.00    -0.072 A 
ATOM     26  H9  MOL d          55.500  14.749  50.887  0.00  0.00     0.084 H 
ATOM     27  CAQ MOL d          56.940  17.025  52.985  0.00  0.00    -0.026 A 
ATOM     28  H7  MOL d          56.007  17.129  51.069  0.00  0.00     0.084 H 
ATOM     29  CAH MOL d          57.264  16.127  54.001  0.00  0.00    -0.072 A 
ATOM     30  CAJ MOL d          56.960  14.766  53.914  0.00  0.00    -0.073 A 
ATOM     31  H8  MOL d          57.767  16.496  54.887  0.00  0.00     0.084 H 
ATOM     32  H10 MOL d          57.210  14.116  54.744  0.00  0.00     0.084 H 
BRANCH  27  33
ATOM     33  CAP MOL d          57.230  18.382  53.057  0.00  0.00    -0.026 A 
ATOM     34  CAE MOL d          57.685  18.982  54.230  0.00  0.00    -0.072 A 
ATOM     35  CAC MOL d          57.964  20.345  54.335  0.00  0.00    -0.082 A 
ATOM     36  H5  MOL d          57.830  18.359  55.105  0.00  0.00     0.084 H 
ATOM     37  CAB MOL d          57.813  21.180  53.227  0.00  0.00    -0.083 A 
ATOM     38  H3  MOL d          58.299  20.756  55.280  0.00  0.00     0.083 H 
ATOM     39  CAD MOL d          57.389  20.589  52.039  0.00  0.00    -0.082 A 
ATOM     40  H2  MOL d          58.016  22.244  53.289  0.00  0.00     0.083 H 
ATOM     41  CAF MOL d          57.092  19.227  51.960  0.00  0.00    -0.072 A 
ATOM     42  H4  MOL d          57.289  21.203  51.151  0.00  0.00     0.083 H 
ATOM     43  H6  MOL d          56.744  18.817  51.019  0.00  0.00     0.084 H 
ENDBRANCH  27  33
ENDBRANCH   8  23
TORSDOF 3
ENDMDL
