MODEL 1
REMARK VINA RESULT:     -10.5      0.000      0.000
REMARK  3 active torsions:
REMARK  status: ('A' for Active; 'I' for Inactive)
REMARK    1  A    between atoms: CAU_21  and  OAA_1 
REMARK    2  A    between atoms: CAQ_17  and  CAP_16 
REMARK    3  A    between atoms: CAR_18  and  CAU_21 
ROOT
ATOM      1  CAK MOL d          58.068  11.860  51.827  0.00  0.00    -0.036 C 
ATOM      2  CAL MOL d          56.635  10.392  53.087  0.00  0.00    -0.036 C 
ATOM      3  CAM MOL d          57.364  11.281  50.604  0.00  0.00     0.084 C 
ATOM      4  CAN MOL d          55.744  10.050  51.895  0.00  0.00     0.084 C 
ATOM      5  CAO MOL d          55.306  12.371  51.329  0.00  0.00     0.116 C 
ATOM      6  CAS MOL d          57.060  11.852  52.970  0.00  0.00    -0.015 C 
ATOM      7  NAT MOL d          55.926  11.104  50.882  0.00  0.00    -0.068 N 
ATOM      8  CAU MOL d          55.872  12.770  52.691  0.00  0.00     0.113 C 
ATOM      9  H11 MOL d          58.396  12.890  51.621  0.00  0.00     0.036 H 
ATOM     10  H12 MOL d          58.940  11.243  52.089  0.00  0.00     0.036 H 
ATOM     11  H13 MOL d          57.526   9.746  53.083  0.00  0.00     0.036 H 
ATOM     12  H14 MOL d          56.078  10.242  54.023  0.00  0.00     0.036 H 
ATOM     13  H15 MOL d          57.808  10.306  50.356  0.00  0.00     0.076 H 
ATOM     14  H16 MOL d          57.488  11.968  49.754  0.00  0.00     0.076 H 
ATOM     15  H17 MOL d          54.691  10.015  52.213  0.00  0.00     0.076 H 
ATOM     16  H18 MOL d          56.033   9.075  51.478  0.00  0.00     0.076 H 
ATOM     17  H19 MOL d          54.217  12.237  51.411  0.00  0.00     0.081 H 
ATOM     18  H20 MOL d          55.523  13.163  50.597  0.00  0.00     0.081 H 
ATOM     19  H21 MOL d          57.544  12.181  53.902  0.00  0.00     0.045 H 
ATOM     20  H22 MOL d          55.470  10.813  50.031  0.00  0.00     0.280 HD
ENDROOT
BRANCH   8  21
ATOM     21  OAA MOL d          54.876  12.508  53.686  0.00  0.00    -0.383 OA
ATOM     22  H1  MOL d          54.979  11.621  54.009  0.00  0.00     0.211 HD
ENDBRANCH   8  21
BRANCH   8  23
ATOM     23  CAR MOL d          56.208  14.235  52.802  0.00  0.00    -0.022 A 
ATOM     24  CAI MOL d          56.904  14.759  53.888  0.00  0.00    -0.073 A 
ATOM     25  CAG MOL d          57.223  16.112  53.957  0.00  0.00    -0.072 A 
ATOM     26  H9  MOL d          57.203  14.101  54.696  0.00  0.00     0.084 H 
ATOM     27  CAQ MOL d          56.874  17.025  52.966  0.00  0.00    -0.026 A 
ATOM     28  H7  MOL d          57.768  16.471  54.822  0.00  0.00     0.084 H 
ATOM     29  CAH MOL d          56.192  16.492  51.874  0.00  0.00    -0.072 A 
ATOM     30  CAJ MOL d          55.881  15.132  51.784  0.00  0.00    -0.073 A 
ATOM     31  H8  MOL d          55.893  17.153  51.068  0.00  0.00     0.084 H 
ATOM     32  H10 MOL d          55.373  14.765  50.900  0.00  0.00     0.084 H 
BRANCH  27  33
ATOM     33  CAP MOL d          57.196  18.374  53.070  0.00  0.00    -0.026 A 
ATOM     34  CAE MOL d          57.731  18.921  54.236  0.00  0.00    -0.072 A 
ATOM     35  CAC MOL d          58.043  20.273  54.373  0.00  0.00    -0.082 A 
ATOM     36  H5  MOL d          57.913  18.263  55.077  0.00  0.00     0.084 H 
ATOM     37  CAB MOL d          57.846  21.152  53.306  0.00  0.00    -0.083 A 
ATOM     38  H3  MOL d          58.440  20.643  55.311  0.00  0.00     0.083 H 
ATOM     39  CAD MOL d          57.343  20.613  52.124  0.00  0.00    -0.082 A 
ATOM     40  H2  MOL d          58.074  22.208  53.394  0.00  0.00     0.083 H 
ATOM     41  CAF MOL d          57.013  19.261  52.015  0.00  0.00    -0.072 A 
ATOM     42  H4  MOL d          57.204  21.262  51.267  0.00  0.00     0.083 H 
ATOM     43  H6  MOL d          56.603  18.893  51.081  0.00  0.00     0.084 H 
ENDBRANCH  27  33
ENDBRANCH   8  23
TORSDOF 3
ENDMDL
MODEL 2
REMARK VINA RESULT:      -9.7      1.243      2.144
REMARK  3 active torsions:
REMARK  status: ('A' for Active; 'I' for Inactive)
REMARK    1  A    between atoms: CAU_21  and  OAA_1 
REMARK    2  A    between atoms: CAQ_17  and  CAP_16 
REMARK    3  A    between atoms: CAR_18  and  CAU_21 
ROOT
ATOM      1  CAK MOL d          54.401  12.199  53.437  0.00  0.00    -0.036 C 
ATOM      2  CAL MOL d          54.453  10.876  51.426  0.00  0.00    -0.036 C 
ATOM      3  CAM MOL d          55.246  11.079  54.037  0.00  0.00     0.084 C 
ATOM      4  CAN MOL d          55.535   9.928  51.940  0.00  0.00     0.084 C 
ATOM      5  CAO MOL d          57.066  11.715  52.543  0.00  0.00     0.116 C 
ATOM      6  CAS MOL d          54.747  12.276  51.955  0.00  0.00    -0.015 C 
ATOM      7  NAT MOL d          56.232  10.602  53.050  0.00  0.00    -0.068 N 
ATOM      8  CAU MOL d          56.203  12.677  51.729  0.00  0.00     0.113 C 
ATOM      9  H11 MOL d          54.635  13.154  53.930  0.00  0.00     0.036 H 
ATOM     10  H12 MOL d          53.331  11.973  53.563  0.00  0.00     0.036 H 
ATOM     11  H13 MOL d          53.468  10.544  51.784  0.00  0.00     0.036 H 
ATOM     12  H14 MOL d          54.461  10.886  50.326  0.00  0.00     0.036 H 
ATOM     13  H15 MOL d          54.591  10.245  54.328  0.00  0.00     0.076 H 
ATOM     14  H16 MOL d          55.774  11.458  54.924  0.00  0.00     0.076 H 
ATOM     15  H17 MOL d          56.247   9.701  51.133  0.00  0.00     0.076 H 
ATOM     16  H18 MOL d          55.076   8.995  52.297  0.00  0.00     0.076 H 
ATOM     17  H19 MOL d          57.865  11.311  51.904  0.00  0.00     0.081 H 
ATOM     18  H20 MOL d          57.512  12.253  53.392  0.00  0.00     0.081 H 
ATOM     19  H21 MOL d          54.100  13.012  51.455  0.00  0.00     0.045 H 
ATOM     20  H22 MOL d          56.838   9.934  53.500  0.00  0.00     0.280 HD
ENDROOT
BRANCH   8  21
ATOM     21  OAA MOL d          56.498  12.481  50.342  0.00  0.00    -0.383 OA
ATOM     22  H1  MOL d          56.818  13.295  49.969  0.00  0.00     0.211 HD
ENDBRANCH   8  21
BRANCH   8  23
ATOM     23  CAR MOL d          56.476  14.130  52.019  0.00  0.00    -0.022 A 
ATOM     24  CAI MOL d          56.037  15.153  51.182  0.00  0.00    -0.073 A 
ATOM     25  CAG MOL d          56.282  16.489  51.484  0.00  0.00    -0.072 A 
ATOM     26  H9  MOL d          55.495  14.904  50.277  0.00  0.00     0.084 H 
ATOM     27  CAQ MOL d          56.973  16.895  52.623  0.00  0.00    -0.026 A 
ATOM     28  H7  MOL d          55.918  17.248  50.802  0.00  0.00     0.084 H 
ATOM     29  CAH MOL d          57.395  15.868  53.466  0.00  0.00    -0.072 A 
ATOM     30  CAJ MOL d          57.140  14.524  53.183  0.00  0.00    -0.073 A 
ATOM     31  H8  MOL d          57.938  16.121  54.369  0.00  0.00     0.084 H 
ATOM     32  H10 MOL d          57.468  13.766  53.885  0.00  0.00     0.084 H 
BRANCH  27  33
ATOM     33  CAP MOL d          57.213  18.238  52.891  0.00  0.00    -0.026 A 
ATOM     34  CAE MOL d          57.641  18.680  54.142  0.00  0.00    -0.072 A 
ATOM     35  CAC MOL d          57.868  20.022  54.443  0.00  0.00    -0.082 A 
ATOM     36  H5  MOL d          57.804  17.943  54.920  0.00  0.00     0.084 H 
ATOM     37  CAB MOL d          57.692  21.002  53.465  0.00  0.00    -0.083 A 
ATOM     38  H3  MOL d          58.184  20.306  55.441  0.00  0.00     0.083 H 
ATOM     39  CAD MOL d          57.296  20.572  52.200  0.00  0.00    -0.082 A 
ATOM     40  H2  MOL d          57.856  22.052  53.680  0.00  0.00     0.083 H 
ATOM     41  CAF MOL d          57.049  19.226  51.925  0.00  0.00    -0.072 A 
ATOM     42  H4  MOL d          57.177  21.303  51.408  0.00  0.00     0.083 H 
ATOM     43  H6  MOL d          56.720  18.943  50.932  0.00  0.00     0.084 H 
ENDBRANCH  27  33
ENDBRANCH   8  23
TORSDOF 3
ENDMDL
MODEL 3
REMARK VINA RESULT:      -9.4      0.804      1.522
REMARK  3 active torsions:
REMARK  status: ('A' for Active; 'I' for Inactive)
REMARK    1  A    between atoms: CAU_21  and  OAA_1 
REMARK    2  A    between atoms: CAQ_17  and  CAP_16 
REMARK    3  A    between atoms: CAR_18  and  CAU_21 
ROOT
ATOM      1  CAK MOL d          57.988  11.466  51.586  0.00  0.00    -0.036 C 
ATOM      2  CAL MOL d          56.745   9.926  52.956  0.00  0.00    -0.036 C 
ATOM      3  CAM MOL d          57.047  11.026  50.470  0.00  0.00     0.084 C 
ATOM      4  CAN MOL d          55.636   9.724  51.926  0.00  0.00     0.084 C 
ATOM      5  CAO MOL d          55.208  12.100  51.658  0.00  0.00     0.116 C 
ATOM      6  CAS MOL d          57.207  11.378  52.892  0.00  0.00    -0.015 C 
ATOM      7  NAT MOL d          55.677  10.864  50.993  0.00  0.00    -0.068 N 
ATOM      8  CAU MOL d          56.030  12.351  52.920  0.00  0.00     0.113 C 
ATOM      9  H11 MOL d          58.320  12.501  51.414  0.00  0.00     0.036 H 
ATOM     10  H12 MOL d          58.864  10.801  51.626  0.00  0.00     0.036 H 
ATOM     11  H13 MOL d          57.589   9.258  52.729  0.00  0.00     0.036 H 
ATOM     12  H14 MOL d          56.361   9.703  53.963  0.00  0.00     0.036 H 
ATOM     13  H15 MOL d          57.394  10.067  50.058  0.00  0.00     0.076 H 
ATOM     14  H16 MOL d          57.045  11.786  49.675  0.00  0.00     0.076 H 
ATOM     15  H17 MOL d          54.658   9.689  52.429  0.00  0.00     0.076 H 
ATOM     16  H18 MOL d          55.800   8.785  51.377  0.00  0.00     0.076 H 
ATOM     17  H19 MOL d          54.148  11.990  51.929  0.00  0.00     0.081 H 
ATOM     18  H20 MOL d          55.324  12.952  50.971  0.00  0.00     0.081 H 
ATOM     19  H21 MOL d          57.867  11.602  53.742  0.00  0.00     0.045 H 
ATOM     20  H22 MOL d          55.061  10.669  50.220  0.00  0.00     0.280 HD
ENDROOT
BRANCH   8  21
ATOM     21  OAA MOL d          55.222  12.025  54.056  0.00  0.00    -0.383 OA
ATOM     22  H1  MOL d          54.359  12.408  53.950  0.00  0.00     0.211 HD
ENDBRANCH   8  21
BRANCH   8  23
ATOM     23  CAR MOL d          56.448  13.789  53.096  0.00  0.00    -0.022 A 
ATOM     24  CAI MOL d          56.488  14.688  52.034  0.00  0.00    -0.073 A 
ATOM     25  CAG MOL d          56.854  16.017  52.226  0.00  0.00    -0.072 A 
ATOM     26  H9  MOL d          56.228  14.347  51.038  0.00  0.00     0.084 H 
ATOM     27  CAQ MOL d          57.205  16.535  53.470  0.00  0.00    -0.026 A 
ATOM     28  H7  MOL d          56.867  16.679  51.368  0.00  0.00     0.084 H 
ATOM     29  CAH MOL d          57.148  15.634  54.532  0.00  0.00    -0.072 A 
ATOM     30  CAJ MOL d          56.764  14.302  54.356  0.00  0.00    -0.073 A 
ATOM     31  H8  MOL d          57.409  15.978  55.526  0.00  0.00     0.084 H 
ATOM     32  H10 MOL d          56.710  13.650  55.220  0.00  0.00     0.084 H 
BRANCH  27  33
ATOM     33  CAP MOL d          57.580  17.865  53.628  0.00  0.00    -0.026 A 
ATOM     34  CAE MOL d          56.677  18.914  53.462  0.00  0.00    -0.072 A 
ATOM     35  CAC MOL d          57.031  20.257  53.594  0.00  0.00    -0.082 A 
ATOM     36  H5  MOL d          55.648  18.675  53.218  0.00  0.00     0.084 H 
ATOM     37  CAB MOL d          58.339  20.609  53.929  0.00  0.00    -0.083 A 
ATOM     38  H3  MOL d          56.287  21.029  53.436  0.00  0.00     0.083 H 
ATOM     39  CAD MOL d          59.245  19.569  54.130  0.00  0.00    -0.082 A 
ATOM     40  H2  MOL d          58.638  21.646  54.029  0.00  0.00     0.083 H 
ATOM     41  CAF MOL d          58.877  18.232  53.969  0.00  0.00    -0.072 A 
ATOM     42  H4  MOL d          60.263  19.806  54.419  0.00  0.00     0.083 H 
ATOM     43  H6  MOL d          59.623  17.459  54.113  0.00  0.00     0.084 H 
ENDBRANCH  27  33
ENDBRANCH   8  23
TORSDOF 3
ENDMDL
MODEL 4
REMARK VINA RESULT:      -7.6      2.586      7.382
REMARK  3 active torsions:
REMARK  status: ('A' for Active; 'I' for Inactive)
REMARK    1  A    between atoms: CAU_21  and  OAA_1 
REMARK    2  A    between atoms: CAQ_17  and  CAP_16 
REMARK    3  A    between atoms: CAR_18  and  CAU_21 
ROOT
ATOM      1  CAK MOL d          58.936  18.184  52.514  0.00  0.00    -0.036 C 
ATOM      2  CAL MOL d          57.426  20.031  52.197  0.00  0.00    -0.036 C 
ATOM      3  CAM MOL d          59.206  18.811  53.879  0.00  0.00     0.084 C 
ATOM      4  CAN MOL d          57.475  20.472  53.659  0.00  0.00     0.084 C 
ATOM      5  CAO MOL d          56.917  18.274  54.527  0.00  0.00     0.116 C 
ATOM      6  CAS MOL d          57.493  18.508  52.150  0.00  0.00    -0.015 C 
ATOM      7  NAT MOL d          57.952  19.329  54.457  0.00  0.00    -0.068 N 
ATOM      8  CAU MOL d          56.501  17.864  53.116  0.00  0.00     0.113 C 
ATOM      9  H11 MOL d          59.076  17.094  52.566  0.00  0.00     0.036 H 
ATOM     10  H12 MOL d          59.619  18.606  51.763  0.00  0.00     0.036 H 
ATOM     11  H13 MOL d          58.281  20.457  51.652  0.00  0.00     0.036 H 
ATOM     12  H14 MOL d          56.488  20.376  51.737  0.00  0.00     0.036 H 
ATOM     13  H15 MOL d          59.922  19.637  53.764  0.00  0.00     0.076 H 
ATOM     14  H16 MOL d          59.629  18.050  54.551  0.00  0.00     0.076 H 
ATOM     15  H17 MOL d          56.471  20.769  53.994  0.00  0.00     0.076 H 
ATOM     16  H18 MOL d          58.165  21.321  53.771  0.00  0.00     0.076 H 
ATOM     17  H19 MOL d          56.041  18.657  55.070  0.00  0.00     0.081 H 
ATOM     18  H20 MOL d          57.322  17.399  55.057  0.00  0.00     0.081 H 
ATOM     19  H21 MOL d          57.272  18.152  51.133  0.00  0.00     0.045 H 
ATOM     20  H22 MOL d          58.141  19.648  55.394  0.00  0.00     0.280 HD
ENDROOT
BRANCH   8  21
ATOM     21  OAA MOL d          55.209  18.421  52.849  0.00  0.00    -0.383 OA
ATOM     22  H1  MOL d          55.153  19.288  53.233  0.00  0.00     0.211 HD
ENDBRANCH   8  21
BRANCH   8  23
ATOM     23  CAR MOL d          56.367  16.375  52.931  0.00  0.00    -0.022 A 
ATOM     24  CAI MOL d          56.660  15.469  53.947  0.00  0.00    -0.073 A 
ATOM     25  CAG MOL d          56.507  14.098  53.760  0.00  0.00    -0.072 A 
ATOM     26  H9  MOL d          57.015  15.837  54.903  0.00  0.00     0.084 H 
ATOM     27  CAQ MOL d          56.060  13.541  52.564  0.00  0.00    -0.026 A 
ATOM     28  H7  MOL d          56.746  13.434  54.582  0.00  0.00     0.084 H 
ATOM     29  CAH MOL d          55.752  14.454  51.556  0.00  0.00    -0.072 A 
ATOM     30  CAJ MOL d          55.885  15.833  51.738  0.00  0.00    -0.073 A 
ATOM     31  H8  MOL d          55.398  14.082  50.602  0.00  0.00     0.084 H 
ATOM     32  H10 MOL d          55.606  16.500  50.930  0.00  0.00     0.084 H 
BRANCH  27  33
ATOM     33  CAP MOL d          55.929  12.167  52.404  0.00  0.00    -0.026 A 
ATOM     34  CAE MOL d          54.914  11.604  51.630  0.00  0.00    -0.072 A 
ATOM     35  CAC MOL d          54.748  10.228  51.469  0.00  0.00    -0.082 A 
ATOM     36  H5  MOL d          54.220  12.268  51.129  0.00  0.00     0.084 H 
ATOM     37  CAB MOL d          55.634   9.337  52.078  0.00  0.00    -0.083 A 
ATOM     38  H3  MOL d          53.929   9.850  50.869  0.00  0.00     0.083 H 
ATOM     39  CAD MOL d          56.672   9.886  52.827  0.00  0.00    -0.082 A 
ATOM     40  H2  MOL d          55.518   8.264  51.973  0.00  0.00     0.083 H 
ATOM     41  CAF MOL d          56.807  11.266  52.997  0.00  0.00    -0.072 A 
ATOM     42  H4  MOL d          57.395   9.224  53.290  0.00  0.00     0.083 H 
ATOM     43  H6  MOL d          57.618  11.644  53.608  0.00  0.00     0.084 H 
ENDBRANCH  27  33
ENDBRANCH   8  23
TORSDOF 3
ENDMDL
