MODEL 1
REMARK VINA RESULT:      -8.2      0.000      0.000
REMARK  5 active torsions:
REMARK  status: ('A' for Active; 'I' for Inactive)
REMARK    1  A    between atoms: S1_2  and  N1_4 
REMARK    2  A    between atoms: S1_2  and  C13_10 
REMARK    3  A    between atoms: N1_4  and  C12_5 
REMARK    4  A    between atoms: C12_5  and  C14_6 
REMARK       I    between atoms: C14_6  and  N2_8 
REMARK    5  A    between atoms: C2_15  and  C1_16 
ROOT
ATOM      1  C13 HS4 d           2.411  -5.452   6.098  0.00  0.00     0.079 A 
ATOM      2  C10 HS4 d           3.621  -5.860   5.527  0.00  0.00    -0.059 A 
ATOM      3  C5  HS4 d           4.644  -6.397   6.302  0.00  0.00    -0.071 A 
ATOM      4  C11 HS4 d           2.252  -5.571   7.482  0.00  0.00    -0.059 A 
ATOM      5  C8  HS4 d           3.280  -6.109   8.261  0.00  0.00    -0.071 A 
ATOM      6  C2  HS4 d           4.490  -6.506   7.683  0.00  0.00    -0.026 A 
ATOM      7  H4  HS4 d           3.765  -5.756   4.458  0.00  0.00     0.085 H 
ATOM      8  H5  HS4 d           5.562  -6.732   5.831  0.00  0.00     0.084 H 
ATOM      9  H6  HS4 d           1.330  -5.247   7.951  0.00  0.00     0.085 H 
ATOM     10  H7  HS4 d           3.138  -6.219   9.330  0.00  0.00     0.084 H 
ENDROOT
BRANCH   1  11
ATOM     11  S1  HS4 d           1.347  -4.881   5.048  0.00  0.00     0.259 S 
ATOM     12  O4  HS4 d           1.611  -3.484   5.310  0.00  0.00    -0.201 OA
ATOM     13  O3  HS4 d           0.045  -5.353   5.223  0.00  0.00    -0.201 OA
BRANCH  11  14
ATOM     14  N1  HS4 d           1.692  -4.911   3.487  0.00  0.00    -0.306 N 
ATOM     15  H1  HS4 d           2.547  -4.472   3.209  0.00  0.00     0.172 HD
BRANCH  14  16
ATOM     16  C12 HS4 d           0.904  -5.501   2.441  0.00  0.00     0.080 C 
ATOM     17  H2  HS4 d           1.300  -5.178   1.467  0.00  0.00     0.079 H 
ATOM     18  H3  HS4 d          -0.138  -5.165   2.543  0.00  0.00     0.079 H 
BRANCH  16  19
ATOM     19  C14 HS4 d           0.946  -7.002   2.515  0.00  0.00     0.287 C 
ATOM     20  O1  HS4 d          -0.015  -7.720   2.248  0.00  0.00    -0.267 OA
ATOM     21  N2  HS4 d           2.109  -7.496   2.873  0.00  0.00    -0.057 NA
ATOM     22  O2  HS4 d           2.250  -8.861   2.926  0.00  0.00    -0.058 OA
ENDBRANCH  16  19
ENDBRANCH  14  16
ENDBRANCH  11  14
ENDBRANCH   1  11
BRANCH   6  23
ATOM     23  C1  HS4 d           5.572  -7.134   8.491  0.00  0.00    -0.026 A 
ATOM     24  C4  HS4 d           5.464  -7.399   9.852  0.00  0.00    -0.072 A 
ATOM     25  C7  HS4 d           6.540  -7.951  10.550  0.00  0.00    -0.082 A 
ATOM     26  H8  HS4 d           4.540  -7.176  10.374  0.00  0.00     0.084 H 
ATOM     27  C9  HS4 d           7.739  -8.211   9.900  0.00  0.00    -0.083 A 
ATOM     28  H9  HS4 d           6.440  -8.177  11.606  0.00  0.00     0.083 H 
ATOM     29  C6  HS4 d           7.863  -7.918   8.547  0.00  0.00    -0.082 A 
ATOM     30  H10 HS4 d           8.574  -8.639  10.444  0.00  0.00     0.083 H 
ATOM     31  C3  HS4 d           6.793  -7.371   7.854  0.00  0.00    -0.072 A 
ATOM     32  H11 HS4 d           8.796  -8.118   8.034  0.00  0.00     0.083 H 
ATOM     33  H12 HS4 d           6.905  -7.125   6.804  0.00  0.00     0.084 H 
ENDBRANCH   6  23
TORSDOF 5
ENDMDL
MODEL 2
REMARK VINA RESULT:      -8.1      1.457      2.753
REMARK  5 active torsions:
REMARK  status: ('A' for Active; 'I' for Inactive)
REMARK    1  A    between atoms: S1_2  and  N1_4 
REMARK    2  A    between atoms: S1_2  and  C13_10 
REMARK    3  A    between atoms: N1_4  and  C12_5 
REMARK    4  A    between atoms: C12_5  and  C14_6 
REMARK       I    between atoms: C14_6  and  N2_8 
REMARK    5  A    between atoms: C2_15  and  C1_16 
ROOT
ATOM      1  C13 HS4 d           1.649  -6.647   4.917  0.00  0.00     0.079 A 
ATOM      2  C10 HS4 d           2.880  -7.245   4.631  0.00  0.00    -0.059 A 
ATOM      3  C5  HS4 d           3.874  -7.359   5.599  0.00  0.00    -0.071 A 
ATOM      4  C11 HS4 d           1.437  -6.136   6.202  0.00  0.00    -0.059 A 
ATOM      5  C8  HS4 d           2.436  -6.248   7.173  0.00  0.00    -0.071 A 
ATOM      6  C2  HS4 d           3.668  -6.839   6.875  0.00  0.00    -0.026 A 
ATOM      7  H4  HS4 d           3.065  -7.629   3.634  0.00  0.00     0.085 H 
ATOM      8  H5  HS4 d           4.810  -7.852   5.359  0.00  0.00     0.084 H 
ATOM      9  H6  HS4 d           0.498  -5.653   6.445  0.00  0.00     0.085 H 
ATOM     10  H7  HS4 d           2.253  -5.870   8.173  0.00  0.00     0.084 H 
ENDROOT
BRANCH   1  11
ATOM     11  S1  HS4 d           0.624  -6.627   3.688  0.00  0.00     0.259 S 
ATOM     12  O4  HS4 d          -0.412  -5.881   4.367  0.00  0.00    -0.201 OA
ATOM     13  O3  HS4 d           0.306  -7.886   3.175  0.00  0.00    -0.201 OA
BRANCH  11  14
ATOM     14  N1  HS4 d           0.887  -5.631   2.465  0.00  0.00    -0.306 N 
ATOM     15  H1  HS4 d           0.267  -5.708   1.684  0.00  0.00     0.172 HD
BRANCH  14  16
ATOM     16  C12 HS4 d           1.920  -4.638   2.370  0.00  0.00     0.080 C 
ATOM     17  H2  HS4 d           1.964  -4.263   1.337  0.00  0.00     0.079 H 
ATOM     18  H3  HS4 d           2.884  -5.095   2.636  0.00  0.00     0.079 H 
BRANCH  16  19
ATOM     19  C14 HS4 d           1.650  -3.486   3.299  0.00  0.00     0.287 C 
ATOM     20  O1  HS4 d           0.798  -2.627   3.083  0.00  0.00    -0.267 OA
ATOM     21  N2  HS4 d           2.389  -3.480   4.384  0.00  0.00    -0.057 NA
ATOM     22  O2  HS4 d           2.181  -2.487   5.310  0.00  0.00    -0.058 OA
ENDBRANCH  16  19
ENDBRANCH  14  16
ENDBRANCH  11  14
ENDBRANCH   1  11
BRANCH   6  23
ATOM     23  C1  HS4 d           4.719  -7.018   7.915  0.00  0.00    -0.026 A 
ATOM     24  C4  HS4 d           4.453  -7.086   9.278  0.00  0.00    -0.072 A 
ATOM     25  C7  HS4 d           5.499  -7.211  10.195  0.00  0.00    -0.082 A 
ATOM     26  H8  HS4 d           3.429  -7.042   9.631  0.00  0.00     0.084 H 
ATOM     27  C9  HS4 d           6.817  -7.237   9.757  0.00  0.00    -0.083 A 
ATOM     28  H9  HS4 d           5.281  -7.288  11.254  0.00  0.00     0.083 H 
ATOM     29  C6  HS4 d           7.090  -7.138   8.399  0.00  0.00    -0.082 A 
ATOM     30  H10 HS4 d           7.627  -7.334  10.471  0.00  0.00     0.083 H 
ATOM     31  C3  HS4 d           6.050  -7.015   7.489  0.00  0.00    -0.072 A 
ATOM     32  H11 HS4 d           8.116  -7.156   8.050  0.00  0.00     0.083 H 
ATOM     33  H12 HS4 d           6.273  -6.914   6.432  0.00  0.00     0.084 H 
ENDBRANCH   6  23
TORSDOF 5
ENDMDL
MODEL 3
REMARK VINA RESULT:      -7.7      1.625      2.932
REMARK  5 active torsions:
REMARK  status: ('A' for Active; 'I' for Inactive)
REMARK    1  A    between atoms: S1_2  and  N1_4 
REMARK    2  A    between atoms: S1_2  and  C13_10 
REMARK    3  A    between atoms: N1_4  and  C12_5 
REMARK    4  A    between atoms: C12_5  and  C14_6 
REMARK       I    between atoms: C14_6  and  N2_8 
REMARK    5  A    between atoms: C2_15  and  C1_16 
ROOT
ATOM      1  C13 HS4 d           1.570  -6.447   5.317  0.00  0.00     0.079 A 
ATOM      2  C10 HS4 d           1.585  -5.887   6.598  0.00  0.00    -0.059 A 
ATOM      3  C5  HS4 d           2.663  -6.072   7.459  0.00  0.00    -0.071 A 
ATOM      4  C11 HS4 d           2.660  -7.225   4.915  0.00  0.00    -0.059 A 
ATOM      5  C8  HS4 d           3.742  -7.412   5.779  0.00  0.00    -0.071 A 
ATOM      6  C2  HS4 d           3.744  -6.857   7.063  0.00  0.00    -0.026 A 
ATOM      7  H4  HS4 d           0.738  -5.297   6.930  0.00  0.00     0.085 H 
ATOM      8  H5  HS4 d           2.662  -5.604   8.437  0.00  0.00     0.084 H 
ATOM      9  H6  HS4 d           2.666  -7.684   3.933  0.00  0.00     0.085 H 
ATOM     10  H7  HS4 d           4.594  -7.997   5.450  0.00  0.00     0.084 H 
ENDROOT
BRANCH   1  11
ATOM     11  S1  HS4 d           0.257  -6.109   4.465  0.00  0.00     0.259 S 
ATOM     12  O4  HS4 d          -0.393  -5.329   5.494  0.00  0.00    -0.201 OA
ATOM     13  O3  HS4 d          -0.410  -7.225   3.958  0.00  0.00    -0.201 OA
BRANCH  11  14
ATOM     14  N1  HS4 d           0.331  -4.996   3.320  0.00  0.00    -0.306 N 
ATOM     15  H1  HS4 d           0.208  -5.313   2.379  0.00  0.00     0.172 HD
BRANCH  14  16
ATOM     16  C12 HS4 d           0.556  -3.589   3.499  0.00  0.00     0.080 C 
ATOM     17  H2  HS4 d          -0.213  -3.185   4.173  0.00  0.00     0.079 H 
ATOM     18  H3  HS4 d           0.488  -3.087   2.522  0.00  0.00     0.079 H 
BRANCH  16  19
ATOM     19  C14 HS4 d           1.915  -3.330   4.090  0.00  0.00     0.287 C 
ATOM     20  O1  HS4 d           2.120  -2.505   4.978  0.00  0.00    -0.267 OA
ATOM     21  N2  HS4 d           2.874  -4.077   3.594  0.00  0.00    -0.057 NA
ATOM     22  O2  HS4 d           4.141  -3.937   4.106  0.00  0.00    -0.058 OA
ENDBRANCH  16  19
ENDBRANCH  14  16
ENDBRANCH  11  14
ENDBRANCH   1  11
BRANCH   6  23
ATOM     23  C1  HS4 d           4.916  -6.998   7.973  0.00  0.00    -0.026 A 
ATOM     24  C4  HS4 d           6.232  -7.080   7.530  0.00  0.00    -0.072 A 
ATOM     25  C7  HS4 d           7.272  -7.256   8.444  0.00  0.00    -0.082 A 
ATOM     26  H8  HS4 d           6.450  -7.006   6.470  0.00  0.00     0.084 H 
ATOM     27  C9  HS4 d           7.002  -7.383   9.800  0.00  0.00    -0.083 A 
ATOM     28  H9  HS4 d           8.297  -7.294   8.093  0.00  0.00     0.083 H 
ATOM     29  C6  HS4 d           5.687  -7.334  10.244  0.00  0.00    -0.082 A 
ATOM     30  H10 HS4 d           7.812  -7.520  10.508  0.00  0.00     0.083 H 
ATOM     31  C3  HS4 d           4.653  -7.158   9.336  0.00  0.00    -0.072 A 
ATOM     32  H11 HS4 d           5.468  -7.434  11.301  0.00  0.00     0.083 H 
ATOM     33  H12 HS4 d           3.628  -7.144   9.688  0.00  0.00     0.084 H 
ENDBRANCH   6  23
TORSDOF 5
ENDMDL
