REMARK  6 active torsions:
REMARK  status: ('A' for Active; 'I' for Inactive)
REMARK    1  A    between atoms: N_1  and  CA_2 
REMARK    2  A    between atoms: CA_2  and  C_3 
REMARK    3  A    between atoms: CA_2  and  CB_5 
REMARK    4  A    between atoms: CB_5  and  CG_6 
REMARK    5  A    between atoms: CG_6  and  CD1_7 
REMARK    6  A    between atoms: CG_6  and  CD2_8 
ROOT
ATOM      1  CB  LEU d          26.893  31.356  20.284  0.00  0.00    -0.026 C 
ATOM      2  H5  LEU d          27.903  30.932  20.187  0.00  0.00     0.037 H 
ATOM      3  H6  LEU d          26.216  30.598  20.706  0.00  0.00     0.037 H 
ENDROOT
BRANCH   1   4
ATOM      4  CA  LEU d          26.392  31.691  18.870  0.00  0.00     0.182 C 
ATOM      5  H4  LEU d          27.105  32.366  18.374  0.00  0.00     0.101 H 
BRANCH   4   6
ATOM      6  N   LEU d          25.076  32.349  18.930  0.00  0.00    -0.065 N 
ATOM      7  H1  LEU d          25.156  33.214  19.442  0.00  0.00     0.275 HD
ATOM      8  H2  LEU d          24.418  31.743  19.395  0.00  0.00     0.275 HD
ATOM      9  H3  LEU d          24.753  32.541  17.994  0.00  0.00     0.275 HD
ENDBRANCH   4   6
BRANCH   4  10
ATOM     10  C   LEU d          26.317  30.387  18.109  0.00  0.00     0.204 C 
ATOM     11  O   LEU d          27.317  29.623  17.998  0.00  0.00    -0.646 OA
ATOM     12  OXT LEU d          25.230  30.026  17.637  0.00  0.00    -0.646 OA
ENDBRANCH   4  10
ENDBRANCH   1   4
BRANCH   1  13
ATOM     13  CG  LEU d          26.971  32.509  21.279  0.00  0.00    -0.059 C 
ATOM     14  H7  LEU d          25.961  32.933  21.379  0.00  0.00     0.038 H 
BRANCH  13  15
ATOM     15  CD1 LEU d          27.419  31.997  22.699  0.00  0.00    -0.073 C 
ATOM     16  H8  LEU d          27.467  32.846  23.396  0.00  0.00     0.028 H 
ATOM     17  H9  LEU d          28.411  31.528  22.623  0.00  0.00     0.028 H 
ATOM     18  H10 LEU d          26.692  31.259  23.069  0.00  0.00     0.028 H 
ENDBRANCH  13  15
BRANCH  13  19
ATOM     19  CD2 LEU d          27.885  33.613  20.782  0.00  0.00    -0.073 C 
ATOM     20  H11 LEU d          27.548  33.950  19.791  0.00  0.00     0.028 H 
ATOM     21  H12 LEU d          28.914  33.232  20.709  0.00  0.00     0.028 H 
ATOM     22  H13 LEU d          27.855  34.458  21.486  0.00  0.00     0.028 H 
ENDBRANCH  13  19
ENDBRANCH   1  13
TORSDOF 6
