MODEL 1
REMARK VINA RESULT:      -6.4      0.000      0.000
REMARK  6 active torsions:
REMARK  status: ('A' for Active; 'I' for Inactive)
REMARK    1  A    between atoms: N_1  and  CA_2 
REMARK    2  A    between atoms: CA_2  and  C_3 
REMARK    3  A    between atoms: CA_2  and  CB_5 
REMARK    4  A    between atoms: CB_5  and  CG_6 
REMARK    5  A    between atoms: CG_6  and  CD1_7 
REMARK    6  A    between atoms: CG_6  and  CD2_8 
ROOT
ATOM      1  CB  LEU d          26.453  31.328  20.680  0.00  0.00    -0.026 C 
ATOM      2  H5  LEU d          26.726  30.265  20.749  0.00  0.00     0.037 H 
ATOM      3  H6  LEU d          25.445  31.475  21.095  0.00  0.00     0.037 H 
ENDROOT
BRANCH   1   4
ATOM      4  CA  LEU d          26.401  31.698  19.189  0.00  0.00     0.182 C 
ATOM      5  H4  LEU d          27.323  32.227  18.906  0.00  0.00     0.101 H 
BRANCH   4   6
ATOM      6  N   LEU d          25.247  32.571  18.914  0.00  0.00    -0.065 N 
ATOM      7  H1  LEU d          24.591  32.083  18.323  0.00  0.00     0.275 HD
ATOM      8  H2  LEU d          25.562  33.407  18.447  0.00  0.00     0.275 HD
ATOM      9  H3  LEU d          24.798  32.819  19.782  0.00  0.00     0.275 HD
ENDBRANCH   4   6
BRANCH   4  10
ATOM     10  C   LEU d          26.303  30.403  18.417  0.00  0.00     0.204 C 
ATOM     11  O   LEU d          27.319  29.689  18.184  0.00  0.00    -0.646 OA
ATOM     12  OXT LEU d          25.189  29.997  18.058  0.00  0.00    -0.646 OA
ENDBRANCH   4  10
ENDBRANCH   1   4
BRANCH   1  13
ATOM     13  CG  LEU d          27.429  32.111  21.551  0.00  0.00    -0.059 C 
ATOM     14  H7  LEU d          28.210  32.521  20.893  0.00  0.00     0.038 H 
BRANCH  13  15
ATOM     15  CD1 LEU d          26.709  33.323  22.253  0.00  0.00    -0.073 C 
ATOM     16  H8  LEU d          27.440  33.887  22.851  0.00  0.00     0.028 H 
ATOM     17  H9  LEU d          25.912  32.945  22.909  0.00  0.00     0.028 H 
ATOM     18  H10 LEU d          26.273  33.983  21.489  0.00  0.00     0.028 H 
ENDBRANCH  13  15
BRANCH  13  19
ATOM     19  CD2 LEU d          28.110  31.216  22.569  0.00  0.00    -0.073 C 
ATOM     20  H11 LEU d          29.189  31.178  22.361  0.00  0.00     0.028 H 
ATOM     21  H12 LEU d          27.689  30.202  22.505  0.00  0.00     0.028 H 
ATOM     22  H13 LEU d          27.946  31.619  23.579  0.00  0.00     0.028 H 
ENDBRANCH  13  19
ENDBRANCH   1  13
TORSDOF 6
ENDMDL
MODEL 2
REMARK VINA RESULT:      -6.3      0.624      1.566
REMARK  6 active torsions:
REMARK  status: ('A' for Active; 'I' for Inactive)
REMARK    1  A    between atoms: N_1  and  CA_2 
REMARK    2  A    between atoms: CA_2  and  C_3 
REMARK    3  A    between atoms: CA_2  and  CB_5 
REMARK    4  A    between atoms: CB_5  and  CG_6 
REMARK    5  A    between atoms: CG_6  and  CD1_7 
REMARK    6  A    between atoms: CG_6  and  CD2_8 
ROOT
ATOM      1  CB  LEU d          26.717  31.241  20.844  0.00  0.00    -0.026 C 
ATOM      2  H5  LEU d          27.014  30.183  20.890  0.00  0.00     0.037 H 
ATOM      3  H6  LEU d          25.706  31.356  21.262  0.00  0.00     0.037 H 
ENDROOT
BRANCH   1   4
ATOM      4  CA  LEU d          26.656  31.643  19.362  0.00  0.00     0.182 C 
ATOM      5  H4  LEU d          27.628  32.052  19.048  0.00  0.00     0.101 H 
BRANCH   4   6
ATOM      6  N   LEU d          25.617  32.663  19.145  0.00  0.00    -0.065 N 
ATOM      7  H1  LEU d          26.053  33.542  18.911  0.00  0.00     0.275 HD
ATOM      8  H2  LEU d          25.072  32.772  19.986  0.00  0.00     0.275 HD
ATOM      9  H3  LEU d          25.015  32.375  18.389  0.00  0.00     0.275 HD
ENDBRANCH   4   6
BRANCH   4  10
ATOM     10  C   LEU d          26.360  30.385  18.576  0.00  0.00     0.204 C 
ATOM     11  O   LEU d          25.202  30.130  18.141  0.00  0.00    -0.646 OA
ATOM     12  OXT LEU d          27.290  29.617  18.296  0.00  0.00    -0.646 OA
ENDBRANCH   4  10
ENDBRANCH   1   4
BRANCH   1  13
ATOM     13  CG  LEU d          27.676  32.027  21.733  0.00  0.00    -0.059 C 
ATOM     14  H7  LEU d          28.072  31.335  22.491  0.00  0.00     0.038 H 
BRANCH  13  15
ATOM     15  CD1 LEU d          28.894  32.574  20.899  0.00  0.00    -0.073 C 
ATOM     16  H8  LEU d          29.818  32.083  21.236  0.00  0.00     0.028 H 
ATOM     17  H9  LEU d          28.981  33.661  21.048  0.00  0.00     0.028 H 
ATOM     18  H10 LEU d          28.734  32.362  19.832  0.00  0.00     0.028 H 
ENDBRANCH  13  15
BRANCH  13  19
ATOM     19  CD2 LEU d          26.964  33.149  22.463  0.00  0.00    -0.073 C 
ATOM     20  H11 LEU d          25.876  33.020  22.364  0.00  0.00     0.028 H 
ATOM     21  H12 LEU d          27.259  34.115  22.028  0.00  0.00     0.028 H 
ATOM     22  H13 LEU d          27.240  33.126  23.528  0.00  0.00     0.028 H 
ENDBRANCH  13  19
ENDBRANCH   1  13
TORSDOF 6
ENDMDL
MODEL 3
REMARK VINA RESULT:      -4.7      1.884      2.364
REMARK  6 active torsions:
REMARK  status: ('A' for Active; 'I' for Inactive)
REMARK    1  A    between atoms: N_1  and  CA_2 
REMARK    2  A    between atoms: CA_2  and  C_3 
REMARK    3  A    between atoms: CA_2  and  CB_5 
REMARK    4  A    between atoms: CB_5  and  CG_6 
REMARK    5  A    between atoms: CG_6  and  CD1_7 
REMARK    6  A    between atoms: CG_6  and  CD2_8 
ROOT
ATOM      1  CB  LEU d          28.810  32.461  21.244  0.00  0.00    -0.026 C 
ATOM      2  H5  LEU d          29.687  33.062  21.529  0.00  0.00     0.037 H 
ATOM      3  H6  LEU d          29.136  31.448  20.963  0.00  0.00     0.037 H 
ENDROOT
BRANCH   1   4
ATOM      4  CA  LEU d          28.186  33.111  19.999  0.00  0.00     0.182 C 
ATOM      5  H4  LEU d          28.949  33.215  19.213  0.00  0.00     0.101 H 
BRANCH   4   6
ATOM      6  N   LEU d          27.653  34.444  20.324  0.00  0.00    -0.065 N 
ATOM      7  H1  LEU d          26.860  34.642  19.733  0.00  0.00     0.275 HD
ATOM      8  H2  LEU d          28.367  35.139  20.171  0.00  0.00     0.275 HD
ATOM      9  H3  LEU d          27.365  34.465  21.291  0.00  0.00     0.275 HD
ENDBRANCH   4   6
BRANCH   4  10
ATOM     10  C   LEU d          27.091  32.185  19.521  0.00  0.00     0.204 C 
ATOM     11  O   LEU d          25.887  32.561  19.449  0.00  0.00    -0.646 OA
ATOM     12  OXT LEU d          27.390  31.050  19.127  0.00  0.00    -0.646 OA
ENDBRANCH   4  10
ENDBRANCH   1   4
BRANCH   1  13
ATOM     13  CG  LEU d          27.920  32.334  22.475  0.00  0.00    -0.059 C 
ATOM     14  H7  LEU d          28.555  32.468  23.363  0.00  0.00     0.038 H 
BRANCH  13  15
ATOM     15  CD1 LEU d          26.823  33.463  22.495  0.00  0.00    -0.073 C 
ATOM     16  H8  LEU d          27.210  34.358  21.987  0.00  0.00     0.028 H 
ATOM     17  H9  LEU d          26.571  33.711  23.536  0.00  0.00     0.028 H 
ATOM     18  H10 LEU d          25.921  33.107  21.974  0.00  0.00     0.028 H 
ENDBRANCH  13  15
BRANCH  13  19
ATOM     19  CD2 LEU d          27.289  30.957  22.567  0.00  0.00    -0.073 C 
ATOM     20  H11 LEU d          26.204  31.040  22.413  0.00  0.00     0.028 H 
ATOM     21  H12 LEU d          27.487  30.528  23.560  0.00  0.00     0.028 H 
ATOM     22  H13 LEU d          27.720  30.305  21.792  0.00  0.00     0.028 H 
ENDBRANCH  13  19
ENDBRANCH   1  13
TORSDOF 6
ENDMDL
MODEL 4
REMARK VINA RESULT:      -4.1      3.211      4.336
REMARK  6 active torsions:
REMARK  status: ('A' for Active; 'I' for Inactive)
REMARK    1  A    between atoms: N_1  and  CA_2 
REMARK    2  A    between atoms: CA_2  and  C_3 
REMARK    3  A    between atoms: CA_2  and  CB_5 
REMARK    4  A    between atoms: CB_5  and  CG_6 
REMARK    5  A    between atoms: CG_6  and  CD1_7 
REMARK    6  A    between atoms: CG_6  and  CD2_8 
ROOT
ATOM      1  CB  LEU d          27.014  31.255  20.618  0.00  0.00    -0.026 C 
ATOM      2  H5  LEU d          26.072  31.361  21.175  0.00  0.00     0.037 H 
ATOM      3  H6  LEU d          27.357  30.211  20.672  0.00  0.00     0.037 H 
ENDROOT
BRANCH   1   4
ATOM      4  CA  LEU d          28.068  32.127  21.318  0.00  0.00     0.182 C 
ATOM      5  H4  LEU d          28.971  32.192  20.693  0.00  0.00     0.101 H 
BRANCH   4   6
ATOM      6  N   LEU d          28.433  31.550  22.623  0.00  0.00    -0.065 N 
ATOM      7  H1  LEU d          29.426  31.651  22.769  0.00  0.00     0.275 HD
ATOM      8  H2  LEU d          28.189  30.572  22.638  0.00  0.00     0.275 HD
ATOM      9  H3  LEU d          27.935  32.032  23.355  0.00  0.00     0.275 HD
ENDBRANCH   4   6
BRANCH   4  10
ATOM     10  C   LEU d          27.465  33.504  21.479  0.00  0.00     0.204 C 
ATOM     11  O   LEU d          27.825  34.477  20.759  0.00  0.00    -0.646 OA
ATOM     12  OXT LEU d          26.546  33.668  22.294  0.00  0.00    -0.646 OA
ENDBRANCH   4  10
ENDBRANCH   1   4
BRANCH   1  13
ATOM     13  CG  LEU d          26.721  31.569  19.155  0.00  0.00    -0.059 C 
ATOM     14  H7  LEU d          27.512  32.243  18.793  0.00  0.00     0.038 H 
BRANCH  13  15
ATOM     15  CD1 LEU d          26.767  30.262  18.279  0.00  0.00    -0.073 C 
ATOM     16  H8  LEU d          26.791  29.381  18.937  0.00  0.00     0.028 H 
ATOM     17  H9  LEU d          27.669  30.274  17.649  0.00  0.00     0.028 H 
ATOM     18  H10 LEU d          25.873  30.217  17.639  0.00  0.00     0.028 H 
ENDBRANCH  13  15
BRANCH  13  19
ATOM     19  CD2 LEU d          25.396  32.289  18.994  0.00  0.00    -0.073 C 
ATOM     20  H11 LEU d          25.576  33.367  18.868  0.00  0.00     0.028 H 
ATOM     21  H12 LEU d          24.777  32.123  19.888  0.00  0.00     0.028 H 
ATOM     22  H13 LEU d          24.873  31.900  18.107  0.00  0.00     0.028 H 
ENDBRANCH  13  19
ENDBRANCH   1  13
TORSDOF 6
ENDMDL
MODEL 5
REMARK VINA RESULT:      -4.0      1.966      2.547
REMARK  6 active torsions:
REMARK  status: ('A' for Active; 'I' for Inactive)
REMARK    1  A    between atoms: N_1  and  CA_2 
REMARK    2  A    between atoms: CA_2  and  C_3 
REMARK    3  A    between atoms: CA_2  and  CB_5 
REMARK    4  A    between atoms: CB_5  and  CG_6 
REMARK    5  A    between atoms: CG_6  and  CD1_7 
REMARK    6  A    between atoms: CG_6  and  CD2_8 
ROOT
ATOM      1  CB  LEU d          27.609  31.193  20.693  0.00  0.00    -0.026 C 
ATOM      2  H5  LEU d          28.192  32.070  20.376  0.00  0.00     0.037 H 
ATOM      3  H6  LEU d          28.270  30.315  20.752  0.00  0.00     0.037 H 
ENDROOT
BRANCH   1   4
ATOM      4  CA  LEU d          26.561  30.914  19.604  0.00  0.00     0.182 C 
ATOM      5  H4  LEU d          25.722  30.346  20.034  0.00  0.00     0.101 H 
BRANCH   4   6
ATOM      6  N   LEU d          27.152  30.132  18.505  0.00  0.00    -0.065 N 
ATOM      7  H1  LEU d          27.460  30.757  17.776  0.00  0.00     0.275 HD
ATOM      8  H2  LEU d          26.462  29.498  18.134  0.00  0.00     0.275 HD
ATOM      9  H3  LEU d          27.940  29.606  18.852  0.00  0.00     0.275 HD
ENDBRANCH   4   6
BRANCH   4  10
ATOM     10  C   LEU d          26.065  32.255  19.115  0.00  0.00     0.204 C 
ATOM     11  O   LEU d          24.832  32.521  19.038  0.00  0.00    -0.646 OA
ATOM     12  OXT LEU d          26.888  33.141  18.845  0.00  0.00    -0.646 OA
ENDBRANCH   4  10
ENDBRANCH   1   4
BRANCH   1  13
ATOM     13  CG  LEU d          27.086  31.472  22.098  0.00  0.00    -0.059 C 
ATOM     14  H7  LEU d          26.102  30.989  22.190  0.00  0.00     0.038 H 
BRANCH  13  15
ATOM     15  CD1 LEU d          28.034  30.841  23.186  0.00  0.00    -0.073 C 
ATOM     16  H8  LEU d          27.605  31.004  24.185  0.00  0.00     0.028 H 
ATOM     17  H9  LEU d          29.024  31.316  23.129  0.00  0.00     0.028 H 
ATOM     18  H10 LEU d          28.135  29.761  23.002  0.00  0.00     0.028 H 
ENDBRANCH  13  15
BRANCH  13  19
ATOM     19  CD2 LEU d          26.893  32.957  22.337  0.00  0.00    -0.073 C 
ATOM     20  H11 LEU d          26.043  33.112  23.017  0.00  0.00     0.028 H 
ATOM     21  H12 LEU d          26.691  33.459  21.379  0.00  0.00     0.028 H 
ATOM     22  H13 LEU d          27.804  33.378  22.787  0.00  0.00     0.028 H 
ENDBRANCH  13  19
ENDBRANCH   1  13
TORSDOF 6
ENDMDL
MODEL 6
REMARK VINA RESULT:      -4.0      3.191      4.142
REMARK  6 active torsions:
REMARK  status: ('A' for Active; 'I' for Inactive)
REMARK    1  A    between atoms: N_1  and  CA_2 
REMARK    2  A    between atoms: CA_2  and  C_3 
REMARK    3  A    between atoms: CA_2  and  CB_5 
REMARK    4  A    between atoms: CB_5  and  CG_6 
REMARK    5  A    between atoms: CG_6  and  CD1_7 
REMARK    6  A    between atoms: CG_6  and  CD2_8 
ROOT
ATOM      1  CB  LEU d          27.712  32.071  20.072  0.00  0.00    -0.026 C 
ATOM      2  H5  LEU d          28.189  31.533  20.904  0.00  0.00     0.037 H 
ATOM      3  H6  LEU d          28.453  32.249  19.278  0.00  0.00     0.037 H 
ENDROOT
BRANCH   1   4
ATOM      4  CA  LEU d          27.261  33.441  20.602  0.00  0.00     0.182 C 
ATOM      5  H4  LEU d          26.270  33.689  20.193  0.00  0.00     0.101 H 
BRANCH   4   6
ATOM      6  N   LEU d          28.216  34.489  20.204  0.00  0.00    -0.065 N 
ATOM      7  H1  LEU d          28.519  34.326  19.256  0.00  0.00     0.275 HD
ATOM      8  H2  LEU d          29.014  34.469  20.820  0.00  0.00     0.275 HD
ATOM      9  H3  LEU d          27.769  35.392  20.263  0.00  0.00     0.275 HD
ENDBRANCH   4   6
BRANCH   4  10
ATOM     10  C   LEU d          27.173  33.324  22.106  0.00  0.00     0.204 C 
ATOM     11  O   LEU d          27.680  32.348  22.728  0.00  0.00    -0.646 OA
ATOM     12  OXT LEU d          26.647  34.241  22.753  0.00  0.00    -0.646 OA
ENDBRANCH   4  10
ENDBRANCH   1   4
BRANCH   1  13
ATOM     13  CG  LEU d          26.630  31.164  19.497  0.00  0.00    -0.059 C 
ATOM     14  H7  LEU d          26.383  30.412  20.261  0.00  0.00     0.038 H 
BRANCH  13  15
ATOM     15  CD1 LEU d          25.320  31.979  19.185  0.00  0.00    -0.073 C 
ATOM     16  H8  LEU d          24.505  31.283  18.938  0.00  0.00     0.028 H 
ATOM     17  H9  LEU d          25.500  32.650  18.333  0.00  0.00     0.028 H 
ATOM     18  H10 LEU d          25.039  32.574  20.067  0.00  0.00     0.028 H 
ENDBRANCH  13  15
BRANCH  13  19
ATOM     19  CD2 LEU d          27.119  30.423  18.266  0.00  0.00    -0.073 C 
ATOM     20  H11 LEU d          27.143  29.343  18.473  0.00  0.00     0.028 H 
ATOM     21  H12 LEU d          28.130  30.769  18.008  0.00  0.00     0.028 H 
ATOM     22  H13 LEU d          26.437  30.620  17.425  0.00  0.00     0.028 H 
ENDBRANCH  13  19
ENDBRANCH   1  13
TORSDOF 6
ENDMDL
MODEL 7
REMARK VINA RESULT:      -3.5      2.895      4.127
REMARK  6 active torsions:
REMARK  status: ('A' for Active; 'I' for Inactive)
REMARK    1  A    between atoms: N_1  and  CA_2 
REMARK    2  A    between atoms: CA_2  and  C_3 
REMARK    3  A    between atoms: CA_2  and  CB_5 
REMARK    4  A    between atoms: CB_5  and  CG_6 
REMARK    5  A    between atoms: CG_6  and  CD1_7 
REMARK    6  A    between atoms: CG_6  and  CD2_8 
ROOT
ATOM      1  CB  LEU d          27.818  31.924  19.778  0.00  0.00    -0.026 C 
ATOM      2  H5  LEU d          28.005  30.947  20.247  0.00  0.00     0.037 H 
ATOM      3  H6  LEU d          28.736  32.274  19.282  0.00  0.00     0.037 H 
ENDROOT
BRANCH   1   4
ATOM      4  CA  LEU d          27.487  32.921  20.900  0.00  0.00     0.182 C 
ATOM      5  H4  LEU d          26.507  33.383  20.708  0.00  0.00     0.101 H 
BRANCH   4   6
ATOM      6  N   LEU d          28.508  33.981  20.968  0.00  0.00    -0.065 N 
ATOM      7  H1  LEU d          28.203  34.700  21.605  0.00  0.00     0.275 HD
ATOM      8  H2  LEU d          28.641  34.378  20.051  0.00  0.00     0.275 HD
ATOM      9  H3  LEU d          29.377  33.589  21.295  0.00  0.00     0.275 HD
ENDBRANCH   4   6
BRANCH   4  10
ATOM     10  C   LEU d          27.431  32.133  22.188  0.00  0.00     0.204 C 
ATOM     11  O   LEU d          28.031  32.518  23.231  0.00  0.00    -0.646 OA
ATOM     12  OXT LEU d          26.725  31.116  22.243  0.00  0.00    -0.646 OA
ENDBRANCH   4  10
ENDBRANCH   1   4
BRANCH   1  13
ATOM     13  CG  LEU d          26.759  31.722  18.700  0.00  0.00    -0.059 C 
ATOM     14  H7  LEU d          27.098  32.249  17.796  0.00  0.00     0.038 H 
BRANCH  13  15
ATOM     15  CD1 LEU d          26.609  30.197  18.338  0.00  0.00    -0.073 C 
ATOM     16  H8  LEU d          27.141  29.589  19.084  0.00  0.00     0.028 H 
ATOM     17  H9  LEU d          27.037  30.013  17.342  0.00  0.00     0.028 H 
ATOM     18  H10 LEU d          25.543  29.924  18.335  0.00  0.00     0.028 H 
ENDBRANCH  13  15
BRANCH  13  19
ATOM     19  CD2 LEU d          25.427  32.321  19.108  0.00  0.00    -0.073 C 
ATOM     20  H11 LEU d          24.810  31.550  19.591  0.00  0.00     0.028 H 
ATOM     21  H12 LEU d          24.907  32.701  18.217  0.00  0.00     0.028 H 
ATOM     22  H13 LEU d          25.598  33.148  19.814  0.00  0.00     0.028 H 
ENDBRANCH  13  19
ENDBRANCH   1  13
TORSDOF 6
ENDMDL
