MODEL 1
REMARK VINA RESULT:      -8.8      0.000      0.000
REMARK  8 active torsions:
REMARK  status: ('A' for Active; 'I' for Inactive)
REMARK    1  A    between atoms: O6_1  and  C6_2 
REMARK    2  A    between atoms: C6_2  and  C5_3 
REMARK    3  A    between atoms: C4_4  and  O4_5 
REMARK    4  A    between atoms: C3_6  and  O3_7 
REMARK    5  A    between atoms: C2_8  and  O2_9 
REMARK    6  A    between atoms: C7_12  and  C9_15 
REMARK    7  A    between atoms: C9_15  and  C10_16 
REMARK    8  A    between atoms: C10_16  and  C14_17 
ROOT
ATOM      1  C5  PGI d          -2.335  10.445   8.667  0.00  0.00     0.065 C 
ATOM      2  C4  PGI d          -1.125  10.607   7.731  0.00  0.00     0.085 C 
ATOM      3  C3  PGI d          -0.194  11.686   8.321  0.00  0.00     0.093 C 
ATOM      4  C2  PGI d           0.426  11.237   9.636  0.00  0.00     0.119 C 
ATOM      5  N1  PGI d          -1.759  10.023   9.971  0.00  0.00    -0.332 N 
ATOM      6  C8  PGI d          -2.293   9.184  10.875  0.00  0.00     0.005 A 
ATOM      7  C7  PGI d          -1.356   9.057  11.889  0.00  0.00     0.052 A 
ATOM      8  N2  PGI d          -0.295   9.805  11.560  0.00  0.00    -0.235 NA
ATOM      9  C1  PGI d          -0.543  10.396  10.391  0.00  0.00     0.138 A 
ATOM     10  H4  PGI d          -2.831  11.420   8.786  0.00  0.00     0.080 H 
ATOM     11  H5  PGI d          -0.581   9.652   7.685  0.00  0.00     0.090 H 
ATOM     12  H7  PGI d          -0.807  12.581   8.501  0.00  0.00     0.091 H 
ATOM     13  H9  PGI d           1.296  10.605   9.408  0.00  0.00     0.099 H 
ATOM     14  H11 PGI d          -3.267   8.700  10.821  0.00  0.00     0.114 H 
ENDROOT
BRANCH   7  15
ATOM     15  C9  PGI d          -1.485   8.253  13.162  0.00  0.00    -0.020 C 
ATOM     16  H12 PGI d          -2.415   8.533  13.678  0.00  0.00     0.042 H 
ATOM     17  H13 PGI d          -0.625   8.464  13.816  0.00  0.00     0.042 H 
BRANCH  15  18
ATOM     18  C10 PGI d          -1.517   6.759  12.832  0.00  0.00    -0.036 C 
ATOM     19  H14 PGI d          -2.262   6.606  12.038  0.00  0.00     0.040 H 
ATOM     20  H15 PGI d          -1.831   6.220  13.738  0.00  0.00     0.040 H 
BRANCH  18  21
ATOM     21  C14 PGI d          -0.196   6.150  12.360  0.00  0.00    -0.058 A 
ATOM     22  C13 PGI d           0.801   5.797  13.285  0.00  0.00    -0.077 A 
ATOM     23  C12 PGI d           2.014   5.219  12.868  0.00  0.00    -0.082 A 
ATOM     24  H16 PGI d           0.633   5.974  14.341  0.00  0.00     0.084 H 
ATOM     25  C11 PGI d           2.247   4.963  11.513  0.00  0.00    -0.083 A 
ATOM     26  H17 PGI d           2.773   4.970  13.602  0.00  0.00     0.083 H 
ATOM     27  C16 PGI d           1.251   5.314  10.592  0.00  0.00    -0.082 A 
ATOM     28  H20 PGI d           3.173   4.506  11.183  0.00  0.00     0.083 H 
ATOM     29  C15 PGI d           0.037   5.894  11.003  0.00  0.00    -0.077 A 
ATOM     30  H19 PGI d           1.420   5.133   9.536  0.00  0.00     0.083 H 
ATOM     31  H18 PGI d          -0.719   6.143  10.267  0.00  0.00     0.084 H 
ENDBRANCH  18  21
ENDBRANCH  15  18
ENDBRANCH   7  15
BRANCH   1  32
ATOM     32  C6  PGI d          -3.375   9.453   8.156  0.00  0.00     0.038 C 
ATOM     33  H2  PGI d          -4.322   9.640   8.684  0.00  0.00     0.077 H 
ATOM     34  H3  PGI d          -3.516   9.622   7.078  0.00  0.00     0.077 H 
BRANCH  32  35
ATOM     35  O6  PGI d          -3.007   8.082   8.358  0.00  0.00    -0.399 OA
ATOM     36  H1  PGI d          -2.946   7.905   9.289  0.00  0.00     0.209 HD
ENDBRANCH  32  35
ENDBRANCH   1  32
BRANCH   4  37
ATOM     37  O2  PGI d           0.904  12.372  10.344  0.00  0.00    -0.385 OA
ATOM     38  H10 PGI d           0.323  12.557  11.073  0.00  0.00     0.210 HD
ENDBRANCH   4  37
BRANCH   2  39
ATOM     39  O4  PGI d          -1.535  10.959   6.405  0.00  0.00    -0.391 OA
ATOM     40  H6  PGI d          -2.238  10.382   6.128  0.00  0.00     0.210 HD
ENDBRANCH   2  39
BRANCH   3  41
ATOM     41  O3  PGI d           0.903  12.053   7.485  0.00  0.00    -0.390 OA
ATOM     42  H8  PGI d           1.123  12.965   7.635  0.00  0.00     0.210 HD
ENDBRANCH   3  41
TORSDOF 8
ENDMDL
MODEL 2
REMARK VINA RESULT:      -6.9      1.656      3.983
REMARK  8 active torsions:
REMARK  status: ('A' for Active; 'I' for Inactive)
REMARK    1  A    between atoms: O6_1  and  C6_2 
REMARK    2  A    between atoms: C6_2  and  C5_3 
REMARK    3  A    between atoms: C4_4  and  O4_5 
REMARK    4  A    between atoms: C3_6  and  O3_7 
REMARK    5  A    between atoms: C2_8  and  O2_9 
REMARK    6  A    between atoms: C7_12  and  C9_15 
REMARK    7  A    between atoms: C9_15  and  C10_16 
REMARK    8  A    between atoms: C10_16  and  C14_17 
ROOT
ATOM      1  C5  PGI d          -0.184  10.340   8.977  0.00  0.00     0.065 C 
ATOM      2  C4  PGI d          -1.626  10.851   9.144  0.00  0.00     0.085 C 
ATOM      3  C3  PGI d          -2.581   9.845   8.469  0.00  0.00     0.093 C 
ATOM      4  C2  PGI d          -2.587   8.505   9.191  0.00  0.00     0.119 C 
ATOM      5  N1  PGI d          -0.163   9.020   9.658  0.00  0.00    -0.332 N 
ATOM      6  C8  PGI d           0.849   8.463  10.345  0.00  0.00     0.005 A 
ATOM      7  C7  PGI d           0.368   7.262  10.842  0.00  0.00     0.052 A 
ATOM      8  N2  PGI d          -0.908   7.141  10.453  0.00  0.00    -0.235 NA
ATOM      9  C1  PGI d          -1.230   8.213   9.728  0.00  0.00     0.138 A 
ATOM     10  H4  PGI d           0.026  10.203   7.906  0.00  0.00     0.080 H 
ATOM     11  H5  PGI d          -1.862  10.904  10.218  0.00  0.00     0.090 H 
ATOM     12  H7  PGI d          -2.221   9.696   7.441  0.00  0.00     0.091 H 
ATOM     13  H9  PGI d          -3.268   8.581  10.051  0.00  0.00     0.099 H 
ATOM     14  H11 PGI d           1.848   8.874  10.484  0.00  0.00     0.114 H 
ENDROOT
BRANCH   7  15
ATOM     15  C9  PGI d           1.124   6.235  11.654  0.00  0.00    -0.020 C 
ATOM     16  H12 PGI d           1.857   6.746  12.295  0.00  0.00     0.042 H 
ATOM     17  H13 PGI d           1.647   5.545  10.976  0.00  0.00     0.042 H 
BRANCH  15  18
ATOM     18  C10 PGI d           0.148   5.444  12.530  0.00  0.00    -0.036 C 
ATOM     19  H14 PGI d           0.739   4.872  13.259  0.00  0.00     0.040 H 
ATOM     20  H15 PGI d          -0.402   4.750  11.878  0.00  0.00     0.040 H 
BRANCH  18  21
ATOM     21  C14 PGI d          -0.878   6.273  13.304  0.00  0.00    -0.058 A 
ATOM     22  C13 PGI d          -2.214   5.849  13.401  0.00  0.00    -0.077 A 
ATOM     23  C12 PGI d          -3.166   6.590  14.125  0.00  0.00    -0.082 A 
ATOM     24  H16 PGI d          -2.518   4.932  12.909  0.00  0.00     0.084 H 
ATOM     25  C11 PGI d          -2.794   7.766  14.785  0.00  0.00    -0.083 A 
ATOM     26  H17 PGI d          -4.194   6.247  14.172  0.00  0.00     0.083 H 
ATOM     27  C16 PGI d          -1.461   8.186  14.688  0.00  0.00    -0.082 A 
ATOM     28  H20 PGI d          -3.517   8.337  15.356  0.00  0.00     0.083 H 
ATOM     29  C15 PGI d          -0.506   7.451  13.965  0.00  0.00    -0.077 A 
ATOM     30  H19 PGI d          -1.158   9.102  15.184  0.00  0.00     0.083 H 
ATOM     31  H18 PGI d           0.521   7.795  13.918  0.00  0.00     0.084 H 
ENDBRANCH  18  21
ENDBRANCH  15  18
ENDBRANCH   7  15
BRANCH   1  32
ATOM     32  C6  PGI d           0.869  11.289   9.540  0.00  0.00     0.038 C 
ATOM     33  H2  PGI d           1.760  10.700   9.806  0.00  0.00     0.077 H 
ATOM     34  H3  PGI d           1.131  12.020   8.760  0.00  0.00     0.077 H 
BRANCH  32  35
ATOM     35  O6  PGI d           0.433  12.004  10.704  0.00  0.00    -0.399 OA
ATOM     36  H1  PGI d           0.753  12.897  10.665  0.00  0.00     0.209 HD
ENDBRANCH  32  35
ENDBRANCH   1  32
BRANCH   4  37
ATOM     37  O2  PGI d          -3.110   7.507   8.326  0.00  0.00    -0.385 OA
ATOM     38  H10 PGI d          -2.718   7.597   7.466  0.00  0.00     0.210 HD
ENDBRANCH   4  37
BRANCH   2  39
ATOM     39  O4  PGI d          -1.785  12.158   8.581  0.00  0.00    -0.391 OA
ATOM     40  H6  PGI d          -1.034  12.694   8.809  0.00  0.00     0.210 HD
ENDBRANCH   2  39
BRANCH   3  41
ATOM     41  O3  PGI d          -3.945  10.258   8.414  0.00  0.00    -0.390 OA
ATOM     42  H8  PGI d          -4.106  10.709   7.593  0.00  0.00     0.210 HD
ENDBRANCH   3  41
TORSDOF 8
ENDMDL
MODEL 3
REMARK VINA RESULT:      -6.7      1.150      3.091
REMARK  8 active torsions:
REMARK  status: ('A' for Active; 'I' for Inactive)
REMARK    1  A    between atoms: O6_1  and  C6_2 
REMARK    2  A    between atoms: C6_2  and  C5_3 
REMARK    3  A    between atoms: C4_4  and  O4_5 
REMARK    4  A    between atoms: C3_6  and  O3_7 
REMARK    5  A    between atoms: C2_8  and  O2_9 
REMARK    6  A    between atoms: C7_12  and  C9_15 
REMARK    7  A    between atoms: C9_15  and  C10_16 
REMARK    8  A    between atoms: C10_16  and  C14_17 
ROOT
ATOM      1  C5  PGI d           0.090  10.312   9.276  0.00  0.00     0.065 C 
ATOM      2  C4  PGI d          -0.965  11.041   8.425  0.00  0.00     0.085 C 
ATOM      3  C3  PGI d          -1.916   9.987   7.821  0.00  0.00     0.093 C 
ATOM      4  C2  PGI d          -2.739   9.291   8.895  0.00  0.00     0.119 C 
ATOM      5  N1  PGI d          -0.686   9.605  10.327  0.00  0.00    -0.332 N 
ATOM      6  C8  PGI d          -0.329   9.377  11.602  0.00  0.00     0.005 A 
ATOM      7  C7  PGI d          -1.406   8.740  12.200  0.00  0.00     0.052 A 
ATOM      8  N2  PGI d          -2.371   8.620  11.280  0.00  0.00    -0.235 NA
ATOM      9  C1  PGI d          -1.930   9.144  10.137  0.00  0.00     0.138 A 
ATOM     10  H4  PGI d           0.612   9.575   8.648  0.00  0.00     0.080 H 
ATOM     11  H5  PGI d          -1.543  11.714   9.075  0.00  0.00     0.090 H 
ATOM     12  H7  PGI d          -1.291   9.241   7.308  0.00  0.00     0.091 H 
ATOM     13  H9  PGI d          -3.598   9.932   9.141  0.00  0.00     0.099 H 
ATOM     14  H11 PGI d           0.618   9.639  12.072  0.00  0.00     0.114 H 
ENDROOT
BRANCH   7  15
ATOM     15  C9  PGI d          -1.500   8.236  13.622  0.00  0.00    -0.020 C 
ATOM     16  H12 PGI d          -2.071   7.296  13.638  0.00  0.00     0.042 H 
ATOM     17  H13 PGI d          -2.012   8.986  14.243  0.00  0.00     0.042 H 
BRANCH  15  18
ATOM     18  C10 PGI d          -0.096   7.988  14.180  0.00  0.00    -0.036 C 
ATOM     19  H14 PGI d          -0.149   8.078  15.275  0.00  0.00     0.040 H 
ATOM     20  H15 PGI d           0.568   8.767  13.779  0.00  0.00     0.040 H 
BRANCH  18  21
ATOM     21  C14 PGI d           0.523   6.629  13.850  0.00  0.00    -0.058 A 
ATOM     22  C13 PGI d           1.177   6.418  12.624  0.00  0.00    -0.077 A 
ATOM     23  C12 PGI d           1.768   5.180  12.314  0.00  0.00    -0.082 A 
ATOM     24  H16 PGI d           1.226   7.226  11.903  0.00  0.00     0.084 H 
ATOM     25  C11 PGI d           1.734   4.128  13.236  0.00  0.00    -0.083 A 
ATOM     26  H17 PGI d           2.253   5.040  11.354  0.00  0.00     0.083 H 
ATOM     27  C16 PGI d           1.084   4.341  14.459  0.00  0.00    -0.082 A 
ATOM     28  H20 PGI d           2.198   3.175  13.011  0.00  0.00     0.083 H 
ATOM     29  C15 PGI d           0.489   5.576  14.774  0.00  0.00    -0.077 A 
ATOM     30  H19 PGI d           1.038   3.533  15.181  0.00  0.00     0.083 H 
ATOM     31  H18 PGI d           0.004   5.714  15.733  0.00  0.00     0.084 H 
ENDBRANCH  18  21
ENDBRANCH  15  18
ENDBRANCH   7  15
BRANCH   1  32
ATOM     32  C6  PGI d           1.142  11.241   9.872  0.00  0.00     0.038 C 
ATOM     33  H2  PGI d           1.432  10.850  10.858  0.00  0.00     0.077 H 
ATOM     34  H3  PGI d           2.019  11.247   9.207  0.00  0.00     0.077 H 
BRANCH  32  35
ATOM     35  O6  PGI d           0.688  12.592  10.036  0.00  0.00    -0.399 OA
ATOM     36  H1  PGI d           1.012  12.936  10.860  0.00  0.00     0.209 HD
ENDBRANCH  32  35
ENDBRANCH   1  32
BRANCH   4  37
ATOM     37  O2  PGI d          -3.256   8.074   8.377  0.00  0.00    -0.385 OA
ATOM     38  H10 PGI d          -2.635   7.373   8.537  0.00  0.00     0.210 HD
ENDBRANCH   4  37
BRANCH   2  39
ATOM     39  O4  PGI d          -0.353  11.823   7.393  0.00  0.00    -0.391 OA
ATOM     40  H6  PGI d           0.499  11.458   7.182  0.00  0.00     0.210 HD
ENDBRANCH   2  39
BRANCH   3  41
ATOM     41  O3  PGI d          -2.863  10.501   6.885  0.00  0.00    -0.390 OA
ATOM     42  H8  PGI d          -3.742  10.306   7.186  0.00  0.00     0.210 HD
ENDBRANCH   3  41
TORSDOF 8
ENDMDL
MODEL 4
REMARK VINA RESULT:      -6.5      3.143      6.122
REMARK  8 active torsions:
REMARK  status: ('A' for Active; 'I' for Inactive)
REMARK    1  A    between atoms: O6_1  and  C6_2 
REMARK    2  A    between atoms: C6_2  and  C5_3 
REMARK    3  A    between atoms: C4_4  and  O4_5 
REMARK    4  A    between atoms: C3_6  and  O3_7 
REMARK    5  A    between atoms: C2_8  and  O2_9 
REMARK    6  A    between atoms: C7_12  and  C9_15 
REMARK    7  A    between atoms: C9_15  and  C10_16 
REMARK    8  A    between atoms: C10_16  and  C14_17 
ROOT
ATOM      1  C5  PGI d           1.003   6.089  11.016  0.00  0.00     0.065 C 
ATOM      2  C4  PGI d           0.767   5.544  12.435  0.00  0.00     0.085 C 
ATOM      3  C3  PGI d           0.661   6.739  13.404  0.00  0.00     0.093 C 
ATOM      4  C2  PGI d          -0.579   7.578  13.130  0.00  0.00     0.119 C 
ATOM      5  N1  PGI d          -0.187   6.931  10.724  0.00  0.00    -0.332 N 
ATOM      6  C8  PGI d          -0.801   7.107   9.543  0.00  0.00     0.005 A 
ATOM      7  C7  PGI d          -1.893   7.925   9.790  0.00  0.00     0.052 A 
ATOM      8  N2  PGI d          -1.908   8.200  11.100  0.00  0.00    -0.235 NA
ATOM      9  C1  PGI d          -0.864   7.596  11.669  0.00  0.00     0.138 A 
ATOM     10  H4  PGI d           1.905   6.720  11.018  0.00  0.00     0.080 H 
ATOM     11  H5  PGI d          -0.181   4.987  12.449  0.00  0.00     0.090 H 
ATOM     12  H7  PGI d           1.555   7.361  13.252  0.00  0.00     0.091 H 
ATOM     13  H9  PGI d          -1.436   7.096  13.623  0.00  0.00     0.099 H 
ATOM     14  H11 PGI d          -0.502   6.691   8.582  0.00  0.00     0.114 H 
ENDROOT
BRANCH   7  15
ATOM     15  C9  PGI d          -2.891   8.453   8.786  0.00  0.00    -0.020 C 
ATOM     16  H12 PGI d          -3.888   8.051   9.016  0.00  0.00     0.042 H 
ATOM     17  H13 PGI d          -2.594   8.138   7.775  0.00  0.00     0.042 H 
BRANCH  15  18
ATOM     18  C10 PGI d          -2.933   9.982   8.849  0.00  0.00    -0.036 C 
ATOM     19  H14 PGI d          -3.446  10.266   9.780  0.00  0.00     0.040 H 
ATOM     20  H15 PGI d          -3.515  10.339   7.986  0.00  0.00     0.040 H 
BRANCH  18  21
ATOM     21  C14 PGI d          -1.578  10.690   8.825  0.00  0.00    -0.058 A 
ATOM     22  C13 PGI d          -0.895  10.969  10.021  0.00  0.00    -0.077 A 
ATOM     23  C12 PGI d           0.362  11.602  10.015  0.00  0.00    -0.082 A 
ATOM     24  H16 PGI d          -1.345  10.691  10.967  0.00  0.00     0.084 H 
ATOM     25  C11 PGI d           0.971  11.954   8.806  0.00  0.00    -0.083 A 
ATOM     26  H17 PGI d           0.860  11.820  10.954  0.00  0.00     0.083 H 
ATOM     27  C16 PGI d           0.289  11.673   7.615  0.00  0.00    -0.082 A 
ATOM     28  H20 PGI d           1.944  12.431   8.791  0.00  0.00     0.083 H 
ATOM     29  C15 PGI d          -0.967  11.042   7.615  0.00  0.00    -0.077 A 
ATOM     30  H19 PGI d           0.742  11.950   6.669  0.00  0.00     0.083 H 
ATOM     31  H18 PGI d          -1.465  10.827   6.676  0.00  0.00     0.084 H 
ENDBRANCH  18  21
ENDBRANCH  15  18
ENDBRANCH   7  15
BRANCH   1  32
ATOM     32  C6  PGI d           1.202   5.000   9.967  0.00  0.00     0.038 C 
ATOM     33  H2  PGI d           0.304   4.364   9.953  0.00  0.00     0.077 H 
ATOM     34  H3  PGI d           1.326   5.481   8.985  0.00  0.00     0.077 H 
BRANCH  32  35
ATOM     35  O6  PGI d           2.344   4.168  10.214  0.00  0.00    -0.399 OA
ATOM     36  H1  PGI d           2.887   4.139   9.435  0.00  0.00     0.209 HD
ENDBRANCH  32  35
ENDBRANCH   1  32
BRANCH   4  37
ATOM     37  O2  PGI d          -0.420   8.860  13.719  0.00  0.00    -0.385 OA
ATOM     38  H10 PGI d          -0.239   8.761  14.647  0.00  0.00     0.210 HD
ENDBRANCH   4  37
BRANCH   2  39
ATOM     39  O4  PGI d           1.819   4.657  12.835  0.00  0.00    -0.391 OA
ATOM     40  H6  PGI d           1.871   4.637  13.783  0.00  0.00     0.210 HD
ENDBRANCH   2  39
BRANCH   3  41
ATOM     41  O3  PGI d           0.588   6.386  14.785  0.00  0.00    -0.390 OA
ATOM     42  H8  PGI d           0.186   5.529  14.871  0.00  0.00     0.210 HD
ENDBRANCH   3  41
TORSDOF 8
ENDMDL
MODEL 5
REMARK VINA RESULT:      -6.0      2.286      3.639
REMARK  8 active torsions:
REMARK  status: ('A' for Active; 'I' for Inactive)
REMARK    1  A    between atoms: O6_1  and  C6_2 
REMARK    2  A    between atoms: C6_2  and  C5_3 
REMARK    3  A    between atoms: C4_4  and  O4_5 
REMARK    4  A    between atoms: C3_6  and  O3_7 
REMARK    5  A    between atoms: C2_8  and  O2_9 
REMARK    6  A    between atoms: C7_12  and  C9_15 
REMARK    7  A    between atoms: C9_15  and  C10_16 
REMARK    8  A    between atoms: C10_16  and  C14_17 
ROOT
ATOM      1  C5  PGI d          -0.541   7.738   9.087  0.00  0.00     0.065 C 
ATOM      2  C4  PGI d          -0.108   9.164   8.702  0.00  0.00     0.085 C 
ATOM      3  C3  PGI d          -0.870  10.163   9.596  0.00  0.00     0.093 C 
ATOM      4  C2  PGI d          -0.454  10.042  11.056  0.00  0.00     0.119 C 
ATOM      5  N1  PGI d          -0.163   7.595  10.517  0.00  0.00    -0.332 N 
ATOM      6  C8  PGI d           0.272   6.492  11.148  0.00  0.00     0.005 A 
ATOM      7  C7  PGI d           0.552   6.873  12.451  0.00  0.00     0.052 A 
ATOM      8  N2  PGI d           0.293   8.182  12.558  0.00  0.00    -0.235 NA
ATOM      9  C1  PGI d          -0.147   8.621  11.378  0.00  0.00     0.138 A 
ATOM     10  H4  PGI d          -1.634   7.655   8.987  0.00  0.00     0.080 H 
ATOM     11  H5  PGI d           0.971   9.270   8.886  0.00  0.00     0.090 H 
ATOM     12  H7  PGI d          -1.941   9.926   9.509  0.00  0.00     0.091 H 
ATOM     13  H9  PGI d           0.473  10.616  11.197  0.00  0.00     0.099 H 
ATOM     14  H11 PGI d           0.382   5.496  10.721  0.00  0.00     0.114 H 
ENDROOT
BRANCH   7  15
ATOM     15  C9  PGI d           1.038   5.994  13.581  0.00  0.00    -0.020 C 
ATOM     16  H12 PGI d           1.059   6.577  14.513  0.00  0.00     0.042 H 
ATOM     17  H13 PGI d           2.051   5.631  13.353  0.00  0.00     0.042 H 
BRANCH  15  18
ATOM     18  C10 PGI d           0.097   4.799  13.751  0.00  0.00    -0.036 C 
ATOM     19  H14 PGI d           0.510   4.156  14.542  0.00  0.00     0.040 H 
ATOM     20  H15 PGI d           0.080   4.246  12.800  0.00  0.00     0.040 H 
BRANCH  18  21
ATOM     21  C14 PGI d          -1.348   5.133  14.124  0.00  0.00    -0.058 A 
ATOM     22  C13 PGI d          -1.743   6.464  14.340  0.00  0.00    -0.077 A 
ATOM     23  C12 PGI d          -3.073   6.789  14.666  0.00  0.00    -0.082 A 
ATOM     24  H16 PGI d          -1.008   7.256  14.255  0.00  0.00     0.084 H 
ATOM     25  C11 PGI d          -4.043   5.786  14.763  0.00  0.00    -0.083 A 
ATOM     26  H17 PGI d          -3.347   7.823  14.842  0.00  0.00     0.083 H 
ATOM     27  C16 PGI d          -3.648   4.459  14.545  0.00  0.00    -0.082 A 
ATOM     28  H20 PGI d          -5.072   6.028  15.000  0.00  0.00     0.083 H 
ATOM     29  C15 PGI d          -2.320   4.128  14.221  0.00  0.00    -0.077 A 
ATOM     30  H19 PGI d          -4.385   3.668  14.628  0.00  0.00     0.083 H 
ATOM     31  H18 PGI d          -2.047   3.094  14.047  0.00  0.00     0.084 H 
ENDBRANCH  18  21
ENDBRANCH  15  18
ENDBRANCH   7  15
BRANCH   1  32
ATOM     32  C6  PGI d           0.089   6.653   8.220  0.00  0.00     0.038 C 
ATOM     33  H2  PGI d           0.113   7.009   7.180  0.00  0.00     0.077 H 
ATOM     34  H3  PGI d           1.116   6.478   8.573  0.00  0.00     0.077 H 
BRANCH  32  35
ATOM     35  O6  PGI d          -0.622   5.407   8.256  0.00  0.00    -0.399 OA
ATOM     36  H1  PGI d          -1.396   5.501   8.799  0.00  0.00     0.209 HD
ENDBRANCH  32  35
ENDBRANCH   1  32
BRANCH   4  37
ATOM     37  O2  PGI d          -1.447  10.636  11.879  0.00  0.00    -0.385 OA
ATOM     38  H10 PGI d          -1.803  11.401  11.443  0.00  0.00     0.210 HD
ENDBRANCH   4  37
BRANCH   2  39
ATOM     39  O4  PGI d          -0.359   9.428   7.317  0.00  0.00    -0.391 OA
ATOM     40  H6  PGI d          -1.128   8.945   7.037  0.00  0.00     0.210 HD
ENDBRANCH   2  39
BRANCH   3  41
ATOM     41  O3  PGI d          -0.683  11.536   9.256  0.00  0.00    -0.390 OA
ATOM     42  H8  PGI d          -0.072  11.601   8.531  0.00  0.00     0.210 HD
ENDBRANCH   3  41
TORSDOF 8
ENDMDL
MODEL 6
REMARK VINA RESULT:      -5.9      3.043      6.155
REMARK  8 active torsions:
REMARK  status: ('A' for Active; 'I' for Inactive)
REMARK    1  A    between atoms: O6_1  and  C6_2 
REMARK    2  A    between atoms: C6_2  and  C5_3 
REMARK    3  A    between atoms: C4_4  and  O4_5 
REMARK    4  A    between atoms: C3_6  and  O3_7 
REMARK    5  A    between atoms: C2_8  and  O2_9 
REMARK    6  A    between atoms: C7_12  and  C9_15 
REMARK    7  A    between atoms: C9_15  and  C10_16 
REMARK    8  A    between atoms: C10_16  and  C14_17 
ROOT
ATOM      1  C5  PGI d          -1.097   7.040  13.242  0.00  0.00     0.065 C 
ATOM      2  C4  PGI d           0.430   6.961  13.410  0.00  0.00     0.085 C 
ATOM      3  C3  PGI d           0.952   5.774  12.575  0.00  0.00     0.093 C 
ATOM      4  C2  PGI d           0.766   6.010  11.083  0.00  0.00     0.119 C 
ATOM      5  N1  PGI d          -1.313   7.254  11.787  0.00  0.00    -0.332 N 
ATOM      6  C8  PGI d          -2.276   7.979  11.195  0.00  0.00     0.005 A 
ATOM      7  C7  PGI d          -2.022   7.926   9.833  0.00  0.00     0.052 A 
ATOM      8  N2  PGI d          -0.919   7.189   9.653  0.00  0.00    -0.235 NA
ATOM      9  C1  PGI d          -0.489   6.776  10.845  0.00  0.00     0.138 A 
ATOM     10  H4  PGI d          -1.541   6.079  13.541  0.00  0.00     0.080 H 
ATOM     11  H5  PGI d           0.879   7.891  13.029  0.00  0.00     0.090 H 
ATOM     12  H7  PGI d           0.372   4.888  12.873  0.00  0.00     0.091 H 
ATOM     13  H9  PGI d           1.599   6.633  10.727  0.00  0.00     0.099 H 
ATOM     14  H11 PGI d          -3.093   8.505  11.687  0.00  0.00     0.114 H 
ENDROOT
BRANCH   7  15
ATOM     15  C9  PGI d          -2.835   8.550   8.722  0.00  0.00    -0.020 C 
ATOM     16  H12 PGI d          -3.865   8.166   8.764  0.00  0.00     0.042 H 
ATOM     17  H13 PGI d          -2.387   8.291   7.752  0.00  0.00     0.042 H 
BRANCH  15  18
ATOM     18  C10 PGI d          -2.853  10.072   8.884  0.00  0.00    -0.036 C 
ATOM     19  H14 PGI d          -3.341  10.303   9.842  0.00  0.00     0.040 H 
ATOM     20  H15 PGI d          -3.448  10.491   8.059  0.00  0.00     0.040 H 
BRANCH  18  21
ATOM     21  C14 PGI d          -1.488  10.762   8.874  0.00  0.00    -0.058 A 
ATOM     22  C13 PGI d          -0.796  10.998  10.074  0.00  0.00    -0.077 A 
ATOM     23  C12 PGI d           0.469  11.614  10.080  0.00  0.00    -0.082 A 
ATOM     24  H16 PGI d          -1.246  10.699  11.014  0.00  0.00     0.084 H 
ATOM     25  C11 PGI d           1.078  11.991   8.879  0.00  0.00    -0.083 A 
ATOM     26  H17 PGI d           0.974  11.798  11.022  0.00  0.00     0.083 H 
ATOM     27  C16 PGI d           0.387  11.754   7.683  0.00  0.00    -0.082 A 
ATOM     28  H20 PGI d           2.057  12.455   8.873  0.00  0.00     0.083 H 
ATOM     29  C15 PGI d          -0.878  11.139   7.670  0.00  0.00    -0.077 A 
ATOM     30  H19 PGI d           0.840  12.051   6.743  0.00  0.00     0.083 H 
ATOM     31  H18 PGI d          -1.382  10.958   6.728  0.00  0.00     0.084 H 
ENDBRANCH  18  21
ENDBRANCH  15  18
ENDBRANCH   7  15
BRANCH   1  32
ATOM     32  C6  PGI d          -1.749   8.134  14.082  0.00  0.00     0.038 C 
ATOM     33  H2  PGI d          -2.777   8.283  13.720  0.00  0.00     0.077 H 
ATOM     34  H3  PGI d          -1.773   7.800  15.130  0.00  0.00     0.077 H 
BRANCH  32  35
ATOM     35  O6  PGI d          -1.059   9.390  14.021  0.00  0.00    -0.399 OA
ATOM     36  H1  PGI d          -0.278   9.348  14.559  0.00  0.00     0.209 HD
ENDBRANCH  32  35
ENDBRANCH   1  32
BRANCH   4  37
ATOM     37  O2  PGI d           0.842   4.770  10.396  0.00  0.00    -0.385 OA
ATOM     38  H10 PGI d          -0.032   4.491  10.149  0.00  0.00     0.210 HD
ENDBRANCH   4  37
BRANCH   2  39
ATOM     39  O4  PGI d           0.797   6.813  14.787  0.00  0.00    -0.391 OA
ATOM     40  H6  PGI d           0.330   6.075  15.161  0.00  0.00     0.210 HD
ENDBRANCH   2  39
BRANCH   3  41
ATOM     41  O3  PGI d           2.338   5.483  12.748  0.00  0.00    -0.390 OA
ATOM     42  H8  PGI d           2.597   4.806  12.134  0.00  0.00     0.210 HD
ENDBRANCH   3  41
TORSDOF 8
ENDMDL
