MODEL 1
REMARK VINA RESULT:     -10.2      0.000      0.000
REMARK  7 active torsions:
REMARK  status: ('A' for Active; 'I' for Inactive)
REMARK    1  A    between atoms: N12_26  and  C2_2 
REMARK       I    between atoms: C13_5  and  N12_26 
REMARK       I    between atoms: N14_27  and  C13_5 
REMARK    2  A    between atoms: C16_6  and  N14_27 
REMARK    3  A    between atoms: O22_12  and  C19_9 
REMARK    4  A    between atoms: C23_29  and  O22_12 
REMARK    5  A    between atoms: C29_31  and  C27_15 
REMARK    6  A    between atoms: N30_17  and  C31_18 
REMARK       I    between atoms: N30_17  and  C29_31 
REMARK    7  A    between atoms: C6_20  and  C7_21 
ROOT
ATOM      1  C16 BAX d         -21.153  -3.414  19.433  0.00  0.00     0.036 A 
ATOM      2  C17 BAX d         -20.365  -2.314  19.765  0.00  0.00    -0.054 A 
ATOM      3  C18 BAX d         -20.836  -1.321  20.630  0.00  0.00    -0.048 A 
ATOM      4  C19 BAX d         -22.148  -1.416  21.116  0.00  0.00     0.076 A 
ATOM      5  C20 BAX d         -22.942  -2.503  20.790  0.00  0.00    -0.048 A 
ATOM      6  C21 BAX d         -22.454  -3.498  19.953  0.00  0.00    -0.054 A 
ATOM      7  H4  BAX d         -19.369  -2.227  19.346  0.00  0.00     0.087 H 
ATOM      8  H5  BAX d         -20.198  -0.493  20.919  0.00  0.00     0.087 H 
ATOM      9  H6  BAX d         -23.947  -2.577  21.189  0.00  0.00     0.087 H 
ATOM     10  H7  BAX d         -23.082  -4.345  19.700  0.00  0.00     0.087 H 
ENDROOT
BRANCH   1  11
ATOM     11  N14 BAX d         -20.706  -4.385  18.619  0.00  0.00    -0.309 N 
ATOM     12  C13 BAX d         -19.451  -4.873  18.551  0.00  0.00     0.325 C 
ATOM     13  N12 BAX d         -19.267  -5.860  17.648  0.00  0.00    -0.309 N 
ATOM     14  O15 BAX d         -18.541  -4.454  19.287  0.00  0.00    -0.247 OA
ATOM     15  H15 BAX d         -20.062  -6.150  17.115  0.00  0.00     0.170 HD
ATOM     16  H16 BAX d         -21.377  -4.789  17.996  0.00  0.00     0.170 HD
BRANCH  13  17
ATOM     17  C2  BAX d         -18.082  -6.496  17.405  0.00  0.00     0.037 A 
ATOM     18  C1  BAX d         -17.348  -7.119  18.430  0.00  0.00    -0.041 A 
ATOM     19  C6  BAX d         -16.126  -7.759  18.160  0.00  0.00     0.071 A 
ATOM     20  H1  BAX d         -17.730  -7.107  19.444  0.00  0.00     0.088 H 
ATOM     21  C5  BAX d         -15.674  -7.787  16.847  0.00  0.00     0.049 A 
ATOM     22  C4  BAX d         -16.411  -7.195  15.796  0.00  0.00    -0.059 A 
ATOM     23 CL11 BAX d         -14.195  -8.578  16.506  0.00  0.00    -0.083 Cl
ATOM     24  C3  BAX d         -17.605  -6.552  16.095  0.00  0.00    -0.055 A 
ATOM     25  H3  BAX d         -16.050  -7.242  14.775  0.00  0.00     0.086 H 
ATOM     26  H2  BAX d         -18.175  -6.088  15.299  0.00  0.00     0.087 H 
BRANCH  19  27
ATOM     27  C7  BAX d         -15.328  -8.439  19.308  0.00  0.00     0.419 C 
ATOM     28  F8  BAX d         -14.609  -7.520  19.873  0.00  0.00    -0.166 F 
ATOM     29  F9  BAX d         -16.129  -8.977  20.228  0.00  0.00    -0.166 F 
ATOM     30  F10 BAX d         -14.458  -9.351  18.921  0.00  0.00    -0.166 F 
ENDBRANCH  19  27
ENDBRANCH  13  17
ENDBRANCH   1  11
BRANCH   4  31
ATOM     31  O22 BAX d         -22.674  -0.497  21.997  0.00  0.00    -0.311 OA
BRANCH  31  32
ATOM     32  C23 BAX d         -22.407   0.806  21.914  0.00  0.00     0.079 A 
ATOM     33  C24 BAX d         -22.035   1.547  23.026  0.00  0.00    -0.033 A 
ATOM     34  C25 BAX d         -21.746   2.902  22.843  0.00  0.00     0.006 A 
ATOM     35  H8  BAX d         -21.971   1.089  24.007  0.00  0.00     0.090 H 
ATOM     36  N26 BAX d         -21.830   3.441  21.630  0.00  0.00    -0.255 NA
ATOM     37  H9  BAX d         -21.455   3.514  23.690  0.00  0.00     0.114 H 
ATOM     38  C27 BAX d         -22.169   2.741  20.530  0.00  0.00     0.126 A 
ATOM     39  C28 BAX d         -22.459   1.383  20.654  0.00  0.00    -0.017 A 
ATOM     40  H10 BAX d         -22.720   0.791  19.784  0.00  0.00     0.091 H 
BRANCH  38  41
ATOM     41  C29 BAX d         -22.236   3.434  19.157  0.00  0.00     0.269 C 
ATOM     42  N30 BAX d         -21.789   2.709  18.129  0.00  0.00    -0.360 N 
ATOM     43  H11 BAX d         -21.442   1.781  18.267  0.00  0.00     0.162 HD
ATOM     44  O32 BAX d         -22.680   4.574  19.054  0.00  0.00    -0.266 OA
BRANCH  42  45
ATOM     45  C31 BAX d         -21.820   3.314  16.788  0.00  0.00    -0.018 C 
ATOM     46  H12 BAX d         -20.803   3.625  16.502  0.00  0.00     0.056 H 
ATOM     47  H13 BAX d         -22.482   4.192  16.796  0.00  0.00     0.056 H 
ATOM     48  H14 BAX d         -22.196   2.578  16.062  0.00  0.00     0.056 H 
ENDBRANCH  42  45
ENDBRANCH  38  41
ENDBRANCH  31  32
ENDBRANCH   4  31
TORSDOF 7
ENDMDL
