MODEL 1
REMARK VINA RESULT:     -10.5      0.000      0.000
REMARK  15 active torsions:
REMARK  status: ('A' for Active; 'I' for Inactive)
REMARK    1  A    between atoms: C10_11  and  N17_7 
REMARK    2  A    between atoms: N17_7  and  C24_8 
REMARK    3  A    between atoms: C24_8  and  C63_13 
REMARK    4  A    between atoms: C63_13  and  C64_28 
REMARK    5  A    between atoms: N40_26  and  C37_23 
REMARK    6  A    between atoms: C41_27  and  N40_26 
REMARK    7  A    between atoms: C72_36  and  C41_27 
REMARK    8  A    between atoms: C64_28  and  C65_29 
REMARK    9  A    between atoms: C65_29  and  C66_30 
REMARK   10  A    between atoms: C66_30  and  C67_31 
REMARK   11  A    between atoms: C67_31  and  C68_32 
REMARK   12  A    between atoms: C68_32  and  C69_33 
REMARK   13  A    between atoms: C69_33  and  C70_34 
REMARK   14  A    between atoms: C70_34  and  C71_35 
REMARK   15  A    between atoms: C71_35  and  C72_36 
ROOT
ATOM      1  C67 E12 d           4.744  64.799  69.076  0.00  0.00    -0.065 C 
ATOM      2  H37 E12 d           4.190  64.118  68.413  0.00  0.00     0.033 H 
ATOM      3  H38 E12 d           5.706  65.061  68.613  0.00  0.00     0.033 H 
ENDROOT
BRANCH   1   4
ATOM      4  C66 E12 d           5.017  64.085  70.381  0.00  0.00    -0.065 C 
ATOM      5  H35 E12 d           6.103  63.966  70.507  0.00  0.00     0.033 H 
ATOM      6  H36 E12 d           4.615  64.685  71.211  0.00  0.00     0.033 H 
BRANCH   4   7
ATOM      7  C65 E12 d           4.365  62.725  70.393  0.00  0.00    -0.065 C 
ATOM      8  H33 E12 d           3.279  62.851  70.518  0.00  0.00     0.033 H 
ATOM      9  H34 E12 d           4.568  62.225  69.434  0.00  0.00     0.033 H 
BRANCH   7  10
ATOM     10  C64 E12 d           4.893  61.855  71.524  0.00  0.00    -0.064 C 
ATOM     11  H31 E12 d           5.790  62.323  71.956  0.00  0.00     0.033 H 
ATOM     12  H32 E12 d           4.120  61.760  72.301  0.00  0.00     0.033 H 
BRANCH  10  13
ATOM     13  C63 E12 d           5.247  60.482  71.005  0.00  0.00    -0.043 C 
ATOM     14  H15 E12 d           5.140  60.473  69.910  0.00  0.00     0.035 H 
ATOM     15  H16 E12 d           6.290  60.255  71.273  0.00  0.00     0.035 H 
BRANCH  13  16
ATOM     16  C24 E12 d           4.326  59.406  71.610  0.00  0.00     0.083 C 
ATOM     17  H7  E12 d           4.596  58.409  71.233  0.00  0.00     0.075 H 
ATOM     18  H8  E12 d           4.391  59.413  72.709  0.00  0.00     0.075 H 
BRANCH  16  19
ATOM     19  N17 E12 d           2.914  59.797  71.148  0.00  0.00    -0.067 N 
ATOM     20  H5  E12 d           2.991  60.713  70.737  0.00  0.00     0.277 HD
ATOM     21  H6  E12 d           2.652  59.131  70.438  0.00  0.00     0.277 HD
BRANCH  19  22
ATOM     22  C10 E12 d           1.758  59.862  72.118  0.00  0.00     0.129 C 
ATOM     23  C4  E12 d           1.235  61.310  72.228  0.00  0.00    -0.005 A 
ATOM     24  C3  E12 d           1.182  61.973  73.440  0.00  0.00     0.020 A 
ATOM     25  C5  E12 d           0.671  62.012  71.038  0.00  0.00    -0.068 A 
ATOM     26  N2  E12 d           0.672  63.239  73.500  0.00  0.00    -0.327 N 
ATOM     27  C9  E12 d           1.675  61.363  74.758  0.00  0.00    -0.026 C 
ATOM     28  C1  E12 d           0.138  63.984  72.461  0.00  0.00     0.245 A 
ATOM     29  H1  E12 d           0.685  63.680  74.398  0.00  0.00     0.169 HD
ATOM     30  C6  E12 d           0.151  63.283  71.122  0.00  0.00    -0.017 A 
ATOM     31  O7  E12 d          -0.269  65.148  72.651  0.00  0.00    -0.268 OA
ATOM     32  H9  E12 d          -0.245  63.778  70.236  0.00  0.00     0.092 H 
ATOM     33  C14 E12 d           2.720  60.260  74.504  0.00  0.00    -0.058 C 
ATOM     34  H10 E12 d           0.818  60.929  75.295  0.00  0.00     0.042 H 
ATOM     35  H11 E12 d           2.130  62.153  75.372  0.00  0.00     0.042 H 
ATOM     36  C13 E12 d           2.180  59.221  73.469  0.00  0.00    -0.034 C 
ATOM     37  H3  E12 d           3.639  60.718  74.111  0.00  0.00     0.033 H 
ATOM     38  H4  E12 d           2.941  59.747  75.451  0.00  0.00     0.033 H 
ATOM     39  H13 E12 d           2.970  58.481  73.273  0.00  0.00     0.036 H 
ATOM     40  H14 E12 d           1.305  58.716  73.904  0.00  0.00     0.036 H 
ATOM     41  H2  E12 d           0.672  61.503  70.075  0.00  0.00     0.084 H 
ATOM     42  H12 E12 d           0.937  59.252  71.712  0.00  0.00     0.092 H 
ENDBRANCH  19  22
ENDBRANCH  16  19
ENDBRANCH  13  16
ENDBRANCH  10  13
ENDBRANCH   7  10
ENDBRANCH   4   7
ENDBRANCH   1   4
BRANCH   1  43
ATOM     43  C68 E12 d           3.933  66.066  69.252  0.00  0.00    -0.065 C 
ATOM     44  H39 E12 d           3.773  66.517  68.262  0.00  0.00     0.033 H 
ATOM     45  H40 E12 d           4.505  66.761  69.884  0.00  0.00     0.033 H 
BRANCH  43  46
ATOM     46  C69 E12 d           2.578  65.832  69.899  0.00  0.00    -0.065 C 
ATOM     47  H41 E12 d           2.714  65.693  70.982  0.00  0.00     0.033 H 
ATOM     48  H42 E12 d           2.123  64.928  69.468  0.00  0.00     0.033 H 
BRANCH  46  49
ATOM     49  C70 E12 d           1.655  67.015  69.661  0.00  0.00    -0.065 C 
ATOM     50  H43 E12 d           1.056  67.176  70.569  0.00  0.00     0.033 H 
ATOM     51  H44 E12 d           0.988  66.770  68.820  0.00  0.00     0.033 H 
BRANCH  49  52
ATOM     52  C71 E12 d           2.388  68.312  69.332  0.00  0.00    -0.064 C 
ATOM     53  H45 E12 d           3.443  68.076  69.130  0.00  0.00     0.033 H 
ATOM     54  H46 E12 d           2.322  68.981  70.202  0.00  0.00     0.033 H 
BRANCH  52  55
ATOM     55  C72 E12 d           1.808  69.046  68.107  0.00  0.00    -0.043 C 
ATOM     56  H47 E12 d           2.482  69.874  67.845  0.00  0.00     0.035 H 
ATOM     57  H48 E12 d           0.820  69.447  68.375  0.00  0.00     0.035 H 
BRANCH  55  58
ATOM     58  C41 E12 d           1.650  68.140  66.880  0.00  0.00     0.083 C 
ATOM     59  H29 E12 d           0.935  68.583  66.171  0.00  0.00     0.075 H 
ATOM     60  H30 E12 d           1.294  67.145  67.185  0.00  0.00     0.075 H 
BRANCH  58  61
ATOM     61  N40 E12 d           2.994  68.037  66.258  0.00  0.00    -0.067 N 
ATOM     62  H27 E12 d           3.500  67.330  66.767  0.00  0.00     0.277 HD
ATOM     63  H28 E12 d           3.445  68.930  66.383  0.00  0.00     0.277 HD
BRANCH  61  64
ATOM     64  C37 E12 d           3.105  67.688  64.786  0.00  0.00     0.129 C 
ATOM     65  C38 E12 d           3.914  68.810  64.103  0.00  0.00    -0.034 C 
ATOM     66  C39 E12 d           4.231  68.445  62.648  0.00  0.00    -0.058 C 
ATOM     67  H23 E12 d           4.857  68.959  64.650  0.00  0.00     0.036 H 
ATOM     68  H24 E12 d           3.328  69.740  64.121  0.00  0.00     0.036 H 
ATOM     69  C36 E12 d           5.112  67.184  62.596  0.00  0.00    -0.026 C 
ATOM     70  H25 E12 d           3.291  68.255  62.108  0.00  0.00     0.033 H 
ATOM     71  H26 E12 d           4.764  69.281  62.172  0.00  0.00     0.033 H 
ATOM     72  C31 E12 d           4.512  66.055  63.461  0.00  0.00     0.020 A 
ATOM     73  H20 E12 d           5.186  66.838  61.554  0.00  0.00     0.042 H 
ATOM     74  H21 E12 d           6.116  67.430  62.971  0.00  0.00     0.042 H 
ATOM     75  C32 E12 d           3.599  66.274  64.492  0.00  0.00    -0.005 A 
ATOM     76  N30 E12 d           4.913  64.780  63.190  0.00  0.00    -0.327 N 
ATOM     77  C33 E12 d           3.103  65.100  65.252  0.00  0.00    -0.068 A 
ATOM     78  C34 E12 d           3.512  63.832  64.968  0.00  0.00    -0.017 A 
ATOM     79  H18 E12 d           2.390  65.257  66.061  0.00  0.00     0.084 H 
ATOM     80  C29 E12 d           4.490  63.619  63.830  0.00  0.00     0.245 A 
ATOM     81  H19 E12 d           3.144  62.987  65.548  0.00  0.00     0.092 H 
ATOM     82  O35 E12 d           4.843  62.510  63.407  0.00  0.00    -0.268 OA
ATOM     83  H17 E12 d           5.582  64.667  62.455  0.00  0.00     0.169 HD
ATOM     84  H22 E12 d           2.087  67.732  64.373  0.00  0.00     0.092 H 
ENDBRANCH  61  64
ENDBRANCH  58  61
ENDBRANCH  55  58
ENDBRANCH  52  55
ENDBRANCH  49  52
ENDBRANCH  46  49
ENDBRANCH  43  46
ENDBRANCH   1  43
TORSDOF 15
ENDMDL
MODEL 2
REMARK VINA RESULT:     -10.3      2.405      9.658
REMARK  15 active torsions:
REMARK  status: ('A' for Active; 'I' for Inactive)
REMARK    1  A    between atoms: C10_11  and  N17_7 
REMARK    2  A    between atoms: N17_7  and  C24_8 
REMARK    3  A    between atoms: C24_8  and  C63_13 
REMARK    4  A    between atoms: C63_13  and  C64_28 
REMARK    5  A    between atoms: N40_26  and  C37_23 
REMARK    6  A    between atoms: C41_27  and  N40_26 
REMARK    7  A    between atoms: C72_36  and  C41_27 
REMARK    8  A    between atoms: C64_28  and  C65_29 
REMARK    9  A    between atoms: C65_29  and  C66_30 
REMARK   10  A    between atoms: C66_30  and  C67_31 
REMARK   11  A    between atoms: C67_31  and  C68_32 
REMARK   12  A    between atoms: C68_32  and  C69_33 
REMARK   13  A    between atoms: C69_33  and  C70_34 
REMARK   14  A    between atoms: C70_34  and  C71_35 
REMARK   15  A    between atoms: C71_35  and  C72_36 
ROOT
ATOM      1  C67 E12 d           4.256  63.233  70.363  0.00  0.00    -0.065 C 
ATOM      2  H37 E12 d           3.581  63.442  71.205  0.00  0.00     0.033 H 
ATOM      3  H38 E12 d           5.002  62.484  70.667  0.00  0.00     0.033 H 
ENDROOT
BRANCH   1   4
ATOM      4  C66 E12 d           4.978  64.510  69.995  0.00  0.00    -0.065 C 
ATOM      5  H35 E12 d           5.171  65.092  70.908  0.00  0.00     0.033 H 
ATOM      6  H36 E12 d           5.933  64.258  69.512  0.00  0.00     0.033 H 
BRANCH   4   7
ATOM      7  C65 E12 d           4.148  65.338  69.046  0.00  0.00    -0.065 C 
ATOM      8  H33 E12 d           3.243  64.772  68.777  0.00  0.00     0.033 H 
ATOM      9  H34 E12 d           3.860  66.273  69.549  0.00  0.00     0.033 H 
BRANCH   7  10
ATOM     10  C64 E12 d           4.913  65.678  67.775  0.00  0.00    -0.064 C 
ATOM     11  H31 E12 d           4.996  66.771  67.682  0.00  0.00     0.033 H 
ATOM     12  H32 E12 d           5.918  65.237  67.827  0.00  0.00     0.033 H 
BRANCH  10  13
ATOM     13  C63 E12 d           4.189  65.130  66.568  0.00  0.00    -0.043 C 
ATOM     14  H15 E12 d           4.424  64.060  66.463  0.00  0.00     0.035 H 
ATOM     15  H16 E12 d           3.106  65.254  66.711  0.00  0.00     0.035 H 
BRANCH  13  16
ATOM     16  C24 E12 d           4.616  65.866  65.285  0.00  0.00     0.083 C 
ATOM     17  H7  E12 d           5.530  65.418  64.867  0.00  0.00     0.075 H 
ATOM     18  H8  E12 d           3.814  65.833  64.533  0.00  0.00     0.075 H 
BRANCH  16  19
ATOM     19  N17 E12 d           4.878  67.313  65.733  0.00  0.00    -0.067 N 
ATOM     20  H5  E12 d           4.819  67.314  66.739  0.00  0.00     0.277 HD
ATOM     21  H6  E12 d           5.821  67.532  65.452  0.00  0.00     0.277 HD
BRANCH  19  22
ATOM     22  C10 E12 d           4.014  68.454  65.254  0.00  0.00     0.129 C 
ATOM     23  C4  E12 d           2.536  68.190  65.612  0.00  0.00    -0.005 A 
ATOM     24  C3  E12 d           1.549  68.158  64.643  0.00  0.00     0.020 A 
ATOM     25  C5  E12 d           2.105  68.061  67.034  0.00  0.00    -0.068 A 
ATOM     26  N2  E12 d           0.246  67.964  65.008  0.00  0.00    -0.327 N 
ATOM     27  C9  E12 d           1.830  68.328  63.145  0.00  0.00    -0.026 C 
ATOM     28  C1  E12 d          -0.260  67.819  66.289  0.00  0.00     0.245 A 
ATOM     29  H1  E12 d          -0.420  67.921  64.263  0.00  0.00     0.169 HD
ATOM     30  C6  E12 d           0.785  67.877  67.381  0.00  0.00    -0.017 A 
ATOM     31  O7  E12 d          -1.476  67.618  66.479  0.00  0.00    -0.268 OA
ATOM     32  H9  E12 d           0.498  67.775  68.426  0.00  0.00     0.092 H 
ATOM     33  C14 E12 d           3.284  67.950  62.807  0.00  0.00    -0.058 C 
ATOM     34  H10 E12 d           1.657  69.378  62.865  0.00  0.00     0.042 H 
ATOM     35  H11 E12 d           1.149  67.680  62.576  0.00  0.00     0.042 H 
ATOM     36  C13 E12 d           4.280  68.706  63.745  0.00  0.00    -0.034 C 
ATOM     37  H3  E12 d           3.415  66.866  62.938  0.00  0.00     0.033 H 
ATOM     38  H4  E12 d           3.494  68.221  61.762  0.00  0.00     0.033 H 
ATOM     39  H13 E12 d           5.302  68.373  63.510  0.00  0.00     0.036 H 
ATOM     40  H14 E12 d           4.193  69.785  63.550  0.00  0.00     0.036 H 
ATOM     41  H2  E12 d           2.855  68.112  67.821  0.00  0.00     0.084 H 
ATOM     42  H12 E12 d           4.319  69.363  65.793  0.00  0.00     0.092 H 
ENDBRANCH  19  22
ENDBRANCH  16  19
ENDBRANCH  13  16
ENDBRANCH  10  13
ENDBRANCH   7  10
ENDBRANCH   4   7
ENDBRANCH   1   4
BRANCH   1  43
ATOM     43  C68 E12 d           3.440  62.663  69.221  0.00  0.00    -0.065 C 
ATOM     44  H39 E12 d           4.112  62.089  68.566  0.00  0.00     0.033 H 
ATOM     45  H40 E12 d           3.002  63.498  68.655  0.00  0.00     0.033 H 
BRANCH  43  46
ATOM     46  C69 E12 d           2.316  61.749  69.678  0.00  0.00    -0.065 C 
ATOM     47  H41 E12 d           2.706  61.044  70.427  0.00  0.00     0.033 H 
ATOM     48  H42 E12 d           1.933  61.188  68.813  0.00  0.00     0.033 H 
BRANCH  46  49
ATOM     49  C70 E12 d           1.183  62.553  70.291  0.00  0.00    -0.065 C 
ATOM     50  H43 E12 d           0.294  62.442  69.653  0.00  0.00     0.033 H 
ATOM     51  H44 E12 d           1.484  63.611  70.321  0.00  0.00     0.033 H 
BRANCH  49  52
ATOM     52  C71 E12 d           0.815  62.118  71.707  0.00  0.00    -0.064 C 
ATOM     53  H45 E12 d           1.203  61.102  71.872  0.00  0.00     0.033 H 
ATOM     54  H46 E12 d          -0.282  62.111  71.797  0.00  0.00     0.033 H 
BRANCH  52  55
ATOM     55  C72 E12 d           1.388  63.044  72.797  0.00  0.00    -0.043 C 
ATOM     56  H47 E12 d           0.999  64.059  72.634  0.00  0.00     0.035 H 
ATOM     57  H48 E12 d           2.484  63.053  72.707  0.00  0.00     0.035 H 
BRANCH  55  58
ATOM     58  C41 E12 d           1.020  62.604  74.219  0.00  0.00     0.083 C 
ATOM     59  H29 E12 d           0.132  61.955  74.198  0.00  0.00     0.075 H 
ATOM     60  H30 E12 d           0.817  63.482  74.848  0.00  0.00     0.075 H 
BRANCH  58  61
ATOM     61  N40 E12 d           2.190  61.856  74.743  0.00  0.00    -0.067 N 
ATOM     62  H27 E12 d           2.328  62.156  75.695  0.00  0.00     0.277 HD
ATOM     63  H28 E12 d           2.985  62.126  74.186  0.00  0.00     0.277 HD
BRANCH  61  64
ATOM     64  C37 E12 d           2.155  60.340  74.758  0.00  0.00     0.129 C 
ATOM     65  C38 E12 d           0.737  59.913  75.189  0.00  0.00    -0.034 C 
ATOM     66  C39 E12 d           0.559  58.396  75.055  0.00  0.00    -0.058 C 
ATOM     67  H23 E12 d          -0.002  60.420  74.550  0.00  0.00     0.036 H 
ATOM     68  H24 E12 d           0.576  60.203  76.238  0.00  0.00     0.036 H 
ATOM     69  C36 E12 d           0.709  57.972  73.582  0.00  0.00    -0.026 C 
ATOM     70  H25 E12 d           1.324  57.886  75.659  0.00  0.00     0.033 H 
ATOM     71  H26 E12 d          -0.441  58.114  75.414  0.00  0.00     0.033 H 
ATOM     72  C31 E12 d           1.997  58.559  72.967  0.00  0.00     0.020 A 
ATOM     73  H20 E12 d           0.752  56.874  73.526  0.00  0.00     0.042 H 
ATOM     74  H21 E12 d          -0.159  58.334  73.013  0.00  0.00     0.042 H 
ATOM     75  C32 E12 d           2.665  59.668  73.486  0.00  0.00    -0.005 A 
ATOM     76  N30 E12 d           2.491  57.951  71.850  0.00  0.00    -0.327 N 
ATOM     77  C33 E12 d           3.892  60.136  72.794  0.00  0.00    -0.068 A 
ATOM     78  C34 E12 d           4.373  59.515  71.681  0.00  0.00    -0.017 A 
ATOM     79  H18 E12 d           4.423  61.002  73.189  0.00  0.00     0.084 H 
ATOM     80  C29 E12 d           3.639  58.301  71.148  0.00  0.00     0.245 A 
ATOM     81  H19 E12 d           5.268  59.885  71.182  0.00  0.00     0.092 H 
ATOM     82  O35 E12 d           4.042  57.591  70.217  0.00  0.00    -0.268 OA
ATOM     83  H17 E12 d           1.972  57.170  71.500  0.00  0.00     0.169 HD
ATOM     84  H22 E12 d           2.842  60.015  75.553  0.00  0.00     0.092 H 
ENDBRANCH  61  64
ENDBRANCH  58  61
ENDBRANCH  55  58
ENDBRANCH  52  55
ENDBRANCH  49  52
ENDBRANCH  46  49
ENDBRANCH  43  46
ENDBRANCH   1  43
TORSDOF 15
ENDMDL
MODEL 3
REMARK VINA RESULT:     -10.2      1.920      9.754
REMARK  15 active torsions:
REMARK  status: ('A' for Active; 'I' for Inactive)
REMARK    1  A    between atoms: C10_11  and  N17_7 
REMARK    2  A    between atoms: N17_7  and  C24_8 
REMARK    3  A    between atoms: C24_8  and  C63_13 
REMARK    4  A    between atoms: C63_13  and  C64_28 
REMARK    5  A    between atoms: N40_26  and  C37_23 
REMARK    6  A    between atoms: C41_27  and  N40_26 
REMARK    7  A    between atoms: C72_36  and  C41_27 
REMARK    8  A    between atoms: C64_28  and  C65_29 
REMARK    9  A    between atoms: C65_29  and  C66_30 
REMARK   10  A    between atoms: C66_30  and  C67_31 
REMARK   11  A    between atoms: C67_31  and  C68_32 
REMARK   12  A    between atoms: C68_32  and  C69_33 
REMARK   13  A    between atoms: C69_33  and  C70_34 
REMARK   14  A    between atoms: C70_34  and  C71_35 
REMARK   15  A    between atoms: C71_35  and  C72_36 
ROOT
ATOM      1  C67 E12 d           3.715  62.936  69.898  0.00  0.00    -0.065 C 
ATOM      2  H37 E12 d           3.305  63.343  70.834  0.00  0.00     0.033 H 
ATOM      3  H38 E12 d           4.664  62.420  70.106  0.00  0.00     0.033 H 
ENDROOT
BRANCH   1   4
ATOM      4  C66 E12 d           3.988  64.084  68.953  0.00  0.00    -0.065 C 
ATOM      5  H35 E12 d           4.703  63.757  68.183  0.00  0.00     0.033 H 
ATOM      6  H36 E12 d           3.047  64.388  68.472  0.00  0.00     0.033 H 
BRANCH   4   7
ATOM      7  C65 E12 d           4.567  65.262  69.696  0.00  0.00    -0.065 C 
ATOM      8  H33 E12 d           4.939  64.919  70.673  0.00  0.00     0.033 H 
ATOM      9  H34 E12 d           5.400  65.678  69.111  0.00  0.00     0.033 H 
BRANCH   7  10
ATOM     10  C64 E12 d           3.530  66.354  69.920  0.00  0.00    -0.064 C 
ATOM     11  H31 E12 d           2.956  66.128  70.831  0.00  0.00     0.033 H 
ATOM     12  H32 E12 d           4.041  67.321  70.040  0.00  0.00     0.033 H 
BRANCH  10  13
ATOM     13  C63 E12 d           2.589  66.430  68.742  0.00  0.00    -0.043 C 
ATOM     14  H15 E12 d           2.832  65.624  68.035  0.00  0.00     0.035 H 
ATOM     15  H16 E12 d           1.556  66.306  69.099  0.00  0.00     0.035 H 
BRANCH  13  16
ATOM     16  C24 E12 d           2.713  67.786  68.022  0.00  0.00     0.083 C 
ATOM     17  H7  E12 d           1.738  68.102  67.621  0.00  0.00     0.075 H 
ATOM     18  H8  E12 d           3.094  68.556  68.708  0.00  0.00     0.075 H 
BRANCH  16  19
ATOM     19  N17 E12 d           3.711  67.533  66.882  0.00  0.00    -0.067 N 
ATOM     20  H5  E12 d           4.356  68.307  66.891  0.00  0.00     0.277 HD
ATOM     21  H6  E12 d           4.203  66.684  67.116  0.00  0.00     0.277 HD
BRANCH  19  22
ATOM     22  C10 E12 d           3.252  67.378  65.452  0.00  0.00     0.129 C 
ATOM     23  C4  E12 d           3.730  66.026  64.882  0.00  0.00    -0.005 A 
ATOM     24  C3  E12 d           4.511  65.954  63.742  0.00  0.00     0.020 A 
ATOM     25  C5  E12 d           3.280  64.738  65.486  0.00  0.00    -0.068 A 
ATOM     26  N2  E12 d           4.878  64.735  63.246  0.00  0.00    -0.327 N 
ATOM     27  C9  E12 d           5.008  67.189  62.981  0.00  0.00    -0.026 C 
ATOM     28  C1  E12 d           4.530  63.486  63.733  0.00  0.00     0.245 A 
ATOM     29  H1  E12 d           5.467  64.746  62.437  0.00  0.00     0.169 HD
ATOM     30  C6  E12 d           3.651  63.520  64.963  0.00  0.00    -0.017 A 
ATOM     31  O7  E12 d           4.961  62.446  63.196  0.00  0.00    -0.268 OA
ATOM     32  H9  E12 d           3.318  62.594  65.430  0.00  0.00     0.092 H 
ATOM     33  C14 E12 d           5.058  68.425  63.898  0.00  0.00    -0.058 C 
ATOM     34  H10 E12 d           4.327  67.392  62.142  0.00  0.00     0.042 H 
ATOM     35  H11 E12 d           6.018  66.990  62.593  0.00  0.00     0.042 H 
ATOM     36  C13 E12 d           3.691  68.620  64.630  0.00  0.00    -0.034 C 
ATOM     37  H3  E12 d           5.852  68.288  64.646  0.00  0.00     0.033 H 
ATOM     38  H4  E12 d           5.274  69.317  63.292  0.00  0.00     0.033 H 
ATOM     39  H13 E12 d           3.779  69.478  65.313  0.00  0.00     0.036 H 
ATOM     40  H14 E12 d           2.918  68.831  63.877  0.00  0.00     0.036 H 
ATOM     41  H2  E12 d           2.639  64.762  66.366  0.00  0.00     0.084 H 
ATOM     42  H12 E12 d           2.151  67.358  65.448  0.00  0.00     0.092 H 
ENDBRANCH  19  22
ENDBRANCH  16  19
ENDBRANCH  13  16
ENDBRANCH  10  13
ENDBRANCH   7  10
ENDBRANCH   4   7
ENDBRANCH   1   4
BRANCH   1  43
ATOM     43  C68 E12 d           2.732  61.929  69.339  0.00  0.00    -0.065 C 
ATOM     44  H39 E12 d           3.286  61.025  69.050  0.00  0.00     0.033 H 
ATOM     45  H40 E12 d           2.253  62.366  68.450  0.00  0.00     0.033 H 
BRANCH  43  46
ATOM     46  C69 E12 d           1.645  61.533  70.324  0.00  0.00    -0.065 C 
ATOM     47  H41 E12 d           2.113  61.170  71.251  0.00  0.00     0.033 H 
ATOM     48  H42 E12 d           1.034  60.732  69.884  0.00  0.00     0.033 H 
BRANCH  46  49
ATOM     49  C70 E12 d           0.752  62.718  70.648  0.00  0.00    -0.065 C 
ATOM     50  H43 E12 d          -0.024  62.790  69.871  0.00  0.00     0.033 H 
ATOM     51  H44 E12 d           1.369  63.630  70.637  0.00  0.00     0.033 H 
BRANCH  49  52
ATOM     52  C71 E12 d           0.065  62.620  72.007  0.00  0.00    -0.064 C 
ATOM     53  H45 E12 d           0.177  61.591  72.380  0.00  0.00     0.033 H 
ATOM     54  H46 E12 d          -1.003  62.848  71.875  0.00  0.00     0.033 H 
BRANCH  52  55
ATOM     55  C72 E12 d           0.646  63.587  73.055  0.00  0.00    -0.043 C 
ATOM     56  H47 E12 d          -0.051  64.428  73.180  0.00  0.00     0.035 H 
ATOM     57  H48 E12 d           1.612  63.963  72.686  0.00  0.00     0.035 H 
BRANCH  55  58
ATOM     58  C41 E12 d           0.869  62.932  74.423  0.00  0.00     0.083 C 
ATOM     59  H29 E12 d           0.014  62.290  74.681  0.00  0.00     0.075 H 
ATOM     60  H30 E12 d           0.995  63.703  75.198  0.00  0.00     0.075 H 
BRANCH  58  61
ATOM     61  N40 E12 d           2.105  62.119  74.303  0.00  0.00    -0.067 N 
ATOM     62  H27 E12 d           2.759  62.476  74.981  0.00  0.00     0.277 HD
ATOM     63  H28 E12 d           2.466  62.269  73.374  0.00  0.00     0.277 HD
BRANCH  61  64
ATOM     64  C37 E12 d           2.028  60.619  74.510  0.00  0.00     0.129 C 
ATOM     65  C38 E12 d           0.582  60.282  74.932  0.00  0.00    -0.034 C 
ATOM     66  C39 E12 d           0.368  58.765  74.986  0.00  0.00    -0.058 C 
ATOM     67  H23 E12 d          -0.117  60.719  74.203  0.00  0.00     0.036 H 
ATOM     68  H24 E12 d           0.388  60.708  75.928  0.00  0.00     0.036 H 
ATOM     69  C36 E12 d           0.564  58.151  73.587  0.00  0.00    -0.026 C 
ATOM     70  H25 E12 d           1.094  58.320  75.682  0.00  0.00     0.033 H 
ATOM     71  H26 E12 d          -0.653  58.554  75.335  0.00  0.00     0.033 H 
ATOM     72  C31 E12 d           1.891  58.626  72.957  0.00  0.00     0.020 A 
ATOM     73  H20 E12 d           0.579  57.055  73.674  0.00  0.00     0.042 H 
ATOM     74  H21 E12 d          -0.271  58.456  72.940  0.00  0.00     0.042 H 
ATOM     75  C32 E12 d           2.569  59.776  73.358  0.00  0.00    -0.005 A 
ATOM     76  N30 E12 d           2.411  57.867  71.949  0.00  0.00    -0.327 N 
ATOM     77  C33 E12 d           3.834  60.125  72.665  0.00  0.00    -0.068 A 
ATOM     78  C34 E12 d           4.341  59.355  71.661  0.00  0.00    -0.017 A 
ATOM     79  H18 E12 d           4.373  61.022  72.967  0.00  0.00     0.084 H 
ATOM     80  C29 E12 d           3.595  58.099  71.257  0.00  0.00     0.245 A 
ATOM     81  H19 E12 d           5.264  59.638  71.158  0.00  0.00     0.092 H 
ATOM     82  O35 E12 d           4.015  57.266  70.443  0.00  0.00    -0.268 OA
ATOM     83  H17 E12 d           1.886  57.060  71.680  0.00  0.00     0.169 HD
ATOM     84  H22 E12 d           2.673  60.384  75.369  0.00  0.00     0.092 H 
ENDBRANCH  61  64
ENDBRANCH  58  61
ENDBRANCH  55  58
ENDBRANCH  52  55
ENDBRANCH  49  52
ENDBRANCH  46  49
ENDBRANCH  43  46
ENDBRANCH   1  43
TORSDOF 15
ENDMDL
MODEL 4
REMARK VINA RESULT:     -10.2      1.876      3.279
REMARK  15 active torsions:
REMARK  status: ('A' for Active; 'I' for Inactive)
REMARK    1  A    between atoms: C10_11  and  N17_7 
REMARK    2  A    between atoms: N17_7  and  C24_8 
REMARK    3  A    between atoms: C24_8  and  C63_13 
REMARK    4  A    between atoms: C63_13  and  C64_28 
REMARK    5  A    between atoms: N40_26  and  C37_23 
REMARK    6  A    between atoms: C41_27  and  N40_26 
REMARK    7  A    between atoms: C72_36  and  C41_27 
REMARK    8  A    between atoms: C64_28  and  C65_29 
REMARK    9  A    between atoms: C65_29  and  C66_30 
REMARK   10  A    between atoms: C66_30  and  C67_31 
REMARK   11  A    between atoms: C67_31  and  C68_32 
REMARK   12  A    between atoms: C68_32  and  C69_33 
REMARK   13  A    between atoms: C69_33  and  C70_34 
REMARK   14  A    between atoms: C70_34  and  C71_35 
REMARK   15  A    between atoms: C71_35  and  C72_36 
ROOT
ATOM      1  C67 E12 d           4.420  63.483  70.344  0.00  0.00    -0.065 C 
ATOM      2  H37 E12 d           5.335  62.876  70.404  0.00  0.00     0.033 H 
ATOM      3  H38 E12 d           3.900  63.461  71.313  0.00  0.00     0.033 H 
ENDROOT
BRANCH   1   4
ATOM      4  C66 E12 d           3.510  62.883  69.295  0.00  0.00    -0.065 C 
ATOM      5  H35 E12 d           3.100  63.689  68.668  0.00  0.00     0.033 H 
ATOM      6  H36 E12 d           4.090  62.190  68.668  0.00  0.00     0.033 H 
BRANCH   4   7
ATOM      7  C65 E12 d           2.373  62.132  69.941  0.00  0.00    -0.065 C 
ATOM      8  H33 E12 d           1.925  61.455  69.198  0.00  0.00     0.033 H 
ATOM      9  H34 E12 d           2.767  61.544  70.782  0.00  0.00     0.033 H 
BRANCH   7  10
ATOM     10  C64 E12 d           1.296  63.074  70.461  0.00  0.00    -0.064 C 
ATOM     11  H31 E12 d           1.294  63.993  69.856  0.00  0.00     0.033 H 
ATOM     12  H32 E12 d           0.315  62.582  70.382  0.00  0.00     0.033 H 
BRANCH  10  13
ATOM     13  C63 E12 d           1.563  63.426  71.904  0.00  0.00    -0.043 C 
ATOM     14  H15 E12 d           2.638  63.320  72.108  0.00  0.00     0.035 H 
ATOM     15  H16 E12 d           1.257  64.467  72.083  0.00  0.00     0.035 H 
BRANCH  13  16
ATOM     16  C24 E12 d           0.778  62.501  72.854  0.00  0.00     0.083 C 
ATOM     17  H7  E12 d          -0.124  63.006  73.229  0.00  0.00     0.075 H 
ATOM     18  H8  E12 d           0.491  61.572  72.340  0.00  0.00     0.075 H 
BRANCH  16  19
ATOM     19  N17 E12 d           1.753  62.205  74.004  0.00  0.00    -0.067 N 
ATOM     20  H5  E12 d           2.645  62.581  73.726  0.00  0.00     0.277 HD
ATOM     21  H6  E12 d           1.409  62.711  74.805  0.00  0.00     0.277 HD
BRANCH  19  22
ATOM     22  C10 E12 d           2.013  60.793  74.471  0.00  0.00     0.129 C 
ATOM     23  C4  E12 d           2.576  59.943  73.312  0.00  0.00    -0.005 A 
ATOM     24  C3  E12 d           1.952  58.782  72.893  0.00  0.00     0.020 A 
ATOM     25  C5  E12 d           3.875  60.294  72.667  0.00  0.00    -0.068 A 
ATOM     26  N2  E12 d           2.506  58.037  71.891  0.00  0.00    -0.327 N 
ATOM     27  C9  E12 d           0.639  58.265  73.495  0.00  0.00    -0.026 C 
ATOM     28  C1  E12 d           3.694  58.276  71.218  0.00  0.00     0.245 A 
ATOM     29  H1  E12 d           1.996  57.224  71.610  0.00  0.00     0.169 HD
ATOM     30  C6  E12 d           4.423  59.522  71.667  0.00  0.00    -0.017 A 
ATOM     31  O7  E12 d           4.071  57.524  70.298  0.00  0.00    -0.268 OA
ATOM     32  H9  E12 d           5.368  59.806  71.205  0.00  0.00     0.092 H 
ATOM     33  C14 E12 d          -0.166  59.410  74.137  0.00  0.00    -0.058 C 
ATOM     34  H10 E12 d           0.869  57.512  74.263  0.00  0.00     0.042 H 
ATOM     35  H11 E12 d           0.036  57.805  72.699  0.00  0.00     0.042 H 
ATOM     36  C13 E12 d           0.729  60.221  75.130  0.00  0.00    -0.034 C 
ATOM     37  H3  E12 d          -0.531  60.082  73.348  0.00  0.00     0.033 H 
ATOM     38  H4  E12 d          -1.022  58.987  74.684  0.00  0.00     0.033 H 
ATOM     39  H13 E12 d           0.137  61.058  75.529  0.00  0.00     0.036 H 
ATOM     40  H14 E12 d           1.026  59.557  75.955  0.00  0.00     0.036 H 
ATOM     41  H2  E12 d           4.405  61.186  72.997  0.00  0.00     0.084 H 
ATOM     42  H12 E12 d           2.789  60.829  75.251  0.00  0.00     0.092 H 
ENDBRANCH  19  22
ENDBRANCH  16  19
ENDBRANCH  13  16
ENDBRANCH  10  13
ENDBRANCH   7  10
ENDBRANCH   4   7
ENDBRANCH   1   4
BRANCH   1  43
ATOM     43  C68 E12 d           4.811  64.914  70.040  0.00  0.00    -0.065 C 
ATOM     44  H39 E12 d           5.621  65.207  70.724  0.00  0.00     0.033 H 
ATOM     45  H40 E12 d           3.936  65.559  70.211  0.00  0.00     0.033 H 
BRANCH  43  46
ATOM     46  C69 E12 d           5.289  65.121  68.612  0.00  0.00    -0.065 C 
ATOM     47  H41 E12 d           5.125  64.197  68.039  0.00  0.00     0.033 H 
ATOM     48  H42 E12 d           6.362  65.360  68.622  0.00  0.00     0.033 H 
BRANCH  46  49
ATOM     49  C70 E12 d           4.532  66.259  67.950  0.00  0.00    -0.065 C 
ATOM     50  H43 E12 d           4.316  65.972  66.909  0.00  0.00     0.033 H 
ATOM     51  H44 E12 d           5.174  67.154  67.958  0.00  0.00     0.033 H 
BRANCH  49  52
ATOM     52  C71 E12 d           3.214  66.606  68.636  0.00  0.00    -0.064 C 
ATOM     53  H45 E12 d           3.377  66.606  69.724  0.00  0.00     0.033 H 
ATOM     54  H46 E12 d           2.472  65.837  68.376  0.00  0.00     0.033 H 
BRANCH  52  55
ATOM     55  C72 E12 d           2.657  67.982  68.225  0.00  0.00    -0.043 C 
ATOM     56  H47 E12 d           3.087  68.746  68.889  0.00  0.00     0.035 H 
ATOM     57  H48 E12 d           1.564  67.966  68.345  0.00  0.00     0.035 H 
BRANCH  55  58
ATOM     58  C41 E12 d           2.982  68.357  66.775  0.00  0.00     0.083 C 
ATOM     59  H29 E12 d           4.013  68.065  66.529  0.00  0.00     0.075 H 
ATOM     60  H30 E12 d           2.863  69.441  66.627  0.00  0.00     0.075 H 
BRANCH  58  61
ATOM     61  N40 E12 d           2.020  67.614  65.923  0.00  0.00    -0.067 N 
ATOM     62  H27 E12 d           1.181  68.169  65.874  0.00  0.00     0.277 HD
ATOM     63  H28 E12 d           1.822  66.745  66.394  0.00  0.00     0.277 HD
BRANCH  61  64
ATOM     64  C37 E12 d           2.405  67.268  64.498  0.00  0.00     0.129 C 
ATOM     65  C38 E12 d           3.081  68.513  63.885  0.00  0.00    -0.034 C 
ATOM     66  C39 E12 d           3.666  68.192  62.505  0.00  0.00    -0.058 C 
ATOM     67  H23 E12 d           3.891  68.848  64.550  0.00  0.00     0.036 H 
ATOM     68  H24 E12 d           2.335  69.314  63.782  0.00  0.00     0.036 H 
ATOM     69  C36 E12 d           4.765  67.121  62.629  0.00  0.00    -0.026 C 
ATOM     70  H25 E12 d           2.866  67.817  61.849  0.00  0.00     0.033 H 
ATOM     71  H26 E12 d           4.097  69.106  62.071  0.00  0.00     0.033 H 
ATOM     72  C31 E12 d           4.268  65.912  63.451  0.00  0.00     0.020 A 
ATOM     73  H20 E12 d           5.051  66.779  61.624  0.00  0.00     0.042 H 
ATOM     74  H21 E12 d           5.641  67.560  63.129  0.00  0.00     0.042 H 
ATOM     75  C32 E12 d           3.192  65.970  64.336  0.00  0.00    -0.005 A 
ATOM     76  N30 E12 d           4.934  64.733  63.294  0.00  0.00    -0.327 N 
ATOM     77  C33 E12 d           2.819  64.735  65.070  0.00  0.00    -0.068 A 
ATOM     78  C34 E12 d           3.494  63.564  64.900  0.00  0.00    -0.017 A 
ATOM     79  H18 E12 d           1.981  64.767  65.766  0.00  0.00     0.084 H 
ATOM     80  C29 E12 d           4.647  63.523  63.918  0.00  0.00     0.245 A 
ATOM     81  H19 E12 d           3.210  62.674  65.460  0.00  0.00     0.092 H 
ATOM     82  O35 E12 d           5.259  62.495  63.596  0.00  0.00    -0.268 OA
ATOM     83  H17 E12 d           5.711  64.738  62.663  0.00  0.00     0.169 HD
ATOM     84  H22 E12 d           1.467  67.110  63.946  0.00  0.00     0.092 H 
ENDBRANCH  61  64
ENDBRANCH  58  61
ENDBRANCH  55  58
ENDBRANCH  52  55
ENDBRANCH  49  52
ENDBRANCH  46  49
ENDBRANCH  43  46
ENDBRANCH   1  43
TORSDOF 15
ENDMDL
MODEL 5
REMARK VINA RESULT:     -10.2      1.875      9.293
REMARK  15 active torsions:
REMARK  status: ('A' for Active; 'I' for Inactive)
REMARK    1  A    between atoms: C10_11  and  N17_7 
REMARK    2  A    between atoms: N17_7  and  C24_8 
REMARK    3  A    between atoms: C24_8  and  C63_13 
REMARK    4  A    between atoms: C63_13  and  C64_28 
REMARK    5  A    between atoms: N40_26  and  C37_23 
REMARK    6  A    between atoms: C41_27  and  N40_26 
REMARK    7  A    between atoms: C72_36  and  C41_27 
REMARK    8  A    between atoms: C64_28  and  C65_29 
REMARK    9  A    between atoms: C65_29  and  C66_30 
REMARK   10  A    between atoms: C66_30  and  C67_31 
REMARK   11  A    between atoms: C67_31  and  C68_32 
REMARK   12  A    between atoms: C68_32  and  C69_33 
REMARK   13  A    between atoms: C69_33  and  C70_34 
REMARK   14  A    between atoms: C70_34  and  C71_35 
REMARK   15  A    between atoms: C71_35  and  C72_36 
ROOT
ATOM      1  C67 E12 d           0.626  67.292  66.310  0.00  0.00    -0.065 C 
ATOM      2  H37 E12 d           1.569  66.757  66.123  0.00  0.00     0.033 H 
ATOM      3  H38 E12 d          -0.199  66.568  66.379  0.00  0.00     0.033 H 
ENDROOT
BRANCH   1   4
ATOM      4  C66 E12 d           0.359  68.218  65.144  0.00  0.00    -0.065 C 
ATOM      5  H35 E12 d          -0.709  68.172  64.884  0.00  0.00     0.033 H 
ATOM      6  H36 E12 d           0.622  69.246  65.432  0.00  0.00     0.033 H 
BRANCH   4   7
ATOM      7  C65 E12 d           1.178  67.816  63.943  0.00  0.00    -0.065 C 
ATOM      8  H33 E12 d           2.241  67.800  64.226  0.00  0.00     0.033 H 
ATOM      9  H34 E12 d           0.869  66.810  63.623  0.00  0.00     0.033 H 
BRANCH   7  10
ATOM     10  C64 E12 d           0.992  68.782  62.782  0.00  0.00    -0.064 C 
ATOM     11  H31 E12 d           0.197  68.405  62.120  0.00  0.00     0.033 H 
ATOM     12  H32 E12 d           0.705  69.769  63.173  0.00  0.00     0.033 H 
BRANCH  10  13
ATOM     13  C63 E12 d           2.276  68.909  61.998  0.00  0.00    -0.043 C 
ATOM     14  H15 E12 d           2.041  69.232  60.973  0.00  0.00     0.035 H 
ATOM     15  H16 E12 d           2.918  69.660  62.480  0.00  0.00     0.035 H 
BRANCH  13  16
ATOM     16  C24 E12 d           3.026  67.565  61.942  0.00  0.00     0.083 C 
ATOM     17  H7  E12 d           2.708  66.910  62.767  0.00  0.00     0.075 H 
ATOM     18  H8  E12 d           2.845  67.060  60.982  0.00  0.00     0.075 H 
BRANCH  16  19
ATOM     19  N17 E12 d           4.509  67.939  62.087  0.00  0.00    -0.067 N 
ATOM     20  H5  E12 d           4.996  67.466  61.343  0.00  0.00     0.277 HD
ATOM     21  H6  E12 d           4.567  68.936  61.946  0.00  0.00     0.277 HD
BRANCH  19  22
ATOM     22  C10 E12 d           5.275  67.643  63.354  0.00  0.00     0.129 C 
ATOM     23  C4  E12 d           4.692  66.395  64.050  0.00  0.00    -0.005 A 
ATOM     24  C3  E12 d           4.228  66.440  65.352  0.00  0.00     0.020 A 
ATOM     25  C5  E12 d           4.702  65.066  63.372  0.00  0.00    -0.068 A 
ATOM     26  N2  E12 d           3.759  65.302  65.946  0.00  0.00    -0.327 N 
ATOM     27  C9  E12 d           4.203  67.721  66.195  0.00  0.00    -0.026 C 
ATOM     28  C1  E12 d           3.710  64.027  65.407  0.00  0.00     0.245 A 
ATOM     29  H1  E12 d           3.410  65.401  66.878  0.00  0.00     0.169 HD
ATOM     30  C6  E12 d           4.235  63.929  63.992  0.00  0.00    -0.017 A 
ATOM     31  O7  E12 d           3.227  63.077  66.054  0.00  0.00    -0.268 OA
ATOM     32  H9  E12 d           4.244  62.972  63.471  0.00  0.00     0.092 H 
ATOM     33  C14 E12 d           4.175  68.974  65.301  0.00  0.00    -0.058 C 
ATOM     34  H10 E12 d           5.102  67.752  66.829  0.00  0.00     0.042 H 
ATOM     35  H11 E12 d           3.307  67.714  66.832  0.00  0.00     0.042 H 
ATOM     36  C13 E12 d           5.322  68.917  64.240  0.00  0.00    -0.034 C 
ATOM     37  H3  E12 d           3.206  69.028  64.784  0.00  0.00     0.033 H 
ATOM     38  H4  E12 d           4.306  69.869  65.928  0.00  0.00     0.033 H 
ATOM     39  H13 E12 d           5.239  69.800  63.589  0.00  0.00     0.036 H 
ATOM     40  H14 E12 d           6.287  68.941  64.767  0.00  0.00     0.036 H 
ATOM     41  H2  E12 d           5.089  64.993  62.357  0.00  0.00     0.084 H 
ATOM     42  H12 E12 d           6.313  67.402  63.077  0.00  0.00     0.092 H 
ENDBRANCH  19  22
ENDBRANCH  16  19
ENDBRANCH  13  16
ENDBRANCH  10  13
ENDBRANCH   7  10
ENDBRANCH   4   7
ENDBRANCH   1   4
BRANCH   1  43
ATOM     43  C68 E12 d           0.740  68.022  67.632  0.00  0.00    -0.065 C 
ATOM     44  H39 E12 d          -0.191  68.583  67.800  0.00  0.00     0.033 H 
ATOM     45  H40 E12 d           1.586  68.722  67.572  0.00  0.00     0.033 H 
BRANCH  43  46
ATOM     46  C69 E12 d           0.964  67.097  68.816  0.00  0.00    -0.065 C 
ATOM     47  H41 E12 d           0.700  66.069  68.527  0.00  0.00     0.033 H 
ATOM     48  H42 E12 d           0.324  67.417  69.651  0.00  0.00     0.033 H 
BRANCH  46  49
ATOM     49  C70 E12 d           2.416  67.132  69.260  0.00  0.00    -0.065 C 
ATOM     50  H43 E12 d           2.573  68.041  69.861  0.00  0.00     0.033 H 
ATOM     51  H44 E12 d           3.053  67.169  68.363  0.00  0.00     0.033 H 
BRANCH  49  52
ATOM     52  C71 E12 d           2.835  65.926  70.096  0.00  0.00    -0.064 C 
ATOM     53  H45 E12 d           2.041  65.167  70.036  0.00  0.00     0.033 H 
ATOM     54  H46 E12 d           2.954  66.249  71.141  0.00  0.00     0.033 H 
BRANCH  52  55
ATOM     55  C72 E12 d           4.157  65.289  69.628  0.00  0.00    -0.043 C 
ATOM     56  H47 E12 d           4.989  65.800  70.131  0.00  0.00     0.035 H 
ATOM     57  H48 E12 d           4.245  65.428  68.540  0.00  0.00     0.035 H 
BRANCH  55  58
ATOM     58  C41 E12 d           4.248  63.790  69.936  0.00  0.00     0.083 C 
ATOM     59  H29 E12 d           3.918  63.593  70.966  0.00  0.00     0.075 H 
ATOM     60  H30 E12 d           5.282  63.438  69.808  0.00  0.00     0.075 H 
BRANCH  58  61
ATOM     61  N40 E12 d           3.350  63.108  68.971  0.00  0.00    -0.067 N 
ATOM     62  H27 E12 d           3.890  62.936  68.137  0.00  0.00     0.277 HD
ATOM     63  H28 E12 d           2.602  63.750  68.760  0.00  0.00     0.277 HD
BRANCH  61  64
ATOM     64  C37 E12 d           2.706  61.791  69.360  0.00  0.00     0.129 C 
ATOM     65  C38 E12 d           3.841  60.801  69.698  0.00  0.00    -0.034 C 
ATOM     66  C39 E12 d           3.276  59.500  70.277  0.00  0.00    -0.058 C 
ATOM     67  H23 E12 d           4.513  61.263  70.437  0.00  0.00     0.036 H 
ATOM     68  H24 E12 d           4.405  60.572  68.782  0.00  0.00     0.036 H 
ATOM     69  C36 E12 d           2.540  59.782  71.601  0.00  0.00    -0.026 C 
ATOM     70  H25 E12 d           2.571  59.058  69.558  0.00  0.00     0.033 H 
ATOM     71  H26 E12 d           4.100  58.796  70.463  0.00  0.00     0.033 H 
ATOM     72  C31 E12 d           1.536  60.943  71.437  0.00  0.00     0.020 A 
ATOM     73  H20 E12 d           1.998  58.878  71.912  0.00  0.00     0.042 H 
ATOM     74  H21 E12 d           3.277  60.051  72.372  0.00  0.00     0.042 H 
ATOM     75  C32 E12 d           1.612  61.893  70.419  0.00  0.00    -0.005 A 
ATOM     76  N30 E12 d           0.528  61.031  72.352  0.00  0.00    -0.327 N 
ATOM     77  C33 E12 d           0.584  62.963  70.378  0.00  0.00    -0.068 A 
ATOM     78  C34 E12 d          -0.417  63.035  71.299  0.00  0.00    -0.017 A 
ATOM     79  H18 E12 d           0.632  63.712  69.588  0.00  0.00     0.084 H 
ATOM     80  C29 E12 d          -0.489  61.980  72.384  0.00  0.00     0.245 A 
ATOM     81  H19 E12 d          -1.153  63.837  71.256  0.00  0.00     0.092 H 
ATOM     82  O35 E12 d          -1.412  61.876  73.202  0.00  0.00    -0.268 OA
ATOM     83  H17 E12 d           0.519  60.341  73.076  0.00  0.00     0.169 HD
ATOM     84  H22 E12 d           2.205  61.405  68.460  0.00  0.00     0.092 H 
ENDBRANCH  61  64
ENDBRANCH  58  61
ENDBRANCH  55  58
ENDBRANCH  52  55
ENDBRANCH  49  52
ENDBRANCH  46  49
ENDBRANCH  43  46
ENDBRANCH   1  43
TORSDOF 15
ENDMDL
MODEL 6
REMARK VINA RESULT:     -10.1      1.361     10.176
REMARK  15 active torsions:
REMARK  status: ('A' for Active; 'I' for Inactive)
REMARK    1  A    between atoms: C10_11  and  N17_7 
REMARK    2  A    between atoms: N17_7  and  C24_8 
REMARK    3  A    between atoms: C24_8  and  C63_13 
REMARK    4  A    between atoms: C63_13  and  C64_28 
REMARK    5  A    between atoms: N40_26  and  C37_23 
REMARK    6  A    between atoms: C41_27  and  N40_26 
REMARK    7  A    between atoms: C72_36  and  C41_27 
REMARK    8  A    between atoms: C64_28  and  C65_29 
REMARK    9  A    between atoms: C65_29  and  C66_30 
REMARK   10  A    between atoms: C66_30  and  C67_31 
REMARK   11  A    between atoms: C67_31  and  C68_32 
REMARK   12  A    between atoms: C68_32  and  C69_33 
REMARK   13  A    between atoms: C69_33  and  C70_34 
REMARK   14  A    between atoms: C70_34  and  C71_35 
REMARK   15  A    between atoms: C71_35  and  C72_36 
ROOT
ATOM      1  C67 E12 d           4.280  63.186  70.442  0.00  0.00    -0.065 C 
ATOM      2  H37 E12 d           3.527  63.441  71.202  0.00  0.00     0.033 H 
ATOM      3  H38 E12 d           5.004  62.475  70.867  0.00  0.00     0.033 H 
ENDROOT
BRANCH   1   4
ATOM      4  C66 E12 d           5.018  64.447  70.052  0.00  0.00    -0.065 C 
ATOM      5  H35 E12 d           5.238  65.032  70.958  0.00  0.00     0.033 H 
ATOM      6  H36 E12 d           5.959  64.175  69.553  0.00  0.00     0.033 H 
BRANCH   4   7
ATOM      7  C65 E12 d           4.185  65.285  69.114  0.00  0.00    -0.065 C 
ATOM      8  H33 E12 d           4.853  65.929  68.522  0.00  0.00     0.033 H 
ATOM      9  H34 E12 d           3.628  64.617  68.440  0.00  0.00     0.033 H 
BRANCH   7  10
ATOM     10  C64 E12 d           3.195  66.162  69.867  0.00  0.00    -0.064 C 
ATOM     11  H31 E12 d           2.215  65.663  69.895  0.00  0.00     0.033 H 
ATOM     12  H32 E12 d           3.556  66.319  70.894  0.00  0.00     0.033 H 
BRANCH  10  13
ATOM     13  C63 E12 d           3.054  67.499  69.179  0.00  0.00    -0.043 C 
ATOM     14  H15 E12 d           2.517  68.191  69.844  0.00  0.00     0.035 H 
ATOM     15  H16 E12 d           4.056  67.900  68.965  0.00  0.00     0.035 H 
BRANCH  13  16
ATOM     16  C24 E12 d           2.274  67.362  67.858  0.00  0.00     0.083 C 
ATOM     17  H7  E12 d           1.835  66.358  67.770  0.00  0.00     0.075 H 
ATOM     18  H8  E12 d           1.476  68.118  67.800  0.00  0.00     0.075 H 
BRANCH  16  19
ATOM     19  N17 E12 d           3.322  67.595  66.759  0.00  0.00    -0.067 N 
ATOM     20  H5  E12 d           3.625  68.551  66.852  0.00  0.00     0.277 HD
ATOM     21  H6  E12 d           4.091  66.977  66.964  0.00  0.00     0.277 HD
BRANCH  19  22
ATOM     22  C10 E12 d           2.990  67.394  65.300  0.00  0.00     0.129 C 
ATOM     23  C4  E12 d           3.558  66.047  64.805  0.00  0.00    -0.005 A 
ATOM     24  C3  E12 d           4.435  65.978  63.737  0.00  0.00     0.020 A 
ATOM     25  C5  E12 d           3.100  64.758  65.400  0.00  0.00    -0.068 A 
ATOM     26  N2  E12 d           4.882  64.761  63.303  0.00  0.00    -0.327 N 
ATOM     27  C9  E12 d           4.955  67.212  62.990  0.00  0.00    -0.026 C 
ATOM     28  C1  E12 d           4.534  63.511  63.789  0.00  0.00     0.245 A 
ATOM     29  H1  E12 d           5.536  64.775  62.546  0.00  0.00     0.169 HD
ATOM     30  C6  E12 d           3.554  63.542  64.940  0.00  0.00    -0.017 A 
ATOM     31  O7  E12 d           5.042  62.476  63.315  0.00  0.00    -0.268 OA
ATOM     32  H9  E12 d           3.211  62.615  65.399  0.00  0.00     0.092 H 
ATOM     33  C14 E12 d           4.886  68.468  63.878  0.00  0.00    -0.058 C 
ATOM     34  H10 E12 d           4.340  67.374  62.092  0.00  0.00     0.042 H 
ATOM     35  H11 E12 d           5.999  67.039  62.693  0.00  0.00     0.042 H 
ATOM     36  C13 E12 d           3.457  68.633  64.488  0.00  0.00    -0.034 C 
ATOM     37  H3  E12 d           5.619  68.375  64.693  0.00  0.00     0.033 H 
ATOM     38  H4  E12 d           5.125  69.354  63.271  0.00  0.00     0.033 H 
ATOM     39  H13 E12 d           3.460  69.507  65.155  0.00  0.00     0.036 H 
ATOM     40  H14 E12 d           2.744  68.801  63.667  0.00  0.00     0.036 H 
ATOM     41  H2  E12 d           2.387  64.779  66.222  0.00  0.00     0.084 H 
ATOM     42  H12 E12 d           1.895  67.337  65.204  0.00  0.00     0.092 H 
ENDBRANCH  19  22
ENDBRANCH  16  19
ENDBRANCH  13  16
ENDBRANCH  10  13
ENDBRANCH   7  10
ENDBRANCH   4   7
ENDBRANCH   1   4
BRANCH   1  43
ATOM     43  C68 E12 d           3.581  62.523  69.274  0.00  0.00    -0.065 C 
ATOM     44  H39 E12 d           4.231  62.601  68.390  0.00  0.00     0.033 H 
ATOM     45  H40 E12 d           2.638  63.056  69.084  0.00  0.00     0.033 H 
BRANCH  43  46
ATOM     46  C69 E12 d           3.266  61.056  69.511  0.00  0.00    -0.065 C 
ATOM     47  H41 E12 d           3.012  60.581  68.551  0.00  0.00     0.033 H 
ATOM     48  H42 E12 d           2.410  60.977  70.196  0.00  0.00     0.033 H 
BRANCH  46  49
ATOM     49  C70 E12 d           4.458  60.339  70.120  0.00  0.00    -0.065 C 
ATOM     50  H43 E12 d           5.217  61.091  70.384  0.00  0.00     0.033 H 
ATOM     51  H44 E12 d           4.871  59.650  69.367  0.00  0.00     0.033 H 
BRANCH  49  52
ATOM     52  C71 E12 d           4.121  59.536  71.373  0.00  0.00    -0.064 C 
ATOM     53  H45 E12 d           3.373  60.095  71.955  0.00  0.00     0.033 H 
ATOM     54  H46 E12 d           5.038  59.419  71.970  0.00  0.00     0.033 H 
BRANCH  52  55
ATOM     55  C72 E12 d           3.556  58.136  71.066  0.00  0.00    -0.043 C 
ATOM     56  H47 E12 d           4.362  57.399  71.189  0.00  0.00     0.035 H 
ATOM     57  H48 E12 d           3.202  58.123  70.025  0.00  0.00     0.035 H 
BRANCH  55  58
ATOM     58  C41 E12 d           2.391  57.741  71.981  0.00  0.00     0.083 C 
ATOM     59  H29 E12 d           2.680  56.893  72.619  0.00  0.00     0.075 H 
ATOM     60  H30 E12 d           1.512  57.466  71.380  0.00  0.00     0.075 H 
BRANCH  58  61
ATOM     61  N40 E12 d           2.091  58.932  72.816  0.00  0.00    -0.067 N 
ATOM     62  H27 E12 d           2.611  59.702  72.427  0.00  0.00     0.277 HD
ATOM     63  H28 E12 d           2.428  58.732  73.744  0.00  0.00     0.277 HD
BRANCH  61  64
ATOM     64  C37 E12 d           0.654  59.395  72.956  0.00  0.00     0.129 C 
ATOM     65  C38 E12 d           0.030  58.622  74.137  0.00  0.00    -0.034 C 
ATOM     66  C39 E12 d          -1.367  59.161  74.466  0.00  0.00    -0.058 C 
ATOM     67  H23 E12 d           0.676  58.732  75.021  0.00  0.00     0.036 H 
ATOM     68  H24 E12 d          -0.048  57.557  73.871  0.00  0.00     0.036 H 
ATOM     69  C36 E12 d          -1.277  60.632  74.912  0.00  0.00    -0.026 C 
ATOM     70  H25 E12 d          -2.003  59.091  73.571  0.00  0.00     0.033 H 
ATOM     71  H26 E12 d          -1.806  58.561  75.276  0.00  0.00     0.033 H 
ATOM     72  C31 E12 d          -0.450  61.463  73.909  0.00  0.00     0.020 A 
ATOM     73  H20 E12 d          -2.292  61.051  74.976  0.00  0.00     0.042 H 
ATOM     74  H21 E12 d          -0.798  60.680  75.901  0.00  0.00     0.042 H 
ATOM     75  C32 E12 d           0.464  60.908  73.013  0.00  0.00    -0.005 A 
ATOM     76  N30 E12 d          -0.631  62.815  73.918  0.00  0.00    -0.327 N 
ATOM     77  C33 E12 d           1.201  61.821  72.104  0.00  0.00    -0.068 A 
ATOM     78  C34 E12 d           1.006  63.170  72.125  0.00  0.00    -0.017 A 
ATOM     79  H18 E12 d           1.918  61.401  71.400  0.00  0.00     0.084 H 
ATOM     80  C29 E12 d          -0.006  63.746  73.094  0.00  0.00     0.245 A 
ATOM     81  H19 E12 d           1.568  63.822  71.457  0.00  0.00     0.092 H 
ATOM     82  O35 E12 d          -0.350  64.936  73.125  0.00  0.00    -0.268 OA
ATOM     83  H17 E12 d          -1.281  63.175  74.587  0.00  0.00     0.169 HD
ATOM     84  H22 E12 d           0.126  59.070  72.048  0.00  0.00     0.092 H 
ENDBRANCH  61  64
ENDBRANCH  58  61
ENDBRANCH  55  58
ENDBRANCH  52  55
ENDBRANCH  49  52
ENDBRANCH  46  49
ENDBRANCH  43  46
ENDBRANCH   1  43
TORSDOF 15
ENDMDL
MODEL 7
REMARK VINA RESULT:     -10.0      2.012      2.841
REMARK  15 active torsions:
REMARK  status: ('A' for Active; 'I' for Inactive)
REMARK    1  A    between atoms: C10_11  and  N17_7 
REMARK    2  A    between atoms: N17_7  and  C24_8 
REMARK    3  A    between atoms: C24_8  and  C63_13 
REMARK    4  A    between atoms: C63_13  and  C64_28 
REMARK    5  A    between atoms: N40_26  and  C37_23 
REMARK    6  A    between atoms: C41_27  and  N40_26 
REMARK    7  A    between atoms: C72_36  and  C41_27 
REMARK    8  A    between atoms: C64_28  and  C65_29 
REMARK    9  A    between atoms: C65_29  and  C66_30 
REMARK   10  A    between atoms: C66_30  and  C67_31 
REMARK   11  A    between atoms: C67_31  and  C68_32 
REMARK   12  A    between atoms: C68_32  and  C69_33 
REMARK   13  A    between atoms: C69_33  and  C70_34 
REMARK   14  A    between atoms: C70_34  and  C71_35 
REMARK   15  A    between atoms: C71_35  and  C72_36 
ROOT
ATOM      1  C67 E12 d           3.948  66.484  68.404  0.00  0.00    -0.065 C 
ATOM      2  H37 E12 d           3.291  66.485  67.521  0.00  0.00     0.033 H 
ATOM      3  H38 E12 d           4.702  67.278  68.302  0.00  0.00     0.033 H 
ENDROOT
BRANCH   1   4
ATOM      4  C66 E12 d           4.660  65.151  68.472  0.00  0.00    -0.065 C 
ATOM      5  H35 E12 d           3.979  64.359  68.127  0.00  0.00     0.033 H 
ATOM      6  H36 E12 d           5.546  65.181  67.822  0.00  0.00     0.033 H 
BRANCH   4   7
ATOM      7  C65 E12 d           5.093  64.848  69.885  0.00  0.00    -0.065 C 
ATOM      8  H33 E12 d           6.190  64.910  69.943  0.00  0.00     0.033 H 
ATOM      9  H34 E12 d           4.648  65.594  70.561  0.00  0.00     0.033 H 
BRANCH   7  10
ATOM     10  C64 E12 d           4.653  63.459  70.326  0.00  0.00    -0.064 C 
ATOM     11  H31 E12 d           5.526  62.790  70.342  0.00  0.00     0.033 H 
ATOM     12  H32 E12 d           4.219  63.519  71.335  0.00  0.00     0.033 H 
BRANCH  10  13
ATOM     13  C63 E12 d           3.621  62.910  69.371  0.00  0.00    -0.043 C 
ATOM     14  H15 E12 d           2.657  63.406  69.558  0.00  0.00     0.035 H 
ATOM     15  H16 E12 d           3.943  63.113  68.339  0.00  0.00     0.035 H 
BRANCH  13  16
ATOM     16  C24 E12 d           3.449  61.391  69.555  0.00  0.00     0.083 C 
ATOM     17  H7  E12 d           3.500  60.875  68.585  0.00  0.00     0.075 H 
ATOM     18  H8  E12 d           4.226  60.991  70.225  0.00  0.00     0.075 H 
BRANCH  16  19
ATOM     19  N17 E12 d           2.056  61.229  70.183  0.00  0.00    -0.067 N 
ATOM     20  H5  E12 d           1.442  61.849  69.679  0.00  0.00     0.277 HD
ATOM     21  H6  E12 d           1.779  60.274  70.018  0.00  0.00     0.277 HD
BRANCH  19  22
ATOM     22  C10 E12 d           1.818  61.494  71.650  0.00  0.00     0.129 C 
ATOM     23  C4  E12 d           1.324  60.210  72.351  0.00  0.00    -0.005 A 
ATOM     24  C3  E12 d           0.123  60.174  73.035  0.00  0.00     0.020 A 
ATOM     25  C5  E12 d           2.177  58.988  72.399  0.00  0.00    -0.068 A 
ATOM     26  N2  E12 d          -0.258  59.029  73.678  0.00  0.00    -0.327 N 
ATOM     27  C9  E12 d          -0.837  61.367  73.120  0.00  0.00    -0.026 C 
ATOM     28  C1  E12 d           0.447  57.841  73.774  0.00  0.00     0.245 A 
ATOM     29  H1  E12 d          -1.149  59.053  74.132  0.00  0.00     0.169 HD
ATOM     30  C6  E12 d           1.781  57.849  73.062  0.00  0.00    -0.017 A 
ATOM     31  O7  E12 d          -0.035  56.858  74.372  0.00  0.00    -0.268 OA
ATOM     32  H9  E12 d           2.418  56.965  73.073  0.00  0.00     0.092 H 
ATOM     33  C14 E12 d          -0.628  62.333  71.939  0.00  0.00    -0.058 C 
ATOM     34  H10 E12 d          -0.658  61.906  74.061  0.00  0.00     0.042 H 
ATOM     35  H11 E12 d          -1.873  60.997  73.101  0.00  0.00     0.042 H 
ATOM     36  C13 E12 d           0.880  62.721  71.808  0.00  0.00    -0.034 C 
ATOM     37  H3  E12 d          -0.958  61.845  71.010  0.00  0.00     0.033 H 
ATOM     38  H4  E12 d          -1.223  63.243  72.106  0.00  0.00     0.033 H 
ATOM     39  H13 E12 d           0.999  63.368  70.926  0.00  0.00     0.036 H 
ATOM     40  H14 E12 d           1.178  63.275  72.710  0.00  0.00     0.036 H 
ATOM     41  H2  E12 d           3.142  58.996  71.894  0.00  0.00     0.084 H 
ATOM     42  H12 E12 d           2.782  61.761  72.109  0.00  0.00     0.092 H 
ENDBRANCH  19  22
ENDBRANCH  16  19
ENDBRANCH  13  16
ENDBRANCH  10  13
ENDBRANCH   7  10
ENDBRANCH   4   7
ENDBRANCH   1   4
BRANCH   1  43
ATOM     43  C68 E12 d           3.108  66.770  69.630  0.00  0.00    -0.065 C 
ATOM     44  H39 E12 d           2.833  67.835  69.623  0.00  0.00     0.033 H 
ATOM     45  H40 E12 d           3.710  66.553  70.525  0.00  0.00     0.033 H 
BRANCH  43  46
ATOM     46  C69 E12 d           1.833  65.945  69.697  0.00  0.00    -0.065 C 
ATOM     47  H41 E12 d           1.605  65.718  70.749  0.00  0.00     0.033 H 
ATOM     48  H42 E12 d           1.982  65.007  69.144  0.00  0.00     0.033 H 
BRANCH  46  49
ATOM     49  C70 E12 d           0.667  66.703  69.087  0.00  0.00    -0.065 C 
ATOM     50  H43 E12 d          -0.196  66.613  69.763  0.00  0.00     0.033 H 
ATOM     51  H44 E12 d           0.424  66.244  68.117  0.00  0.00     0.033 H 
BRANCH  49  52
ATOM     52  C71 E12 d           0.947  68.186  68.860  0.00  0.00    -0.064 C 
ATOM     53  H45 E12 d           2.024  68.364  68.999  0.00  0.00     0.033 H 
ATOM     54  H46 E12 d           0.381  68.767  69.603  0.00  0.00     0.033 H 
BRANCH  52  55
ATOM     55  C72 E12 d           0.549  68.673  67.454  0.00  0.00    -0.043 C 
ATOM     56  H47 E12 d           1.168  69.545  67.197  0.00  0.00     0.035 H 
ATOM     57  H48 E12 d          -0.511  68.969  67.473  0.00  0.00     0.035 H 
BRANCH  55  58
ATOM     58  C41 E12 d           0.737  67.606  66.369  0.00  0.00     0.083 C 
ATOM     59  H29 E12 d           0.021  67.767  65.550  0.00  0.00     0.075 H 
ATOM     60  H30 E12 d           0.589  66.602  66.794  0.00  0.00     0.075 H 
BRANCH  58  61
ATOM     61  N40 E12 d           2.128  67.753  65.872  0.00  0.00    -0.067 N 
ATOM     62  H27 E12 d           2.715  67.198  66.474  0.00  0.00     0.277 HD
ATOM     63  H28 E12 d           2.372  68.726  65.967  0.00  0.00     0.277 HD
BRANCH  61  64
ATOM     64  C37 E12 d           2.452  67.352  64.446  0.00  0.00     0.129 C 
ATOM     65  C38 E12 d           3.104  68.570  63.758  0.00  0.00    -0.034 C 
ATOM     66  C39 E12 d           3.630  68.194  62.368  0.00  0.00    -0.058 C 
ATOM     67  H23 E12 d           3.941  68.927  64.376  0.00  0.00     0.036 H 
ATOM     68  H24 E12 d           2.356  69.370  63.656  0.00  0.00     0.036 H 
ATOM     69  C36 E12 d           4.731  67.125  62.488  0.00  0.00    -0.026 C 
ATOM     70  H25 E12 d           2.802  67.797  61.762  0.00  0.00     0.033 H 
ATOM     71  H26 E12 d           4.044  69.090  61.882  0.00  0.00     0.033 H 
ATOM     72  C31 E12 d           4.267  65.951  63.375  0.00  0.00     0.020 A 
ATOM     73  H20 E12 d           4.974  66.744  61.485  0.00  0.00     0.042 H 
ATOM     74  H21 E12 d           5.628  67.580  62.934  0.00  0.00     0.042 H 
ATOM     75  C32 E12 d           3.228  66.046  64.301  0.00  0.00    -0.005 A 
ATOM     76  N30 E12 d           4.923  64.763  63.236  0.00  0.00    -0.327 N 
ATOM     77  C33 E12 d           2.884  64.841  65.098  0.00  0.00    -0.068 A 
ATOM     78  C34 E12 d           3.549  63.662  64.944  0.00  0.00    -0.017 A 
ATOM     79  H18 E12 d           2.076  64.903  65.826  0.00  0.00     0.084 H 
ATOM     80  C29 E12 d           4.660  63.580  63.918  0.00  0.00     0.245 A 
ATOM     81  H19 E12 d           3.287  62.795  65.549  0.00  0.00     0.092 H 
ATOM     82  O35 E12 d           5.256  62.538  63.610  0.00  0.00    -0.268 OA
ATOM     83  H17 E12 d           5.673  64.741  62.574  0.00  0.00     0.169 HD
ATOM     84  H22 E12 d           1.491  67.177  63.940  0.00  0.00     0.092 H 
ENDBRANCH  61  64
ENDBRANCH  58  61
ENDBRANCH  55  58
ENDBRANCH  52  55
ENDBRANCH  49  52
ENDBRANCH  46  49
ENDBRANCH  43  46
ENDBRANCH   1  43
TORSDOF 15
ENDMDL
MODEL 8
REMARK VINA RESULT:      -9.8      1.187      2.243
REMARK  15 active torsions:
REMARK  status: ('A' for Active; 'I' for Inactive)
REMARK    1  A    between atoms: C10_11  and  N17_7 
REMARK    2  A    between atoms: N17_7  and  C24_8 
REMARK    3  A    between atoms: C24_8  and  C63_13 
REMARK    4  A    between atoms: C63_13  and  C64_28 
REMARK    5  A    between atoms: N40_26  and  C37_23 
REMARK    6  A    between atoms: C41_27  and  N40_26 
REMARK    7  A    between atoms: C72_36  and  C41_27 
REMARK    8  A    between atoms: C64_28  and  C65_29 
REMARK    9  A    between atoms: C65_29  and  C66_30 
REMARK   10  A    between atoms: C66_30  and  C67_31 
REMARK   11  A    between atoms: C67_31  and  C68_32 
REMARK   12  A    between atoms: C68_32  and  C69_33 
REMARK   13  A    between atoms: C69_33  and  C70_34 
REMARK   14  A    between atoms: C70_34  and  C71_35 
REMARK   15  A    between atoms: C71_35  and  C72_36 
ROOT
ATOM      1  C67 E12 d           4.439  61.992  71.152  0.00  0.00    -0.065 C 
ATOM      2  H37 E12 d           5.056  62.901  71.208  0.00  0.00     0.033 H 
ATOM      3  H38 E12 d           3.735  61.974  71.996  0.00  0.00     0.033 H 
ENDROOT
BRANCH   1   4
ATOM      4  C66 E12 d           5.347  60.787  71.256  0.00  0.00    -0.065 C 
ATOM      5  H35 E12 d           5.817  60.603  70.279  0.00  0.00     0.033 H 
ATOM      6  H36 E12 d           6.126  60.986  72.006  0.00  0.00     0.033 H 
BRANCH   4   7
ATOM      7  C65 E12 d           4.566  59.564  71.667  0.00  0.00    -0.065 C 
ATOM      8  H33 E12 d           3.914  59.260  70.833  0.00  0.00     0.033 H 
ATOM      9  H34 E12 d           5.271  58.751  71.896  0.00  0.00     0.033 H 
BRANCH   7  10
ATOM     10  C64 E12 d           3.704  59.829  72.893  0.00  0.00    -0.064 C 
ATOM     11  H31 E12 d           4.306  60.347  73.655  0.00  0.00     0.033 H 
ATOM     12  H32 E12 d           2.851  60.461  72.608  0.00  0.00     0.033 H 
BRANCH  10  13
ATOM     13  C63 E12 d           3.192  58.527  73.462  0.00  0.00    -0.043 C 
ATOM     14  H15 E12 d           3.720  57.691  72.980  0.00  0.00     0.035 H 
ATOM     15  H16 E12 d           3.385  58.507  74.545  0.00  0.00     0.035 H 
BRANCH  13  16
ATOM     16  C24 E12 d           1.679  58.374  73.218  0.00  0.00     0.083 C 
ATOM     17  H7  E12 d           1.479  57.525  72.549  0.00  0.00     0.075 H 
ATOM     18  H8  E12 d           1.146  58.225  74.169  0.00  0.00     0.075 H 
BRANCH  16  19
ATOM     19  N17 E12 d           1.254  59.695  72.560  0.00  0.00    -0.067 N 
ATOM     20  H5  E12 d           2.014  60.342  72.700  0.00  0.00     0.277 HD
ATOM     21  H6  E12 d           1.153  59.504  71.575  0.00  0.00     0.277 HD
BRANCH  19  22
ATOM     22  C10 E12 d          -0.003  60.418  72.984  0.00  0.00     0.129 C 
ATOM     23  C4  E12 d           0.062  61.899  72.552  0.00  0.00    -0.005 A 
ATOM     24  C3  E12 d          -0.056  62.928  73.469  0.00  0.00     0.020 A 
ATOM     25  C5  E12 d           0.155  62.273  71.111  0.00  0.00    -0.068 A 
ATOM     26  N2  E12 d          -0.035  64.225  73.040  0.00  0.00    -0.327 N 
ATOM     27  C9  E12 d          -0.210  62.700  74.978  0.00  0.00    -0.026 C 
ATOM     28  C1  E12 d           0.060  64.681  71.736  0.00  0.00     0.245 A 
ATOM     29  H1  E12 d          -0.096  64.926  73.751  0.00  0.00     0.169 HD
ATOM     30  C6  E12 d           0.162  63.586  70.699  0.00  0.00    -0.017 A 
ATOM     31  O7  E12 d           0.096  65.903  71.486  0.00  0.00    -0.268 OA
ATOM     32  H9  E12 d           0.241  63.832  69.641  0.00  0.00     0.092 H 
ATOM     33  C14 E12 d           0.358  61.330  75.394  0.00  0.00    -0.058 C 
ATOM     34  H10 E12 d          -1.277  62.741  75.240  0.00  0.00     0.042 H 
ATOM     35  H11 E12 d           0.331  63.491  75.517  0.00  0.00     0.042 H 
ATOM     36  C13 E12 d          -0.240  60.195  74.502  0.00  0.00    -0.034 C 
ATOM     37  H3  E12 d           1.451  61.342  75.280  0.00  0.00     0.033 H 
ATOM     38  H4  E12 d           0.101  61.137  76.446  0.00  0.00     0.033 H 
ATOM     39  H13 E12 d           0.226  59.241  74.792  0.00  0.00     0.036 H 
ATOM     40  H14 E12 d          -1.324  60.143  74.682  0.00  0.00     0.036 H 
ATOM     41  H2  E12 d           0.219  61.484  70.364  0.00  0.00     0.084 H 
ATOM     42  H12 E12 d          -0.853  59.964  72.452  0.00  0.00     0.092 H 
ENDBRANCH  19  22
ENDBRANCH  16  19
ENDBRANCH  13  16
ENDBRANCH  10  13
ENDBRANCH   7  10
ENDBRANCH   4   7
ENDBRANCH   1   4
BRANCH   1  43
ATOM     43  C68 E12 d           3.646  62.027  69.862  0.00  0.00    -0.065 C 
ATOM     44  H39 E12 d           2.650  61.604  70.055  0.00  0.00     0.033 H 
ATOM     45  H40 E12 d           4.169  61.411  69.115  0.00  0.00     0.033 H 
BRANCH  43  46
ATOM     46  C69 E12 d           3.473  63.426  69.295  0.00  0.00    -0.065 C 
ATOM     47  H41 E12 d           2.462  63.788  69.531  0.00  0.00     0.033 H 
ATOM     48  H42 E12 d           3.605  63.392  68.204  0.00  0.00     0.033 H 
BRANCH  46  49
ATOM     49  C70 E12 d           4.495  64.379  69.890  0.00  0.00    -0.065 C 
ATOM     50  H43 E12 d           5.486  64.120  69.487  0.00  0.00     0.033 H 
ATOM     51  H44 E12 d           4.497  64.248  70.983  0.00  0.00     0.033 H 
BRANCH  49  52
ATOM     52  C71 E12 d           4.221  65.848  69.583  0.00  0.00    -0.064 C 
ATOM     53  H45 E12 d           4.711  66.104  68.632  0.00  0.00     0.033 H 
ATOM     54  H46 E12 d           4.647  66.460  70.391  0.00  0.00     0.033 H 
BRANCH  52  55
ATOM     55  C72 E12 d           2.720  66.175  69.462  0.00  0.00    -0.043 C 
ATOM     56  H47 E12 d           2.357  66.519  70.441  0.00  0.00     0.035 H 
ATOM     57  H48 E12 d           2.185  65.259  69.173  0.00  0.00     0.035 H 
BRANCH  55  58
ATOM     58  C41 E12 d           2.420  67.262  68.423  0.00  0.00     0.083 C 
ATOM     59  H29 E12 d           2.275  68.233  68.919  0.00  0.00     0.075 H 
ATOM     60  H30 E12 d           1.516  67.003  67.852  0.00  0.00     0.075 H 
BRANCH  58  61
ATOM     61  N40 E12 d           3.599  67.318  67.522  0.00  0.00    -0.067 N 
ATOM     62  H27 E12 d           4.179  66.526  67.748  0.00  0.00     0.277 HD
ATOM     63  H28 E12 d           4.093  68.169  67.736  0.00  0.00     0.277 HD
BRANCH  61  64
ATOM     64  C37 E12 d           3.386  67.295  66.021  0.00  0.00     0.129 C 
ATOM     65  C38 E12 d           4.019  68.578  65.443  0.00  0.00    -0.034 C 
ATOM     66  C39 E12 d           4.010  68.548  63.910  0.00  0.00    -0.058 C 
ATOM     67  H23 E12 d           5.058  68.658  65.796  0.00  0.00     0.036 H 
ATOM     68  H24 E12 d           3.446  69.451  65.789  0.00  0.00     0.036 H 
ATOM     69  C36 E12 d           4.866  67.376  63.396  0.00  0.00    -0.026 C 
ATOM     70  H25 E12 d           2.976  68.427  63.555  0.00  0.00     0.033 H 
ATOM     71  H26 E12 d           4.421  69.494  63.526  0.00  0.00     0.033 H 
ATOM     72  C31 E12 d           4.477  66.059  64.101  0.00  0.00     0.020 A 
ATOM     73  H20 E12 d           4.710  67.264  62.314  0.00  0.00     0.042 H 
ATOM     74  H21 E12 d           5.926  67.590  63.594  0.00  0.00     0.042 H 
ATOM     75  C32 E12 d           3.811  66.005  65.326  0.00  0.00    -0.005 A 
ATOM     76  N30 E12 d           4.815  64.893  63.479  0.00  0.00    -0.327 N 
ATOM     77  C33 E12 d           3.501  64.671  65.898  0.00  0.00    -0.068 A 
ATOM     78  C34 E12 d           3.845  63.516  65.263  0.00  0.00    -0.017 A 
ATOM     79  H18 E12 d           2.983  64.614  66.855  0.00  0.00     0.084 H 
ATOM     80  C29 E12 d           4.549  63.602  63.924  0.00  0.00     0.245 A 
ATOM     81  H19 E12 d           3.618  62.549  65.709  0.00  0.00     0.092 H 
ATOM     82  O35 E12 d           4.808  62.629  63.203  0.00  0.00    -0.268 OA
ATOM     83  H17 E12 d           5.307  64.975  62.612  0.00  0.00     0.169 HD
ATOM     84  H22 E12 d           2.302  67.371  65.853  0.00  0.00     0.092 H 
ENDBRANCH  61  64
ENDBRANCH  58  61
ENDBRANCH  55  58
ENDBRANCH  52  55
ENDBRANCH  49  52
ENDBRANCH  46  49
ENDBRANCH  43  46
ENDBRANCH   1  43
TORSDOF 15
ENDMDL
MODEL 9
REMARK VINA RESULT:      -9.5      2.394     10.126
REMARK  15 active torsions:
REMARK  status: ('A' for Active; 'I' for Inactive)
REMARK    1  A    between atoms: C10_11  and  N17_7 
REMARK    2  A    between atoms: N17_7  and  C24_8 
REMARK    3  A    between atoms: C24_8  and  C63_13 
REMARK    4  A    between atoms: C63_13  and  C64_28 
REMARK    5  A    between atoms: N40_26  and  C37_23 
REMARK    6  A    between atoms: C41_27  and  N40_26 
REMARK    7  A    between atoms: C72_36  and  C41_27 
REMARK    8  A    between atoms: C64_28  and  C65_29 
REMARK    9  A    between atoms: C65_29  and  C66_30 
REMARK   10  A    between atoms: C66_30  and  C67_31 
REMARK   11  A    between atoms: C67_31  and  C68_32 
REMARK   12  A    between atoms: C68_32  and  C69_33 
REMARK   13  A    between atoms: C69_33  and  C70_34 
REMARK   14  A    between atoms: C70_34  and  C71_35 
REMARK   15  A    between atoms: C71_35  and  C72_36 
ROOT
ATOM      1  C67 E12 d           2.812  63.808  70.734  0.00  0.00    -0.065 C 
ATOM      2  H37 E12 d           2.374  64.746  70.363  0.00  0.00     0.033 H 
ATOM      3  H38 E12 d           2.847  63.829  71.833  0.00  0.00     0.033 H 
ENDROOT
BRANCH   1   4
ATOM      4  C66 E12 d           4.227  63.696  70.210  0.00  0.00    -0.065 C 
ATOM      5  H35 E12 d           4.842  63.154  70.944  0.00  0.00     0.033 H 
ATOM      6  H36 E12 d           4.217  63.143  69.260  0.00  0.00     0.033 H 
BRANCH   4   7
ATOM      7  C65 E12 d           4.821  65.063  69.981  0.00  0.00    -0.065 C 
ATOM      8  H33 E12 d           4.688  65.667  70.891  0.00  0.00     0.033 H 
ATOM      9  H34 E12 d           5.894  64.954  69.766  0.00  0.00     0.033 H 
BRANCH   7  10
ATOM     10  C64 E12 d           4.156  65.780  68.814  0.00  0.00    -0.064 C 
ATOM     11  H31 E12 d           3.149  65.366  68.659  0.00  0.00     0.033 H 
ATOM     12  H32 E12 d           4.080  66.853  69.043  0.00  0.00     0.033 H 
BRANCH  10  13
ATOM     13  C63 E12 d           4.970  65.595  67.556  0.00  0.00    -0.043 C 
ATOM     14  H15 E12 d           5.879  66.212  67.621  0.00  0.00     0.035 H 
ATOM     15  H16 E12 d           5.252  64.536  67.462  0.00  0.00     0.035 H 
BRANCH  13  16
ATOM     16  C24 E12 d           4.167  66.014  66.310  0.00  0.00     0.083 C 
ATOM     17  H7  E12 d           4.310  65.289  65.495  0.00  0.00     0.075 H 
ATOM     18  H8  E12 d           3.095  66.091  66.548  0.00  0.00     0.075 H 
BRANCH  16  19
ATOM     19  N17 E12 d           4.736  67.387  65.921  0.00  0.00    -0.067 N 
ATOM     20  H5  E12 d           5.178  67.757  66.748  0.00  0.00     0.277 HD
ATOM     21  H6  E12 d           5.436  67.216  65.216  0.00  0.00     0.277 HD
BRANCH  19  22
ATOM     22  C10 E12 d           3.849  68.484  65.385  0.00  0.00     0.129 C 
ATOM     23  C4  E12 d           2.374  68.200  65.744  0.00  0.00    -0.005 A 
ATOM     24  C3  E12 d           1.396  68.100  64.772  0.00  0.00     0.020 A 
ATOM     25  C5  E12 d           1.935  68.124  67.168  0.00  0.00    -0.068 A 
ATOM     26  N2  E12 d           0.096  67.891  65.135  0.00  0.00    -0.327 N 
ATOM     27  C9  E12 d           1.686  68.210  63.269  0.00  0.00    -0.026 C 
ATOM     28  C1  E12 d          -0.416  67.791  66.419  0.00  0.00     0.245 A 
ATOM     29  H1  E12 d          -0.563  67.798  64.388  0.00  0.00     0.169 HD
ATOM     30  C6  E12 d           0.618  67.924  67.514  0.00  0.00    -0.017 A 
ATOM     31  O7  E12 d          -1.629  67.569  66.608  0.00  0.00    -0.268 OA
ATOM     32  H9  E12 d           0.325  67.862  68.561  0.00  0.00     0.092 H 
ATOM     33  C14 E12 d           3.151  67.853  62.958  0.00  0.00    -0.058 C 
ATOM     34  H10 E12 d           1.489  69.241  62.940  0.00  0.00     0.042 H 
ATOM     35  H11 E12 d           1.025  67.519  62.726  0.00  0.00     0.042 H 
ATOM     36  C13 E12 d           4.121  68.674  63.868  0.00  0.00    -0.034 C 
ATOM     37  H3  E12 d           3.307  66.779  63.139  0.00  0.00     0.033 H 
ATOM     38  H4  E12 d           3.362  68.082  61.904  0.00  0.00     0.033 H 
ATOM     39  H13 E12 d           5.152  68.356  63.655  0.00  0.00     0.036 H 
ATOM     40  H14 E12 d           4.009  69.741  63.624  0.00  0.00     0.036 H 
ATOM     41  H2  E12 d           2.678  68.229  67.957  0.00  0.00     0.084 H 
ATOM     42  H12 E12 d           4.127  69.424  65.885  0.00  0.00     0.092 H 
ENDBRANCH  19  22
ENDBRANCH  16  19
ENDBRANCH  13  16
ENDBRANCH  10  13
ENDBRANCH   7  10
ENDBRANCH   4   7
ENDBRANCH   1   4
BRANCH   1  43
ATOM     43  C68 E12 d           1.928  62.658  70.302  0.00  0.00    -0.065 C 
ATOM     44  H39 E12 d           0.998  63.071  69.884  0.00  0.00     0.033 H 
ATOM     45  H40 E12 d           1.693  62.047  71.186  0.00  0.00     0.033 H 
BRANCH  43  46
ATOM     46  C69 E12 d           2.568  61.762  69.255  0.00  0.00    -0.065 C 
ATOM     47  H41 E12 d           3.541  62.186  68.964  0.00  0.00     0.033 H 
ATOM     48  H42 E12 d           1.913  61.711  68.373  0.00  0.00     0.033 H 
BRANCH  46  49
ATOM     49  C70 E12 d           2.778  60.360  69.800  0.00  0.00    -0.065 C 
ATOM     50  H43 E12 d           2.325  59.644  69.098  0.00  0.00     0.033 H 
ATOM     51  H44 E12 d           2.274  60.288  70.775  0.00  0.00     0.033 H 
BRANCH  49  52
ATOM     52  C71 E12 d           4.245  59.985  69.988  0.00  0.00    -0.064 C 
ATOM     53  H45 E12 d           4.866  60.846  69.698  0.00  0.00     0.033 H 
ATOM     54  H46 E12 d           4.475  59.131  69.333  0.00  0.00     0.033 H 
BRANCH  52  55
ATOM     55  C72 E12 d           4.594  59.596  71.437  0.00  0.00    -0.043 C 
ATOM     56  H47 E12 d           5.608  59.172  71.451  0.00  0.00     0.035 H 
ATOM     57  H48 E12 d           3.874  58.837  71.778  0.00  0.00     0.035 H 
BRANCH  55  58
ATOM     58  C41 E12 d           4.549  60.782  72.408  0.00  0.00     0.083 C 
ATOM     59  H29 E12 d           4.099  61.657  71.918  0.00  0.00     0.075 H 
ATOM     60  H30 E12 d           5.564  61.033  72.749  0.00  0.00     0.075 H 
BRANCH  58  61
ATOM     61  N40 E12 d           3.713  60.351  73.557  0.00  0.00    -0.067 N 
ATOM     62  H27 E12 d           3.798  61.063  74.266  0.00  0.00     0.277 HD
ATOM     63  H28 E12 d           4.105  59.488  73.898  0.00  0.00     0.277 HD
BRANCH  61  64
ATOM     64  C37 E12 d           2.230  60.112  73.347  0.00  0.00     0.129 C 
ATOM     65  C38 E12 d           1.948  58.631  73.680  0.00  0.00    -0.034 C 
ATOM     66  C39 E12 d           0.441  58.348  73.670  0.00  0.00    -0.058 C 
ATOM     67  H23 E12 d           2.351  58.403  74.677  0.00  0.00     0.036 H 
ATOM     68  H24 E12 d           2.439  57.993  72.930  0.00  0.00     0.036 H 
ATOM     69  C36 E12 d          -0.262  59.178  74.760  0.00  0.00    -0.026 C 
ATOM     70  H25 E12 d           0.027  58.616  72.687  0.00  0.00     0.033 H 
ATOM     71  H26 E12 d           0.271  57.279  73.861  0.00  0.00     0.033 H 
ATOM     72  C31 E12 d           0.147  60.663  74.674  0.00  0.00     0.020 A 
ATOM     73  H20 E12 d          -1.351  59.097  74.628  0.00  0.00     0.042 H 
ATOM     74  H21 E12 d           0.017  58.784  75.749  0.00  0.00     0.042 H 
ATOM     75  C32 E12 d           1.308  61.109  74.043  0.00  0.00    -0.005 A 
ATOM     76  N30 E12 d          -0.682  61.576  75.258  0.00  0.00    -0.327 N 
ATOM     77  C33 E12 d           1.589  62.567  74.036  0.00  0.00    -0.068 A 
ATOM     78  C34 E12 d           0.749  63.465  74.623  0.00  0.00    -0.017 A 
ATOM     79  H18 E12 d           2.493  62.928  73.548  0.00  0.00     0.084 H 
ATOM     80  C29 E12 d          -0.515  62.956  75.285  0.00  0.00     0.245 A 
ATOM     81  H19 E12 d           0.983  64.529  74.617  0.00  0.00     0.092 H 
ATOM     82  O35 E12 d          -1.406  63.682  75.748  0.00  0.00    -0.268 OA
ATOM     83  H17 E12 d          -1.494  61.214  75.715  0.00  0.00     0.169 HD
ATOM     84  H22 E12 d           2.038  60.239  72.272  0.00  0.00     0.092 H 
ENDBRANCH  61  64
ENDBRANCH  58  61
ENDBRANCH  55  58
ENDBRANCH  52  55
ENDBRANCH  49  52
ENDBRANCH  46  49
ENDBRANCH  43  46
ENDBRANCH   1  43
TORSDOF 15
ENDMDL
MODEL 10
REMARK VINA RESULT:      -9.4      2.348      9.234
REMARK  15 active torsions:
REMARK  status: ('A' for Active; 'I' for Inactive)
REMARK    1  A    between atoms: C10_11  and  N17_7 
REMARK    2  A    between atoms: N17_7  and  C24_8 
REMARK    3  A    between atoms: C24_8  and  C63_13 
REMARK    4  A    between atoms: C63_13  and  C64_28 
REMARK    5  A    between atoms: N40_26  and  C37_23 
REMARK    6  A    between atoms: C41_27  and  N40_26 
REMARK    7  A    between atoms: C72_36  and  C41_27 
REMARK    8  A    between atoms: C64_28  and  C65_29 
REMARK    9  A    between atoms: C65_29  and  C66_30 
REMARK   10  A    between atoms: C66_30  and  C67_31 
REMARK   11  A    between atoms: C67_31  and  C68_32 
REMARK   12  A    between atoms: C68_32  and  C69_33 
REMARK   13  A    between atoms: C69_33  and  C70_34 
REMARK   14  A    between atoms: C70_34  and  C71_35 
REMARK   15  A    between atoms: C71_35  and  C72_36 
ROOT
ATOM      1  C67 E12 d           0.870  67.957  64.742  0.00  0.00    -0.065 C 
ATOM      2  H37 E12 d           1.517  68.841  64.843  0.00  0.00     0.033 H 
ATOM      3  H38 E12 d           1.483  67.080  64.488  0.00  0.00     0.033 H 
ENDROOT
BRANCH   1   4
ATOM      4  C66 E12 d          -0.110  68.203  63.617  0.00  0.00    -0.065 C 
ATOM      5  H35 E12 d          -0.202  67.288  63.012  0.00  0.00     0.033 H 
ATOM      6  H36 E12 d          -1.090  68.462  64.042  0.00  0.00     0.033 H 
BRANCH   4   7
ATOM      7  C65 E12 d           0.362  69.332  62.735  0.00  0.00    -0.065 C 
ATOM      8  H33 E12 d          -0.502  69.958  62.465  0.00  0.00     0.033 H 
ATOM      9  H34 E12 d           1.094  69.936  63.292  0.00  0.00     0.033 H 
BRANCH   7  10
ATOM     10  C64 E12 d           1.015  68.819  61.460  0.00  0.00    -0.064 C 
ATOM     11  H31 E12 d           0.698  67.781  61.281  0.00  0.00     0.033 H 
ATOM     12  H32 E12 d           0.703  69.448  60.614  0.00  0.00     0.033 H 
BRANCH  10  13
ATOM     13  C63 E12 d           2.519  68.865  61.588  0.00  0.00    -0.043 C 
ATOM     14  H15 E12 d           2.944  69.310  60.676  0.00  0.00     0.035 H 
ATOM     15  H16 E12 d           2.787  69.484  62.457  0.00  0.00     0.035 H 
BRANCH  13  16
ATOM     16  C24 E12 d           3.102  67.453  61.777  0.00  0.00     0.083 C 
ATOM     17  H7  E12 d           2.705  66.989  62.692  0.00  0.00     0.075 H 
ATOM     18  H8  E12 d           2.866  66.816  60.911  0.00  0.00     0.075 H 
BRANCH  16  19
ATOM     19  N17 E12 d           4.619  67.668  61.893  0.00  0.00    -0.067 N 
ATOM     20  H5  E12 d           5.046  67.053  61.219  0.00  0.00     0.277 HD
ATOM     21  H6  E12 d           4.792  68.626  61.630  0.00  0.00     0.277 HD
BRANCH  19  22
ATOM     22  C10 E12 d           5.348  67.445  63.196  0.00  0.00     0.129 C 
ATOM     23  C4  E12 d           4.711  66.272  63.970  0.00  0.00    -0.005 A 
ATOM     24  C3  E12 d           4.221  66.429  65.254  0.00  0.00     0.020 A 
ATOM     25  C5  E12 d           4.692  64.896  63.394  0.00  0.00    -0.068 A 
ATOM     26  N2  E12 d           3.703  65.355  65.920  0.00  0.00    -0.327 N 
ATOM     27  C9  E12 d           4.219  67.771  65.998  0.00  0.00    -0.026 C 
ATOM     28  C1  E12 d           3.624  64.044  65.477  0.00  0.00     0.245 A 
ATOM     29  H1  E12 d           3.337  65.535  66.834  0.00  0.00     0.169 HD
ATOM     30  C6  E12 d           4.176  63.824  64.087  0.00  0.00    -0.017 A 
ATOM     31  O7  E12 d           3.097  63.161  66.182  0.00  0.00    -0.268 OA
ATOM     32  H9  E12 d           4.165  62.831  63.639  0.00  0.00     0.092 H 
ATOM     33  C14 E12 d           4.251  68.953  65.011  0.00  0.00    -0.058 C 
ATOM     34  H10 E12 d           5.105  67.822  66.648  0.00  0.00     0.042 H 
ATOM     35  H11 E12 d           3.310  67.840  66.612  0.00  0.00     0.042 H 
ATOM     36  C13 E12 d           5.417  68.781  63.985  0.00  0.00    -0.034 C 
ATOM     37  H3  E12 d           3.295  68.997  64.469  0.00  0.00     0.033 H 
ATOM     38  H4  E12 d           4.396  69.888  65.572  0.00  0.00     0.033 H 
ATOM     39  H13 E12 d           5.376  69.614  63.268  0.00  0.00     0.036 H 
ATOM     40  H14 E12 d           6.371  68.815  64.532  0.00  0.00     0.036 H 
ATOM     41  H2  E12 d           5.098  64.734  62.397  0.00  0.00     0.084 H 
ATOM     42  H12 E12 d           6.383  67.153  62.962  0.00  0.00     0.092 H 
ENDBRANCH  19  22
ENDBRANCH  16  19
ENDBRANCH  13  16
ENDBRANCH  10  13
ENDBRANCH   7  10
ENDBRANCH   4   7
ENDBRANCH   1   4
BRANCH   1  43
ATOM     43  C68 E12 d           0.192  67.702  66.072  0.00  0.00    -0.065 C 
ATOM     44  H39 E12 d           0.163  66.617  66.246  0.00  0.00     0.033 H 
ATOM     45  H40 E12 d          -0.835  68.093  66.021  0.00  0.00     0.033 H 
BRANCH  43  46
ATOM     46  C69 E12 d           0.897  68.358  67.247  0.00  0.00    -0.065 C 
ATOM     47  H41 E12 d           0.247  69.138  67.669  0.00  0.00     0.033 H 
ATOM     48  H42 E12 d           1.835  68.814  66.896  0.00  0.00     0.033 H 
BRANCH  46  49
ATOM     49  C70 E12 d           1.214  67.337  68.325  0.00  0.00    -0.065 C 
ATOM     50  H43 E12 d           1.327  66.352  67.847  0.00  0.00     0.033 H 
ATOM     51  H44 E12 d           0.373  67.307  69.034  0.00  0.00     0.033 H 
BRANCH  49  52
ATOM     52  C71 E12 d           2.489  67.640  69.107  0.00  0.00    -0.064 C 
ATOM     53  H45 E12 d           2.303  68.509  69.755  0.00  0.00     0.033 H 
ATOM     54  H46 E12 d           3.289  67.881  68.391  0.00  0.00     0.033 H 
BRANCH  52  55
ATOM     55  C72 E12 d           2.959  66.466  69.986  0.00  0.00    -0.043 C 
ATOM     56  H47 E12 d           2.085  66.045  70.505  0.00  0.00     0.035 H 
ATOM     57  H48 E12 d           3.676  66.849  70.728  0.00  0.00     0.035 H 
BRANCH  55  58
ATOM     58  C41 E12 d           3.637  65.346  69.188  0.00  0.00     0.083 C 
ATOM     59  H29 E12 d           4.603  65.086  69.643  0.00  0.00     0.075 H 
ATOM     60  H30 E12 d           3.795  65.664  68.147  0.00  0.00     0.075 H 
BRANCH  58  61
ATOM     61  N40 E12 d           2.717  64.181  69.235  0.00  0.00    -0.067 N 
ATOM     62  H27 E12 d           3.152  63.442  68.706  0.00  0.00     0.277 HD
ATOM     63  H28 E12 d           1.863  64.463  68.781  0.00  0.00     0.277 HD
BRANCH  61  64
ATOM     64  C37 E12 d           2.331  63.595  70.579  0.00  0.00     0.129 C 
ATOM     65  C38 E12 d           0.803  63.745  70.729  0.00  0.00    -0.034 C 
ATOM     66  C39 E12 d           0.303  63.014  71.981  0.00  0.00    -0.058 C 
ATOM     67  H23 E12 d           0.310  63.319  69.842  0.00  0.00     0.036 H 
ATOM     68  H24 E12 d           0.551  64.813  70.812  0.00  0.00     0.036 H 
ATOM     69  C36 E12 d           0.579  61.504  71.859  0.00  0.00    -0.026 C 
ATOM     70  H25 E12 d           0.825  63.409  72.865  0.00  0.00     0.033 H 
ATOM     71  H26 E12 d          -0.779  63.178  72.090  0.00  0.00     0.033 H 
ATOM     72  C31 E12 d           2.048  61.241  71.463  0.00  0.00     0.020 A 
ATOM     73  H20 E12 d           0.376  61.022  72.827  0.00  0.00     0.042 H 
ATOM     74  H21 E12 d          -0.082  61.077  71.091  0.00  0.00     0.042 H 
ATOM     75  C32 E12 d           2.865  62.191  70.851  0.00  0.00    -0.005 A 
ATOM     76  N30 E12 d           2.556  60.004  71.730  0.00  0.00    -0.327 N 
ATOM     77  C33 E12 d           4.259  61.808  70.516  0.00  0.00    -0.068 A 
ATOM     78  C34 E12 d           4.751  60.568  70.791  0.00  0.00    -0.017 A 
ATOM     79  H18 E12 d           4.907  62.540  70.035  0.00  0.00     0.084 H 
ATOM     80  C29 E12 d           3.849  59.560  71.475  0.00  0.00     0.245 A 
ATOM     81  H19 E12 d           5.774  60.305  70.524  0.00  0.00     0.092 H 
ATOM     82  O35 E12 d           4.217  58.448  71.876  0.00  0.00    -0.268 OA
ATOM     83  H17 E12 d           1.933  59.346  72.154  0.00  0.00     0.169 HD
ATOM     84  H22 E12 d           2.791  64.234  71.347  0.00  0.00     0.092 H 
ENDBRANCH  61  64
ENDBRANCH  58  61
ENDBRANCH  55  58
ENDBRANCH  52  55
ENDBRANCH  49  52
ENDBRANCH  46  49
ENDBRANCH  43  46
ENDBRANCH   1  43
TORSDOF 15
ENDMDL
