REMARK  8 active torsions:
REMARK  status: ('A' for Active; 'I' for Inactive)
REMARK    1  A    between atoms: O6_1  and  C6_2 
REMARK    2  A    between atoms: C6_2  and  C5_3 
REMARK    3  A    between atoms: C4_4  and  O4_5 
REMARK    4  A    between atoms: C3_6  and  O3_7 
REMARK    5  A    between atoms: C2_8  and  O2_9 
REMARK    6  A    between atoms: C7_12  and  C9_15 
REMARK    7  A    between atoms: C9_15  and  C10_16 
REMARK    8  A    between atoms: C10_16  and  C14_17 
ROOT
ATOM      1  C5  PGI d          -2.313  10.473   8.629  0.00  0.00     0.065 C 
ATOM      2  C4  PGI d          -1.103  10.642   7.694  0.00  0.00     0.085 C 
ATOM      3  C3  PGI d          -0.266  11.838   8.192  0.00  0.00     0.093 C 
ATOM      4  C2  PGI d           0.364  11.558   9.549  0.00  0.00     0.119 C 
ATOM      5  N1  PGI d          -1.729  10.215   9.971  0.00  0.00    -0.332 N 
ATOM      6  C8  PGI d          -2.213   9.423  10.942  0.00  0.00     0.005 A 
ATOM      7  C7  PGI d          -1.287   9.460  11.973  0.00  0.00     0.052 A 
ATOM      8  N2  PGI d          -0.280  10.254  11.588  0.00  0.00    -0.235 NA
ATOM      9  C1  PGI d          -0.552  10.717  10.368  0.00  0.00     0.138 A 
ATOM     10  H4  PGI d          -2.883  11.414   8.653  0.00  0.00     0.080 H 
ATOM     11  H5  PGI d          -0.488   9.731   7.740  0.00  0.00     0.090 H 
ATOM     12  H7  PGI d          -0.948  12.696   8.284  0.00  0.00     0.091 H 
ATOM     13  H9  PGI d           1.283  10.976   9.388  0.00  0.00     0.099 H 
ATOM     14  H11 PGI d          -3.147   8.863  10.923  0.00  0.00     0.114 H 
ENDROOT
BRANCH   7  15
ATOM     15  C9  PGI d          -1.376   8.766  13.313  0.00  0.00    -0.020 C 
ATOM     16  H12 PGI d          -2.232   8.076  13.310  0.00  0.00     0.042 H 
ATOM     17  H13 PGI d          -1.513   9.517  14.105  0.00  0.00     0.042 H 
BRANCH  15  18
ATOM     18  C10 PGI d          -0.090   7.979  13.577  0.00  0.00    -0.036 C 
ATOM     19  H14 PGI d          -0.168   7.534  14.580  0.00  0.00     0.040 H 
ATOM     20  H15 PGI d           0.750   8.689  13.555  0.00  0.00     0.040 H 
BRANCH  18  21
ATOM     21  C14 PGI d           0.221   6.855  12.588  0.00  0.00    -0.058 A 
ATOM     22  C13 PGI d           1.189   7.031  11.585  0.00  0.00    -0.077 A 
ATOM     23  C12 PGI d           1.500   6.000  10.679  0.00  0.00    -0.082 A 
ATOM     24  H16 PGI d           1.707   7.980  11.507  0.00  0.00     0.084 H 
ATOM     25  C11 PGI d           0.859   4.760  10.771  0.00  0.00    -0.083 A 
ATOM     26  H17 PGI d           2.241   6.168   9.905  0.00  0.00     0.083 H 
ATOM     27  C16 PGI d          -0.105   4.586  11.773  0.00  0.00    -0.082 A 
ATOM     28  H20 PGI d           1.101   3.956  10.086  0.00  0.00     0.083 H 
ATOM     29  C15 PGI d          -0.421   5.613  12.680  0.00  0.00    -0.077 A 
ATOM     30  H19 PGI d          -0.620   3.635  11.851  0.00  0.00     0.083 H 
ATOM     31  H18 PGI d          -1.163   5.444  13.452  0.00  0.00     0.084 H 
ENDBRANCH  18  21
ENDBRANCH  15  18
ENDBRANCH   7  15
BRANCH   1  32
ATOM     32  C6  PGI d          -3.267   9.363   8.200  0.00  0.00     0.038 C 
ATOM     33  H2  PGI d          -4.220   9.499   8.732  0.00  0.00     0.077 H 
ATOM     34  H3  PGI d          -3.436   9.449   7.116  0.00  0.00     0.077 H 
BRANCH  32  35
ATOM     35  O6  PGI d          -2.775   8.045   8.480  0.00  0.00    -0.399 OA
ATOM     36  H1  PGI d          -2.633   7.953   9.415  0.00  0.00     0.209 HD
ENDBRANCH  32  35
ENDBRANCH   1  32
BRANCH   4  37
ATOM     37  O2  PGI d           0.743  12.785  10.155  0.00  0.00    -0.385 OA
ATOM     38  H10 PGI d           1.371  13.231   9.599  0.00  0.00     0.210 HD
ENDBRANCH   4  37
BRANCH   2  39
ATOM     39  O4  PGI d          -1.516  10.841   6.337  0.00  0.00    -0.391 OA
ATOM     40  H6  PGI d          -0.749  10.942   5.785  0.00  0.00     0.210 HD
ENDBRANCH   2  39
BRANCH   3  41
ATOM     41  O3  PGI d           0.814  12.211   7.337  0.00  0.00    -0.390 OA
ATOM     42  H8  PGI d           1.275  12.951   7.715  0.00  0.00     0.210 HD
ENDBRANCH   3  41
TORSDOF 8
