MODEL 1
REMARK VINA RESULT:      -4.8      0.000      0.000
REMARK  4 active torsions:
REMARK  status: ('A' for Active; 'I' for Inactive)
REMARK    1  A    between atoms: C1_1  and  P1_8 
REMARK    2  A    between atoms: N1_10  and  C1_1 
REMARK    3  A    between atoms: C2_2  and  C3_3 
REMARK    4  A    between atoms: C2_2  and  N1_10 
ROOT
ATOM      1  N1  GPF d          59.597   9.062  29.321  0.00  0.00    -0.053 N 
ATOM      2  H5  GPF d          58.655   9.405  29.422  0.00  0.00     0.278 HD
ATOM      3  H6  GPF d          60.241   9.838  29.342  0.00  0.00     0.278 HD
ENDROOT
BRANCH   1   4
ATOM      4  C1  GPF d          59.694   8.465  28.018  0.00  0.00     0.183 C 
ATOM      5  H1  GPF d          59.902   7.391  28.126  0.00  0.00     0.097 H 
ATOM      6  H2  GPF d          58.743   8.602  27.484  0.00  0.00     0.097 H 
BRANCH   4   7
ATOM      7  P1  GPF d          60.948   9.194  27.127  0.00  0.00     0.285 P 
ATOM      8  O1  GPF d          61.910   9.881  28.068  0.00  0.00    -0.638 OA
ATOM      9  O2  GPF d          60.214  10.144  26.219  0.00  0.00    -0.638 OA
ATOM     10  O3  GPF d          61.643   8.039  26.394  0.00  0.00    -0.638 OA
ENDBRANCH   4   7
ENDBRANCH   1   4
BRANCH   1  11
ATOM     11  C2  GPF d          59.879   8.240  30.480  0.00  0.00     0.161 C 
ATOM     12  H3  GPF d          58.937   8.014  31.002  0.00  0.00     0.092 H 
ATOM     13  H4  GPF d          60.350   7.301  30.152  0.00  0.00     0.092 H 
BRANCH  11  14
ATOM     14  C3  GPF d          60.775   8.935  31.387  0.00  0.00     0.199 C 
ATOM     15  O4  GPF d          61.176  10.134  31.080  0.00  0.00    -0.647 OA
ATOM     16  O5  GPF d          61.070   8.329  32.383  0.00  0.00    -0.647 OA
ENDBRANCH  11  14
ENDBRANCH   1  11
TORSDOF 4
ENDMDL
MODEL 2
REMARK VINA RESULT:      -3.5      0.982      1.749
REMARK  4 active torsions:
REMARK  status: ('A' for Active; 'I' for Inactive)
REMARK    1  A    between atoms: C1_1  and  P1_8 
REMARK    2  A    between atoms: N1_10  and  C1_1 
REMARK    3  A    between atoms: C2_2  and  C3_3 
REMARK    4  A    between atoms: C2_2  and  N1_10 
ROOT
ATOM      1  N1  GPF d          59.092   9.211  29.718  0.00  0.00    -0.053 N 
ATOM      2  H5  GPF d          58.247   8.670  29.626  0.00  0.00     0.278 HD
ATOM      3  H6  GPF d          58.949   9.946  30.392  0.00  0.00     0.278 HD
ENDROOT
BRANCH   1   4
ATOM      4  C1  GPF d          59.332   9.841  28.449  0.00  0.00     0.183 C 
ATOM      5  H1  GPF d          58.377   9.960  27.916  0.00  0.00     0.097 H 
ATOM      6  H2  GPF d          59.784  10.830  28.614  0.00  0.00     0.097 H 
BRANCH   4   7
ATOM      7  P1  GPF d          60.385   8.893  27.508  0.00  0.00     0.285 P 
ATOM      8  O1  GPF d          60.349   7.460  27.989  0.00  0.00    -0.638 OA
ATOM      9  O2  GPF d          61.719   9.561  27.711  0.00  0.00    -0.638 OA
ATOM     10  O3  GPF d          59.846   8.994  26.075  0.00  0.00    -0.638 OA
ENDBRANCH   4   7
ENDBRANCH   1   4
BRANCH   1  11
ATOM     11  C2  GPF d          60.109   8.329  30.253  0.00  0.00     0.161 C 
ATOM     12  H3  GPF d          59.629   7.422  30.650  0.00  0.00     0.092 H 
ATOM     13  H4  GPF d          60.808   8.052  29.450  0.00  0.00     0.092 H 
BRANCH  11  14
ATOM     14  C3  GPF d          60.840   8.990  31.320  0.00  0.00     0.199 C 
ATOM     15  O4  GPF d          60.982   8.377  32.459  0.00  0.00    -0.647 OA
ATOM     16  O5  GPF d          61.277  10.077  31.047  0.00  0.00    -0.647 OA
ENDBRANCH  11  14
ENDBRANCH   1  11
TORSDOF 4
ENDMDL
MODEL 3
REMARK VINA RESULT:      -3.2      1.665      4.275
REMARK  4 active torsions:
REMARK  status: ('A' for Active; 'I' for Inactive)
REMARK    1  A    between atoms: C1_1  and  P1_8 
REMARK    2  A    between atoms: N1_10  and  C1_1 
REMARK    3  A    between atoms: C2_2  and  C3_3 
REMARK    4  A    between atoms: C2_2  and  N1_10 
ROOT
ATOM      1  N1  GPF d          60.081   7.553  28.610  0.00  0.00    -0.053 N 
ATOM      2  H5  GPF d          59.814   6.627  28.314  0.00  0.00     0.278 HD
ATOM      3  H6  GPF d          61.083   7.648  28.553  0.00  0.00     0.278 HD
ENDROOT
BRANCH   1   4
ATOM      4  C1  GPF d          59.723   7.674  29.996  0.00  0.00     0.183 C 
ATOM      5  H1  GPF d          58.638   7.830  30.078  0.00  0.00     0.097 H 
ATOM      6  H2  GPF d          60.002   6.751  30.526  0.00  0.00     0.097 H 
BRANCH   4   7
ATOM      7  P1  GPF d          60.535   8.992  30.702  0.00  0.00     0.285 P 
ATOM      8  O1  GPF d          61.753   9.343  29.879  0.00  0.00    -0.638 OA
ATOM      9  O2  GPF d          60.867   8.489  32.082  0.00  0.00    -0.638 OA
ATOM     10  O3  GPF d          59.522  10.144  30.684  0.00  0.00    -0.638 OA
ENDBRANCH   4   7
ENDBRANCH   1   4
BRANCH   1  11
ATOM     11  C2  GPF d          59.507   8.487  27.665  0.00  0.00     0.161 C 
ATOM     12  H3  GPF d          58.746   7.971  27.061  0.00  0.00     0.092 H 
ATOM     13  H4  GPF d          59.037   9.317  28.214  0.00  0.00     0.092 H 
BRANCH  11  14
ATOM     14  C3  GPF d          60.537   9.016  26.788  0.00  0.00     0.199 C 
ATOM     15  O4  GPF d          61.646   8.351  26.646  0.00  0.00    -0.647 OA
ATOM     16  O5  GPF d          60.264  10.052  26.240  0.00  0.00    -0.647 OA
ENDBRANCH  11  14
ENDBRANCH   1  11
TORSDOF 4
ENDMDL
MODEL 4
REMARK VINA RESULT:      -2.7      1.653      4.118
REMARK  4 active torsions:
REMARK  status: ('A' for Active; 'I' for Inactive)
REMARK    1  A    between atoms: C1_1  and  P1_8 
REMARK    2  A    between atoms: N1_10  and  C1_1 
REMARK    3  A    between atoms: C2_2  and  C3_3 
REMARK    4  A    between atoms: C2_2  and  N1_10 
ROOT
ATOM      1  N1  GPF d          60.005   7.763  28.634  0.00  0.00    -0.053 N 
ATOM      2  H5  GPF d          59.460   7.008  28.249  0.00  0.00     0.278 HD
ATOM      3  H6  GPF d          60.983   7.597  28.455  0.00  0.00     0.278 HD
ENDROOT
BRANCH   1   4
ATOM      4  C1  GPF d          59.824   7.731  30.059  0.00  0.00     0.183 C 
ATOM      5  H1  GPF d          58.750   7.777  30.290  0.00  0.00     0.097 H 
ATOM      6  H2  GPF d          60.246   6.797  30.459  0.00  0.00     0.097 H 
BRANCH   4   7
ATOM      7  P1  GPF d          60.610   9.055  30.783  0.00  0.00     0.285 P 
ATOM      8  O1  GPF d          61.022   8.697  32.192  0.00  0.00    -0.638 OA
ATOM      9  O2  GPF d          59.572  10.144  30.720  0.00  0.00    -0.638 OA
ATOM     10  O3  GPF d          61.844   9.317  29.910  0.00  0.00    -0.638 OA
ENDBRANCH   4   7
ENDBRANCH   1   4
BRANCH   1  11
ATOM     11  C2  GPF d          59.636   8.966  27.918  0.00  0.00     0.161 C 
ATOM     12  H3  GPF d          58.601   8.870  27.557  0.00  0.00     0.092 H 
ATOM     13  H4  GPF d          59.709   9.829  28.597  0.00  0.00     0.092 H 
BRANCH  11  14
ATOM     14  C3  GPF d          60.522   9.172  26.785  0.00  0.00     0.199 C 
ATOM     15  O4  GPF d          61.594   8.441  26.684  0.00  0.00    -0.647 OA
ATOM     16  O5  GPF d          60.171  10.018  26.005  0.00  0.00    -0.647 OA
ENDBRANCH  11  14
ENDBRANCH   1  11
TORSDOF 4
ENDMDL
MODEL 5
REMARK VINA RESULT:      -2.4      1.365      2.015
REMARK  4 active torsions:
REMARK  status: ('A' for Active; 'I' for Inactive)
REMARK    1  A    between atoms: C1_1  and  P1_8 
REMARK    2  A    between atoms: N1_10  and  C1_1 
REMARK    3  A    between atoms: C2_2  and  C3_3 
REMARK    4  A    between atoms: C2_2  and  N1_10 
ROOT
ATOM      1  N1  GPF d          59.544   9.514  28.931  0.00  0.00    -0.053 N 
ATOM      2  H5  GPF d          59.118   8.759  28.417  0.00  0.00     0.278 HD
ATOM      3  H6  GPF d          59.134  10.389  28.644  0.00  0.00     0.278 HD
ENDROOT
BRANCH   1   4
ATOM      4  C1  GPF d          60.930   9.552  28.556  0.00  0.00     0.183 C 
ATOM      5  H1  GPF d          61.309  10.579  28.671  0.00  0.00     0.097 H 
ATOM      6  H2  GPF d          61.502   8.876  29.209  0.00  0.00     0.097 H 
BRANCH   4   7
ATOM      7  P1  GPF d          61.119   9.063  26.938  0.00  0.00     0.285 P 
ATOM      8  O1  GPF d          59.769   9.004  26.261  0.00  0.00    -0.638 OA
ATOM      9  O2  GPF d          61.786   7.719  27.063  0.00  0.00    -0.638 OA
ATOM     10  O3  GPF d          61.999  10.141  26.292  0.00  0.00    -0.638 OA
ENDBRANCH   4   7
ENDBRANCH   1   4
BRANCH   1  11
ATOM     11  C2  GPF d          59.211   9.322  30.327  0.00  0.00     0.161 C 
ATOM     12  H3  GPF d          59.508  10.215  30.896  0.00  0.00     0.092 H 
ATOM     13  H4  GPF d          58.126   9.169  30.424  0.00  0.00     0.092 H 
BRANCH  11  14
ATOM     14  C3  GPF d          59.907   8.163  30.858  0.00  0.00     0.199 C 
ATOM     15  O4  GPF d          60.785   8.333  31.803  0.00  0.00    -0.647 OA
ATOM     16  O5  GPF d          59.595   7.108  30.371  0.00  0.00    -0.647 OA
ENDBRANCH  11  14
ENDBRANCH   1  11
TORSDOF 4
ENDMDL
MODEL 6
REMARK VINA RESULT:      -1.8      1.619      4.091
REMARK  4 active torsions:
REMARK  status: ('A' for Active; 'I' for Inactive)
REMARK    1  A    between atoms: C1_1  and  P1_8 
REMARK    2  A    between atoms: N1_10  and  C1_1 
REMARK    3  A    between atoms: C2_2  and  C3_3 
REMARK    4  A    between atoms: C2_2  and  N1_10 
ROOT
ATOM      1  N1  GPF d          59.239   8.288  28.744  0.00  0.00    -0.053 N 
ATOM      2  H5  GPF d          59.312   9.291  28.802  0.00  0.00     0.278 HD
ATOM      3  H6  GPF d          58.273   8.015  28.842  0.00  0.00     0.278 HD
ENDROOT
BRANCH   1   4
ATOM      4  C1  GPF d          59.949   7.744  29.868  0.00  0.00     0.183 C 
ATOM      5  H1  GPF d          59.243   7.209  30.519  0.00  0.00     0.097 H 
ATOM      6  H2  GPF d          60.717   7.044  29.508  0.00  0.00     0.097 H 
BRANCH   4   7
ATOM      7  P1  GPF d          60.696   8.990  30.753  0.00  0.00     0.285 P 
ATOM      8  O1  GPF d          59.734  10.144  30.922  0.00  0.00    -0.638 OA
ATOM      9  O2  GPF d          61.900   9.330  29.916  0.00  0.00    -0.638 OA
ATOM     10  O3  GPF d          61.035   8.368  32.114  0.00  0.00    -0.638 OA
ENDBRANCH   4   7
ENDBRANCH   1   4
BRANCH   1  11
ATOM     11  C2  GPF d          59.658   7.905  27.411  0.00  0.00     0.161 C 
ATOM     12  H3  GPF d          60.235   6.970  27.468  0.00  0.00     0.092 H 
ATOM     13  H4  GPF d          58.770   7.750  26.782  0.00  0.00     0.092 H 
BRANCH  11  14
ATOM     14  C3  GPF d          60.486   8.944  26.825  0.00  0.00     0.199 C 
ATOM     15  O4  GPF d          59.933  10.069  26.479  0.00  0.00    -0.647 OA
ATOM     16  O5  GPF d          61.653   8.671  26.716  0.00  0.00    -0.647 OA
ENDBRANCH  11  14
ENDBRANCH   1  11
TORSDOF 4
ENDMDL
