MODEL 1
REMARK VINA RESULT:      -6.0      0.000      0.000
REMARK  4 active torsions:
REMARK  status: ('A' for Active; 'I' for Inactive)
REMARK    1  A    between atoms: C4_4  and  C6_6 
REMARK    2  A    between atoms: C5_5  and  O8_8 
REMARK    3  A    between atoms: O8_8  and  C9_9 
REMARK    4  A    between atoms: C9_9  and  C10_10 
ROOT
ATOM      1  C1  MOL d          46.848  13.433   3.184  0.00  0.00    -0.024 A 
ATOM      2  C2  MOL d          45.637  13.820   2.569  0.00  0.00     0.052 A 
ATOM      3  S3  MOL d          47.227  14.558   4.399  0.00  0.00    -0.091 SA
ATOM      4  C4  MOL d          45.863  15.550   4.153  0.00  0.00     0.116 A 
ATOM      5  C5  MOL d          45.069  15.010   3.104  0.00  0.00     0.111 A 
ATOM      6 BR19 MOL d          44.861  12.829   1.172  0.00  0.00    -0.048 Br
ATOM      7  H1  MOL d          47.442  12.559   2.922  0.00  0.00     0.097 H 
ENDROOT
BRANCH   5   8
ATOM      8  O8  MOL d          43.826  15.537   2.582  0.00  0.00    -0.338 OA
BRANCH   8   9
ATOM      9  C9  MOL d          43.951  16.847   1.989  0.00  0.00     0.106 C 
ATOM     10  H2  MOL d          44.781  17.382   2.473  0.00  0.00     0.091 H 
ATOM     11  H3  MOL d          43.015  17.403   2.147  0.00  0.00     0.091 H 
BRANCH   9  12
ATOM     12  C10 MOL d          44.227  16.752   0.487  0.00  0.00     0.198 C 
ATOM     13  O13 MOL d          43.685  15.681  -0.113  0.00  0.00    -0.646 OA
ATOM     14  O15 MOL d          44.876  17.552  -0.111  0.00  0.00    -0.646 OA
ENDBRANCH   9  12
ENDBRANCH   8   9
ENDBRANCH   5   8
BRANCH   4  15
ATOM     15  C6  MOL d          45.641  16.702   4.915  0.00  0.00     0.219 C 
ATOM     16  O7  MOL d          46.756  17.263   5.423  0.00  0.00    -0.643 OA
ATOM     17  O14 MOL d          44.544  17.169   5.112  0.00  0.00    -0.643 OA
ENDBRANCH   4  15
TORSDOF 4
ENDMDL
MODEL 2
REMARK VINA RESULT:      -5.8      2.031      4.105
REMARK  4 active torsions:
REMARK  status: ('A' for Active; 'I' for Inactive)
REMARK    1  A    between atoms: C4_4  and  C6_6 
REMARK    2  A    between atoms: C5_5  and  O8_8 
REMARK    3  A    between atoms: O8_8  and  C9_9 
REMARK    4  A    between atoms: C9_9  and  C10_10 
ROOT
ATOM      1  C1  MOL d          45.378  12.896   0.856  0.00  0.00    -0.024 A 
ATOM      2  C2  MOL d          45.747  13.406   2.120  0.00  0.00     0.052 A 
ATOM      3  S3  MOL d          44.504  14.088   0.020  0.00  0.00    -0.091 SA
ATOM      4  C4  MOL d          44.578  15.260   1.255  0.00  0.00     0.116 A 
ATOM      5  C5  MOL d          45.304  14.737   2.361  0.00  0.00     0.111 A 
ATOM      6 BR19 MOL d          46.739  12.396   3.358  0.00  0.00    -0.048 Br
ATOM      7  H1  MOL d          45.615  11.902   0.480  0.00  0.00     0.097 H 
ENDROOT
BRANCH   5   8
ATOM      8  O8  MOL d          45.604  15.403   3.610  0.00  0.00    -0.338 OA
BRANCH   8   9
ATOM      9  C9  MOL d          46.843  16.142   3.595  0.00  0.00     0.106 C 
ATOM     10  H2  MOL d          46.908  16.715   2.658  0.00  0.00     0.091 H 
ATOM     11  H3  MOL d          47.684  15.435   3.651  0.00  0.00     0.091 H 
BRANCH   9  12
ATOM     12  C10 MOL d          46.927  17.110   4.777  0.00  0.00     0.198 C 
ATOM     13  O13 MOL d          45.767  17.300   5.425  0.00  0.00    -0.646 OA
ATOM     14  O15 MOL d          47.931  17.663   5.100  0.00  0.00    -0.646 OA
ENDBRANCH   9  12
ENDBRANCH   8   9
ENDBRANCH   5   8
BRANCH   4  15
ATOM     15  C6  MOL d          43.985  16.520   1.114  0.00  0.00     0.219 C 
ATOM     16  O7  MOL d          44.104  17.062  -0.113  0.00  0.00    -0.643 OA
ATOM     17  O14 MOL d          43.408  17.088   2.010  0.00  0.00    -0.643 OA
ENDBRANCH   4  15
TORSDOF 4
ENDMDL
MODEL 3
REMARK VINA RESULT:      -4.3      2.239      3.851
REMARK  4 active torsions:
REMARK  status: ('A' for Active; 'I' for Inactive)
REMARK    1  A    between atoms: C4_4  and  C6_6 
REMARK    2  A    between atoms: C5_5  and  O8_8 
REMARK    3  A    between atoms: O8_8  and  C9_9 
REMARK    4  A    between atoms: C9_9  and  C10_10 
ROOT
ATOM      1  C1  MOL d          45.095  14.060   1.172  0.00  0.00    -0.024 A 
ATOM      2  C2  MOL d          45.692  13.902   2.443  0.00  0.00     0.052 A 
ATOM      3  S3  MOL d          44.265  15.541   1.139  0.00  0.00    -0.091 SA
ATOM      4  C4  MOL d          44.649  15.994   2.737  0.00  0.00     0.116 A 
ATOM      5  C5  MOL d          45.450  14.983   3.336  0.00  0.00     0.111 A 
ATOM      6 BR19 MOL d          46.716  12.389   2.888  0.00  0.00    -0.048 Br
ATOM      7  H1  MOL d          45.157  13.349   0.350  0.00  0.00     0.097 H 
ENDROOT
BRANCH   5   8
ATOM      8  O8  MOL d          45.996  14.972   4.676  0.00  0.00    -0.338 OA
BRANCH   8   9
ATOM      9  C9  MOL d          46.534  16.244   5.097  0.00  0.00     0.106 C 
ATOM     10  H2  MOL d          46.498  16.303   6.194  0.00  0.00     0.091 H 
ATOM     11  H3  MOL d          45.924  17.052   4.666  0.00  0.00     0.091 H 
BRANCH   9  12
ATOM     12  C10 MOL d          47.983  16.413   4.636  0.00  0.00     0.198 C 
ATOM     13  O13 MOL d          48.623  17.461   5.179  0.00  0.00    -0.646 OA
ATOM     14  O15 MOL d          48.509  15.686   3.853  0.00  0.00    -0.646 OA
ENDBRANCH   9  12
ENDBRANCH   8   9
ENDBRANCH   5   8
BRANCH   4  15
ATOM     15  C6  MOL d          44.198  17.197   3.291  0.00  0.00     0.219 C 
ATOM     16  O7  MOL d          43.892  18.150   2.391  0.00  0.00    -0.643 OA
ATOM     17  O14 MOL d          44.085  17.381   4.480  0.00  0.00    -0.643 OA
ENDBRANCH   4  15
TORSDOF 4
ENDMDL
MODEL 4
REMARK VINA RESULT:      -3.9      2.311      4.125
REMARK  4 active torsions:
REMARK  status: ('A' for Active; 'I' for Inactive)
REMARK    1  A    between atoms: C4_4  and  C6_6 
REMARK    2  A    between atoms: C5_5  and  O8_8 
REMARK    3  A    between atoms: O8_8  and  C9_9 
REMARK    4  A    between atoms: C9_9  and  C10_10 
ROOT
ATOM      1  C1  MOL d          47.568  13.641   3.973  0.00  0.00    -0.024 A 
ATOM      2  C2  MOL d          47.395  15.023   3.735  0.00  0.00     0.052 A 
ATOM      3  S3  MOL d          46.414  12.783   3.070  0.00  0.00    -0.091 SA
ATOM      4  C4  MOL d          45.679  14.154   2.373  0.00  0.00     0.116 A 
ATOM      5  C5  MOL d          46.335  15.328   2.836  0.00  0.00     0.111 A 
ATOM      6 BR19 MOL d          48.485  16.324   4.544  0.00  0.00    -0.048 Br
ATOM      7  H1  MOL d          48.318  13.200   4.627  0.00  0.00     0.097 H 
ENDROOT
BRANCH   5   8
ATOM      8  O8  MOL d          46.031  16.700   2.488  0.00  0.00    -0.338 OA
BRANCH   8   9
ATOM      9  C9  MOL d          44.925  17.258   3.230  0.00  0.00     0.106 C 
ATOM     10  H2  MOL d          43.982  16.925   2.772  0.00  0.00     0.091 H 
ATOM     11  H3  MOL d          44.984  18.356   3.190  0.00  0.00     0.091 H 
BRANCH   9  12
ATOM     12  C10 MOL d          44.955  16.810   4.693  0.00  0.00     0.198 C 
ATOM     13  O13 MOL d          45.779  17.522   5.477  0.00  0.00    -0.646 OA
ATOM     14  O15 MOL d          44.311  15.899   5.111  0.00  0.00    -0.646 OA
ENDBRANCH   9  12
ENDBRANCH   8   9
ENDBRANCH   5   8
BRANCH   4  15
ATOM     15  C6  MOL d          44.599  14.044   1.492  0.00  0.00     0.219 C 
ATOM     16  O7  MOL d          44.424  12.816   0.968  0.00  0.00    -0.643 OA
ATOM     17  O14 MOL d          43.870  14.967   1.213  0.00  0.00    -0.643 OA
ENDBRANCH   4  15
TORSDOF 4
ENDMDL
MODEL 5
REMARK VINA RESULT:      -3.2      2.456      3.330
REMARK  4 active torsions:
REMARK  status: ('A' for Active; 'I' for Inactive)
REMARK    1  A    between atoms: C4_4  and  C6_6 
REMARK    2  A    between atoms: C5_5  and  O8_8 
REMARK    3  A    between atoms: O8_8  and  C9_9 
REMARK    4  A    between atoms: C9_9  and  C10_10 
ROOT
ATOM      1  C1  MOL d          45.534  17.360   1.775  0.00  0.00    -0.024 A 
ATOM      2  C2  MOL d          44.924  16.116   1.499  0.00  0.00     0.052 A 
ATOM      3  S3  MOL d          46.350  17.249   3.261  0.00  0.00    -0.091 SA
ATOM      4  C4  MOL d          45.931  15.627   3.572  0.00  0.00     0.116 A 
ATOM      5  C5  MOL d          45.138  15.129   2.501  0.00  0.00     0.111 A 
ATOM      6 BR19 MOL d          43.924  15.816  -0.065  0.00  0.00    -0.048 Br
ATOM      7  H1  MOL d          45.490  18.243   1.140  0.00  0.00     0.097 H 
ENDROOT
BRANCH   5   8
ATOM      8  O8  MOL d          44.578  13.802   2.365  0.00  0.00    -0.338 OA
BRANCH   8   9
ATOM      9  C9  MOL d          45.547  12.795   2.001  0.00  0.00     0.106 C 
ATOM     10  H2  MOL d          45.329  11.871   2.556  0.00  0.00     0.091 H 
ATOM     11  H3  MOL d          46.553  13.153   2.265  0.00  0.00     0.091 H 
BRANCH   9  12
ATOM     12  C10 MOL d          45.501  12.498   0.500  0.00  0.00     0.198 C 
ATOM     13  O13 MOL d          46.705  12.382  -0.082  0.00  0.00    -0.646 OA
ATOM     14  O15 MOL d          44.487  12.385  -0.113  0.00  0.00    -0.646 OA
ENDBRANCH   9  12
ENDBRANCH   8   9
ENDBRANCH   5   8
BRANCH   4  15
ATOM     15  C6  MOL d          46.349  14.966   4.732  0.00  0.00     0.219 C 
ATOM     16  O7  MOL d          47.680  14.981   4.938  0.00  0.00    -0.643 OA
ATOM     17  O14 MOL d          45.590  14.423   5.499  0.00  0.00    -0.643 OA
ENDBRANCH   4  15
TORSDOF 4
ENDMDL
MODEL 6
REMARK VINA RESULT:      -3.2      2.389      3.478
REMARK  4 active torsions:
REMARK  status: ('A' for Active; 'I' for Inactive)
REMARK    1  A    between atoms: C4_4  and  C6_6 
REMARK    2  A    between atoms: C5_5  and  O8_8 
REMARK    3  A    between atoms: O8_8  and  C9_9 
REMARK    4  A    between atoms: C9_9  and  C10_10 
ROOT
ATOM      1  C1  MOL d          47.007  16.285   4.574  0.00  0.00    -0.024 A 
ATOM      2  C2  MOL d          46.247  15.153   4.201  0.00  0.00     0.052 A 
ATOM      3  S3  MOL d          46.464  17.624   3.682  0.00  0.00    -0.091 SA
ATOM      4  C4  MOL d          45.266  16.782   2.809  0.00  0.00     0.116 A 
ATOM      5  C5  MOL d          45.263  15.416   3.208  0.00  0.00     0.111 A 
ATOM      6 BR19 MOL d          46.531  13.460   4.968  0.00  0.00    -0.048 Br
ATOM      7  H1  MOL d          47.807  16.296   5.312  0.00  0.00     0.097 H 
ENDROOT
BRANCH   5   8
ATOM      8  O8  MOL d          44.402  14.360   2.721  0.00  0.00    -0.338 OA
BRANCH   8   9
ATOM      9  C9  MOL d          44.490  14.147   1.296  0.00  0.00     0.106 C 
ATOM     10  H2  MOL d          44.982  15.015   0.833  0.00  0.00     0.091 H 
ATOM     11  H3  MOL d          43.474  14.040   0.886  0.00  0.00     0.091 H 
BRANCH   9  12
ATOM     12  C10 MOL d          45.293  12.886   0.972  0.00  0.00     0.198 C 
ATOM     13  O13 MOL d          45.983  12.383   2.008  0.00  0.00    -0.646 OA
ATOM     14  O15 MOL d          45.319  12.387  -0.109  0.00  0.00    -0.646 OA
ENDBRANCH   9  12
ENDBRANCH   8   9
ENDBRANCH   5   8
BRANCH   4  15
ATOM     15  C6  MOL d          44.457  17.420   1.863  0.00  0.00     0.219 C 
ATOM     16  O7  MOL d          44.874  17.291   0.589  0.00  0.00    -0.643 OA
ATOM     17  O14 MOL d          43.460  18.039   2.150  0.00  0.00    -0.643 OA
ENDBRANCH   4  15
TORSDOF 4
ENDMDL
