MODEL 1
REMARK VINA RESULT:      -8.6      0.000      0.000
REMARK  6 active torsions:
REMARK  status: ('A' for Active; 'I' for Inactive)
REMARK    1  A    between atoms: C10_10  and  C5_5 
REMARK    2  A    between atoms: C7_7  and  C14_14 
REMARK    3  A    between atoms: C8_8  and  N17_17 
REMARK    4  A    between atoms: N17_17  and  S18_18 
REMARK    5  A    between atoms: S18_18  and  C20_20 
REMARK    6  A    between atoms: C19_19  and  C25_25 
ROOT
ATOM      1  C1  CCT d          10.626  29.411  73.065  0.00  0.00    -0.062 A 
ATOM      2  C2  CCT d          11.896  30.037  73.260  0.00  0.00     0.044 A 
ATOM      3  C3  CCT d          11.971  31.175  74.112  0.00  0.00    -0.062 A 
ATOM      4  C4  CCT d          10.815  31.674  74.754  0.00  0.00    -0.070 A 
ATOM      5  C5  CCT d           9.545  31.053  74.569  0.00  0.00    -0.019 A 
ATOM      6  C6  CCT d           9.468  29.913  73.712  0.00  0.00    -0.070 A 
ATOM      7  C12 CCT d          13.076  29.535  72.620  0.00  0.00     0.099 C 
ATOM      8  N13 CCT d          14.055  29.122  72.110  0.00  0.00    -0.191 NA
ATOM      9  H1  CCT d          10.547  28.545  72.417  0.00  0.00     0.085 H 
ATOM     10  H2  CCT d          12.926  31.665  74.269  0.00  0.00     0.085 H 
ATOM     11  H3  CCT d          10.896  32.543  75.399  0.00  0.00     0.084 H 
ATOM     12  H4  CCT d           8.513  29.426  73.555  0.00  0.00     0.084 H 
ENDROOT
BRANCH   5  13
ATOM     13  C10 CCT d           8.363  31.588  75.269  0.00  0.00     0.018 A 
ATOM     14  C9  CCT d           7.886  32.888  75.317  0.00  0.00    -0.038 A 
ATOM     15  C8  CCT d           6.691  33.034  76.103  0.00  0.00     0.068 A 
ATOM     16  H5  CCT d           8.370  33.720  74.807  0.00  0.00     0.089 H 
ATOM     17  C7  CCT d           6.287  31.819  76.638  0.00  0.00     0.109 A 
ATOM     18  S11 CCT d           7.347  30.569  76.186  0.00  0.00    -0.080 SA
BRANCH  15  19
ATOM     19  N17 CCT d           6.007  34.302  76.311  0.00  0.00    -0.279 N 
ATOM     20  H6  CCT d           5.052  34.402  76.031  0.00  0.00     0.179 HD
BRANCH  19  21
ATOM     21  S18 CCT d           6.813  35.610  77.023  0.00  0.00     0.263 S 
ATOM     22  O26 CCT d           7.381  35.130  78.275  0.00  0.00    -0.200 OA
ATOM     23  O27 CCT d           5.788  36.612  77.227  0.00  0.00    -0.200 OA
BRANCH  21  24
ATOM     24  C20 CCT d           8.099  36.318  76.006  0.00  0.00     0.085 A 
ATOM     25  C19 CCT d           9.486  36.011  76.172  0.00  0.00    -0.039 A 
ATOM     26  C24 CCT d          10.435  36.633  75.298  0.00  0.00    -0.076 A 
ATOM     27  C23 CCT d          10.014  37.536  74.284  0.00  0.00    -0.082 A 
ATOM     28  H10 CCT d          11.489  36.413  75.412  0.00  0.00     0.084 H 
ATOM     29  C22 CCT d           8.634  37.835  74.129  0.00  0.00    -0.081 A 
ATOM     30  H9  CCT d          10.746  37.996  73.629  0.00  0.00     0.083 H 
ATOM     31  C21 CCT d           7.689  37.227  74.984  0.00  0.00    -0.060 A 
ATOM     32  H8  CCT d           8.308  38.526  73.359  0.00  0.00     0.083 H 
ATOM     33  H7  CCT d           6.636  37.453  74.862  0.00  0.00     0.085 H 
BRANCH  25  34
ATOM     34  C25 CCT d           9.996  35.060  77.230  0.00  0.00    -0.050 C 
ATOM     35  H11 CCT d           9.262  34.256  77.385  0.00  0.00     0.033 H 
ATOM     36  H12 CCT d          10.146  35.606  78.172  0.00  0.00     0.033 H 
ATOM     37  H13 CCT d          10.952  34.625  76.901  0.00  0.00     0.033 H 
ENDBRANCH  25  34
ENDBRANCH  21  24
ENDBRANCH  19  21
ENDBRANCH  15  19
BRANCH  17  38
ATOM     38  C14 CCT d           5.086  31.629  77.497  0.00  0.00     0.219 C 
ATOM     39  O15 CCT d           4.037  32.181  77.127  0.00  0.00    -0.643 OA
ATOM     40  O16 CCT d           5.188  30.957  78.554  0.00  0.00    -0.643 OA
ENDBRANCH  17  38
ENDBRANCH   5  13
TORSDOF 6
ENDMDL
MODEL 2
REMARK VINA RESULT:      -5.8      2.261      5.203
REMARK  6 active torsions:
REMARK  status: ('A' for Active; 'I' for Inactive)
REMARK    1  A    between atoms: C10_10  and  C5_5 
REMARK    2  A    between atoms: C7_7  and  C14_14 
REMARK    3  A    between atoms: C8_8  and  N17_17 
REMARK    4  A    between atoms: N17_17  and  S18_18 
REMARK    5  A    between atoms: S18_18  and  C20_20 
REMARK    6  A    between atoms: C19_19  and  C25_25 
ROOT
ATOM      1  C1  CCT d          12.358  30.940  73.513  0.00  0.00    -0.062 A 
ATOM      2  C2  CCT d          12.566  29.602  73.966  0.00  0.00     0.044 A 
ATOM      3  C3  CCT d          11.861  29.155  75.120  0.00  0.00    -0.062 A 
ATOM      4  C4  CCT d          10.970  30.016  75.800  0.00  0.00    -0.070 A 
ATOM      5  C5  CCT d          10.753  31.353  75.352  0.00  0.00    -0.019 A 
ATOM      6  C6  CCT d          11.463  31.802  74.197  0.00  0.00    -0.070 A 
ATOM      7  C12 CCT d          13.461  28.717  73.280  0.00  0.00     0.099 C 
ATOM      8  N13 CCT d          14.183  27.977  72.714  0.00  0.00    -0.191 NA
ATOM      9  H1  CCT d          12.888  31.301  72.638  0.00  0.00     0.085 H 
ATOM     10  H2  CCT d          12.009  28.143  75.480  0.00  0.00     0.085 H 
ATOM     11  H3  CCT d          10.444  29.656  76.677  0.00  0.00     0.084 H 
ATOM     12  H4  CCT d          11.315  32.814  73.839  0.00  0.00     0.084 H 
ENDROOT
BRANCH   5  13
ATOM     13  C10 CCT d           9.804  32.218  76.074  0.00  0.00     0.018 A 
ATOM     14  C9  CCT d           8.663  31.871  76.781  0.00  0.00    -0.038 A 
ATOM     15  C8  CCT d           7.983  32.997  77.364  0.00  0.00     0.068 A 
ATOM     16  H5  CCT d           8.316  30.844  76.886  0.00  0.00     0.089 H 
ATOM     17  C7  CCT d           8.638  34.186  77.078  0.00  0.00     0.109 A 
ATOM     18  S11 CCT d          10.022  33.910  76.131  0.00  0.00    -0.080 SA
BRANCH  15  19
ATOM     19  N17 CCT d           6.758  32.888  78.144  0.00  0.00    -0.279 N 
ATOM     20  H6  CCT d           6.800  32.937  79.141  0.00  0.00     0.179 HD
BRANCH  19  21
ATOM     21  S18 CCT d           5.263  32.680  77.376  0.00  0.00     0.263 S 
ATOM     22  O26 CCT d           5.278  33.511  76.181  0.00  0.00    -0.200 OA
ATOM     23  O27 CCT d           4.283  33.120  78.347  0.00  0.00    -0.200 OA
BRANCH  21  24
ATOM     24  C20 CCT d           4.897  30.989  76.935  0.00  0.00     0.085 A 
ATOM     25  C19 CCT d           5.156  30.445  75.637  0.00  0.00    -0.039 A 
ATOM     26  C24 CCT d           4.827  29.073  75.391  0.00  0.00    -0.076 A 
ATOM     27  C23 CCT d           4.257  28.262  76.410  0.00  0.00    -0.082 A 
ATOM     28  H10 CCT d           5.014  28.647  74.412  0.00  0.00     0.084 H 
ATOM     29  C22 CCT d           4.003  28.812  77.695  0.00  0.00    -0.081 A 
ATOM     30  H9  CCT d           4.016  27.224  76.207  0.00  0.00     0.083 H 
ATOM     31  C21 CCT d           4.325  30.163  77.950  0.00  0.00    -0.060 A 
ATOM     32  H8  CCT d           3.565  28.199  78.474  0.00  0.00     0.083 H 
ATOM     33  H7  CCT d           4.133  30.581  78.932  0.00  0.00     0.085 H 
BRANCH  25  34
ATOM     34  C25 CCT d           5.760  31.254  74.513  0.00  0.00    -0.050 C 
ATOM     35  H11 CCT d           6.829  31.012  74.419  0.00  0.00     0.033 H 
ATOM     36  H12 CCT d           5.646  32.326  74.730  0.00  0.00     0.033 H 
ATOM     37  H13 CCT d           5.246  31.013  73.571  0.00  0.00     0.033 H 
ENDBRANCH  25  34
ENDBRANCH  21  24
ENDBRANCH  19  21
ENDBRANCH  15  19
BRANCH  17  38
ATOM     38  C14 CCT d           8.190  35.530  77.537  0.00  0.00     0.219 C 
ATOM     39  O15 CCT d           8.539  36.504  76.850  0.00  0.00    -0.643 OA
ATOM     40  O16 CCT d           7.517  35.624  78.594  0.00  0.00    -0.643 OA
ENDBRANCH  17  38
ENDBRANCH   5  13
TORSDOF 6
ENDMDL
