MODEL 1
REMARK VINA RESULT:      -6.2      0.000      0.000
REMARK  9 active torsions:
REMARK  status: ('A' for Active; 'I' for Inactive)
REMARK    1  A    between atoms: C1_1  and  C2_3 
REMARK    2  A    between atoms: C2_3  and  C3_4 
REMARK    3  A    between atoms: C3_4  and  C4_5 
REMARK    4  A    between atoms: C4_5  and  C5_6 
REMARK    5  A    between atoms: C5_6  and  C6_7 
REMARK    6  A    between atoms: C6_7  and  C7_8 
REMARK    7  A    between atoms: C7_8  and  C8_9 
REMARK    8  A    between atoms: C8_9  and  C9_10 
REMARK    9  A    between atoms: C9_10  and  C10_11 
ROOT
ATOM      1  C6  DKA d          14.132  -3.844  -0.597  0.00  0.00    -0.065 C 
ATOM      2  H9  DKA d          14.997  -3.239  -0.288  0.00  0.00     0.033 H 
ATOM      3  H10 DKA d          14.028  -3.802  -1.691  0.00  0.00     0.033 H 
ENDROOT
BRANCH   1   4
ATOM      4  C5  DKA d          12.874  -3.276   0.044  0.00  0.00    -0.065 C 
ATOM      5  H7  DKA d          13.131  -2.394   0.648  0.00  0.00     0.033 H 
ATOM      6  H8  DKA d          12.157  -2.987  -0.739  0.00  0.00     0.033 H 
BRANCH   4   7
ATOM      7  C4  DKA d          12.258  -4.348   0.934  0.00  0.00    -0.065 C 
ATOM      8  H5  DKA d          12.414  -5.333   0.468  0.00  0.00     0.033 H 
ATOM      9  H6  DKA d          12.752  -4.325   1.917  0.00  0.00     0.033 H 
BRANCH   7  10
ATOM     10  C3  DKA d          10.768  -4.120   1.122  0.00  0.00    -0.056 C 
ATOM     11  H3  DKA d          10.259  -5.091   1.215  0.00  0.00     0.033 H 
ATOM     12  H4  DKA d          10.602  -3.529   2.035  0.00  0.00     0.033 H 
BRANCH  10  13
ATOM     13  C2  DKA d          10.209  -3.367  -0.077  0.00  0.00     0.016 C 
ATOM     14  H1  DKA d          11.009  -2.767  -0.532  0.00  0.00     0.049 H 
ATOM     15  H2  DKA d           9.829  -4.091  -0.814  0.00  0.00     0.049 H 
BRANCH  13  16
ATOM     16  C1  DKA d           9.086  -2.456   0.347  0.00  0.00     0.172 C 
ATOM     17  O1  DKA d           8.295  -2.869   1.227  0.00  0.00    -0.648 OA
ATOM     18  O2  DKA d           8.988  -1.338  -0.206  0.00  0.00    -0.648 OA
ENDBRANCH  13  16
ENDBRANCH  10  13
ENDBRANCH   7  10
ENDBRANCH   4   7
ENDBRANCH   1   4
BRANCH   1  19
ATOM     19  C7  DKA d          14.364  -5.287  -0.178  0.00  0.00    -0.065 C 
ATOM     20  H11 DKA d          13.695  -5.945  -0.752  0.00  0.00     0.033 H 
ATOM     21  H12 DKA d          14.151  -5.394   0.895  0.00  0.00     0.033 H 
BRANCH  19  22
ATOM     22  C8  DKA d          15.804  -5.675  -0.447  0.00  0.00    -0.065 C 
ATOM     23  H13 DKA d          15.815  -6.619  -1.012  0.00  0.00     0.033 H 
ATOM     24  H14 DKA d          16.317  -5.818   0.515  0.00  0.00     0.033 H 
BRANCH  22  25
ATOM     25  C9  DKA d          16.547  -4.627  -1.241  0.00  0.00    -0.069 C 
ATOM     26  H15 DKA d          16.653  -3.719  -0.630  0.00  0.00     0.032 H 
ATOM     27  H16 DKA d          15.976  -4.391  -2.152  0.00  0.00     0.032 H 
BRANCH  25  28
ATOM     28  C10 DKA d          17.921  -5.125  -1.632  0.00  0.00    -0.077 C 
ATOM     29  H17 DKA d          17.848  -6.167  -1.977  0.00  0.00     0.027 H 
ATOM     30  H18 DKA d          18.591  -5.073  -0.761  0.00  0.00     0.027 H 
ATOM     31  H19 DKA d          18.322  -4.498  -2.442  0.00  0.00     0.027 H 
ENDBRANCH  25  28
ENDBRANCH  22  25
ENDBRANCH  19  22
ENDBRANCH   1  19
TORSDOF 9
ENDMDL
MODEL 2
REMARK VINA RESULT:      -6.0      0.873      1.387
REMARK  9 active torsions:
REMARK  status: ('A' for Active; 'I' for Inactive)
REMARK    1  A    between atoms: C1_1  and  C2_3 
REMARK    2  A    between atoms: C2_3  and  C3_4 
REMARK    3  A    between atoms: C3_4  and  C4_5 
REMARK    4  A    between atoms: C4_5  and  C5_6 
REMARK    5  A    between atoms: C5_6  and  C6_7 
REMARK    6  A    between atoms: C6_7  and  C7_8 
REMARK    7  A    between atoms: C7_8  and  C8_9 
REMARK    8  A    between atoms: C8_9  and  C9_10 
REMARK    9  A    between atoms: C9_10  and  C10_11 
ROOT
ATOM      1  C6  DKA d          13.831  -4.231  -0.345  0.00  0.00    -0.065 C 
ATOM      2  H9  DKA d          14.610  -3.504  -0.072  0.00  0.00     0.033 H 
ATOM      3  H10 DKA d          13.671  -4.204  -1.432  0.00  0.00     0.033 H 
ENDROOT
BRANCH   1   4
ATOM      4  C5  DKA d          12.534  -3.856   0.358  0.00  0.00    -0.065 C 
ATOM      5  H7  DKA d          11.754  -4.591   0.113  0.00  0.00     0.033 H 
ATOM      6  H8  DKA d          12.693  -3.839   1.447  0.00  0.00     0.033 H 
BRANCH   4   7
ATOM      7  C4  DKA d          12.107  -2.473  -0.121  0.00  0.00    -0.065 C 
ATOM      8  H5  DKA d          12.387  -1.729   0.639  0.00  0.00     0.033 H 
ATOM      9  H6  DKA d          12.624  -2.246  -1.065  0.00  0.00     0.033 H 
BRANCH   7  10
ATOM     10  C3  DKA d          10.607  -2.408  -0.349  0.00  0.00    -0.056 C 
ATOM     11  H3  DKA d          10.281  -1.358  -0.331  0.00  0.00     0.033 H 
ATOM     12  H4  DKA d          10.367  -2.850  -1.328  0.00  0.00     0.033 H 
BRANCH  10  13
ATOM     13  C2  DKA d           9.887  -3.181   0.747  0.00  0.00     0.016 C 
ATOM     14  H1  DKA d           9.541  -4.144   0.342  0.00  0.00     0.049 H 
ATOM     15  H2  DKA d          10.582  -3.362   1.580  0.00  0.00     0.049 H 
BRANCH  13  16
ATOM     16  C1  DKA d           8.701  -2.402   1.252  0.00  0.00     0.172 C 
ATOM     17  O1  DKA d           8.877  -1.202   1.566  0.00  0.00    -0.648 OA
ATOM     18  O2  DKA d           7.600  -2.991   1.347  0.00  0.00    -0.648 OA
ENDBRANCH  13  16
ENDBRANCH  10  13
ENDBRANCH   7  10
ENDBRANCH   4   7
ENDBRANCH   1   4
BRANCH   1  19
ATOM     19  C7  DKA d          14.294  -5.623   0.052  0.00  0.00    -0.065 C 
ATOM     20  H11 DKA d          13.703  -6.373  -0.494  0.00  0.00     0.033 H 
ATOM     21  H12 DKA d          14.150  -5.761   1.134  0.00  0.00     0.033 H 
BRANCH  19  22
ATOM     22  C8  DKA d          15.761  -5.793  -0.287  0.00  0.00    -0.065 C 
ATOM     23  H13 DKA d          15.890  -6.743  -0.826  0.00  0.00     0.033 H 
ATOM     24  H14 DKA d          16.339  -5.821   0.649  0.00  0.00     0.033 H 
BRANCH  22  25
ATOM     25  C9  DKA d          16.289  -4.671  -1.149  0.00  0.00    -0.069 C 
ATOM     26  H15 DKA d          16.259  -3.732  -0.577  0.00  0.00     0.032 H 
ATOM     27  H16 DKA d          15.658  -4.575  -2.044  0.00  0.00     0.032 H 
BRANCH  25  28
ATOM     28  C10 DKA d          17.714  -4.948  -1.574  0.00  0.00    -0.077 C 
ATOM     29  H17 DKA d          18.327  -4.050  -1.408  0.00  0.00     0.027 H 
ATOM     30  H18 DKA d          17.734  -5.212  -2.642  0.00  0.00     0.027 H 
ATOM     31  H19 DKA d          18.118  -5.783  -0.982  0.00  0.00     0.027 H 
ENDBRANCH  25  28
ENDBRANCH  22  25
ENDBRANCH  19  22
ENDBRANCH   1  19
TORSDOF 9
ENDMDL
MODEL 3
REMARK VINA RESULT:      -5.9      4.114      6.885
REMARK  9 active torsions:
REMARK  status: ('A' for Active; 'I' for Inactive)
REMARK    1  A    between atoms: C1_1  and  C2_3 
REMARK    2  A    between atoms: C2_3  and  C3_4 
REMARK    3  A    between atoms: C3_4  and  C4_5 
REMARK    4  A    between atoms: C4_5  and  C5_6 
REMARK    5  A    between atoms: C5_6  and  C6_7 
REMARK    6  A    between atoms: C6_7  and  C7_8 
REMARK    7  A    between atoms: C7_8  and  C8_9 
REMARK    8  A    between atoms: C8_9  and  C9_10 
REMARK    9  A    between atoms: C9_10  and  C10_11 
ROOT
ATOM      1  C6  DKA d          12.505  -2.990   0.173  0.00  0.00    -0.065 C 
ATOM      2  H9  DKA d          11.741  -2.724  -0.572  0.00  0.00     0.033 H 
ATOM      3  H10 DKA d          12.625  -2.161   0.885  0.00  0.00     0.033 H 
ENDROOT
BRANCH   1   4
ATOM      4  C5  DKA d          13.829  -3.230  -0.538  0.00  0.00    -0.065 C 
ATOM      5  H7  DKA d          13.726  -2.988  -1.606  0.00  0.00     0.033 H 
ATOM      6  H8  DKA d          14.610  -2.595  -0.093  0.00  0.00     0.033 H 
BRANCH   4   7
ATOM      7  C4  DKA d          14.206  -4.697  -0.377  0.00  0.00    -0.065 C 
ATOM      8  H5  DKA d          14.643  -4.848   0.622  0.00  0.00     0.033 H 
ATOM      9  H6  DKA d          13.299  -5.313  -0.477  0.00  0.00     0.033 H 
BRANCH   7  10
ATOM     10  C3  DKA d          15.214  -5.127  -1.428  0.00  0.00    -0.056 C 
ATOM     11  H3  DKA d          14.832  -6.011  -1.960  0.00  0.00     0.033 H 
ATOM     12  H4  DKA d          15.368  -4.306  -2.144  0.00  0.00     0.033 H 
BRANCH  10  13
ATOM     13  C2  DKA d          16.538  -5.471  -0.759  0.00  0.00     0.016 C 
ATOM     14  H1  DKA d          16.559  -5.029   0.248  0.00  0.00     0.049 H 
ATOM     15  H2  DKA d          16.631  -6.564  -0.682  0.00  0.00     0.049 H 
BRANCH  13  16
ATOM     16  C1  DKA d          17.692  -4.930  -1.562  0.00  0.00     0.172 C 
ATOM     17  O1  DKA d          17.855  -3.689  -1.596  0.00  0.00    -0.648 OA
ATOM     18  O2  DKA d          18.427  -5.744  -2.167  0.00  0.00    -0.648 OA
ENDBRANCH  13  16
ENDBRANCH  10  13
ENDBRANCH   7  10
ENDBRANCH   4   7
ENDBRANCH   1   4
BRANCH   1  19
ATOM     19  C7  DKA d          12.049  -4.228   0.927  0.00  0.00    -0.065 C 
ATOM     20  H11 DKA d          12.591  -4.293   1.882  0.00  0.00     0.033 H 
ATOM     21  H12 DKA d          12.262  -5.122   0.324  0.00  0.00     0.033 H 
BRANCH  19  22
ATOM     22  C8  DKA d          10.561  -4.146   1.198  0.00  0.00    -0.065 C 
ATOM     23  H13 DKA d          10.408  -3.872   2.253  0.00  0.00     0.033 H 
ATOM     24  H14 DKA d          10.112  -5.132   1.007  0.00  0.00     0.033 H 
BRANCH  22  25
ATOM     25  C9  DKA d           9.870  -3.122   0.328  0.00  0.00    -0.069 C 
ATOM     26  H15 DKA d           9.619  -3.582  -0.639  0.00  0.00     0.032 H 
ATOM     27  H16 DKA d          10.547  -2.271   0.164  0.00  0.00     0.032 H 
BRANCH  25  28
ATOM     28  C10 DKA d           8.601  -2.628   0.986  0.00  0.00    -0.077 C 
ATOM     29  H17 DKA d           7.794  -3.357   0.822  0.00  0.00     0.027 H 
ATOM     30  H18 DKA d           8.314  -1.660   0.549  0.00  0.00     0.027 H 
ATOM     31  H19 DKA d           8.772  -2.506   2.066  0.00  0.00     0.027 H 
ENDBRANCH  25  28
ENDBRANCH  22  25
ENDBRANCH  19  22
ENDBRANCH   1  19
TORSDOF 9
ENDMDL
MODEL 4
REMARK VINA RESULT:      -5.6      3.849      6.731
REMARK  9 active torsions:
REMARK  status: ('A' for Active; 'I' for Inactive)
REMARK    1  A    between atoms: C1_1  and  C2_3 
REMARK    2  A    between atoms: C2_3  and  C3_4 
REMARK    3  A    between atoms: C3_4  and  C4_5 
REMARK    4  A    between atoms: C4_5  and  C5_6 
REMARK    5  A    between atoms: C5_6  and  C6_7 
REMARK    6  A    between atoms: C6_7  and  C7_8 
REMARK    7  A    between atoms: C7_8  and  C8_9 
REMARK    8  A    between atoms: C8_9  and  C9_10 
REMARK    9  A    between atoms: C9_10  and  C10_11 
ROOT
ATOM      1  C6  DKA d          11.742  -2.587  -0.260  0.00  0.00    -0.065 C 
ATOM      2  H9  DKA d          11.504  -2.410  -1.319  0.00  0.00     0.033 H 
ATOM      3  H10 DKA d          11.661  -1.642   0.296  0.00  0.00     0.033 H 
ENDROOT
BRANCH   1   4
ATOM      4  C5  DKA d          13.170  -3.105  -0.153  0.00  0.00    -0.065 C 
ATOM      5  H7  DKA d          13.670  -3.019  -1.129  0.00  0.00     0.033 H 
ATOM      6  H8  DKA d          13.723  -2.517   0.595  0.00  0.00     0.033 H 
BRANCH   4   7
ATOM      7  C4  DKA d          13.123  -4.566   0.274  0.00  0.00    -0.065 C 
ATOM      8  H5  DKA d          13.075  -4.618   1.372  0.00  0.00     0.033 H 
ATOM      9  H6  DKA d          12.225  -5.036  -0.155  0.00  0.00     0.033 H 
BRANCH   7  10
ATOM     10  C3  DKA d          14.352  -5.320  -0.203  0.00  0.00    -0.056 C 
ATOM     11  H3  DKA d          14.939  -5.650   0.666  0.00  0.00     0.033 H 
ATOM     12  H4  DKA d          14.038  -6.198  -0.788  0.00  0.00     0.033 H 
BRANCH  10  13
ATOM     13  C2  DKA d          15.206  -4.410  -1.076  0.00  0.00     0.016 C 
ATOM     14  H1  DKA d          14.817  -4.427  -2.104  0.00  0.00     0.049 H 
ATOM     15  H2  DKA d          15.159  -3.384  -0.683  0.00  0.00     0.049 H 
BRANCH  13  16
ATOM     16  C1  DKA d          16.639  -4.874  -1.079  0.00  0.00     0.172 C 
ATOM     17  O1  DKA d          17.461  -4.236  -1.777  0.00  0.00    -0.648 OA
ATOM     18  O2  DKA d          16.940  -5.878  -0.396  0.00  0.00    -0.648 OA
ENDBRANCH  13  16
ENDBRANCH  10  13
ENDBRANCH   7  10
ENDBRANCH   4   7
ENDBRANCH   1   4
BRANCH   1  19
ATOM     19  C7  DKA d          10.748  -3.584   0.311  0.00  0.00    -0.065 C 
ATOM     20  H11 DKA d          11.126  -3.969   1.268  0.00  0.00     0.033 H 
ATOM     21  H12 DKA d          10.620  -4.417  -0.395  0.00  0.00     0.033 H 
BRANCH  19  22
ATOM     22  C8  DKA d           9.411  -2.905   0.535  0.00  0.00    -0.065 C 
ATOM     23  H13 DKA d           9.276  -2.740   1.614  0.00  0.00     0.033 H 
ATOM     24  H14 DKA d           8.613  -3.563   0.161  0.00  0.00     0.033 H 
BRANCH  22  25
ATOM     25  C9  DKA d           9.312  -1.574  -0.174  0.00  0.00    -0.069 C 
ATOM     26  H15 DKA d           9.418  -1.733  -1.257  0.00  0.00     0.032 H 
ATOM     27  H16 DKA d          10.119  -0.915   0.180  0.00  0.00     0.032 H 
BRANCH  25  28
ATOM     28  C10 DKA d           7.978  -0.918   0.103  0.00  0.00    -0.077 C 
ATOM     29  H17 DKA d           7.169  -1.638  -0.084  0.00  0.00     0.027 H 
ATOM     30  H18 DKA d           7.853  -0.047  -0.558  0.00  0.00     0.027 H 
ATOM     31  H19 DKA d           7.941  -0.590   1.153  0.00  0.00     0.027 H 
ENDBRANCH  25  28
ENDBRANCH  22  25
ENDBRANCH  19  22
ENDBRANCH   1  19
TORSDOF 9
ENDMDL
MODEL 5
REMARK VINA RESULT:      -4.8      3.927      6.395
REMARK  9 active torsions:
REMARK  status: ('A' for Active; 'I' for Inactive)
REMARK    1  A    between atoms: C1_1  and  C2_3 
REMARK    2  A    between atoms: C2_3  and  C3_4 
REMARK    3  A    between atoms: C3_4  and  C4_5 
REMARK    4  A    between atoms: C4_5  and  C5_6 
REMARK    5  A    between atoms: C5_6  and  C6_7 
REMARK    6  A    between atoms: C6_7  and  C7_8 
REMARK    7  A    between atoms: C7_8  and  C8_9 
REMARK    8  A    between atoms: C8_9  and  C9_10 
REMARK    9  A    between atoms: C9_10  and  C10_11 
ROOT
ATOM      1  C6  DKA d          11.961  -1.629  -0.567  0.00  0.00    -0.065 C 
ATOM      2  H9  DKA d          11.979  -1.842  -1.645  0.00  0.00     0.033 H 
ATOM      3  H10 DKA d          12.231  -0.577  -0.396  0.00  0.00     0.033 H 
ENDROOT
BRANCH   1   4
ATOM      4  C5  DKA d          12.977  -2.522   0.133  0.00  0.00    -0.065 C 
ATOM      5  H7  DKA d          13.543  -1.933   0.870  0.00  0.00     0.033 H 
ATOM      6  H8  DKA d          12.458  -3.347   0.643  0.00  0.00     0.033 H 
BRANCH   4   7
ATOM      7  C4  DKA d          13.929  -3.085  -0.916  0.00  0.00    -0.065 C 
ATOM      8  H5  DKA d          13.392  -3.183  -1.871  0.00  0.00     0.033 H 
ATOM      9  H6  DKA d          14.775  -2.393  -1.040  0.00  0.00     0.033 H 
BRANCH   7  10
ATOM     10  C3  DKA d          14.460  -4.447  -0.504  0.00  0.00    -0.056 C 
ATOM     11  H3  DKA d          15.025  -4.350   0.434  0.00  0.00     0.033 H 
ATOM     12  H4  DKA d          13.617  -5.138  -0.355  0.00  0.00     0.033 H 
BRANCH  10  13
ATOM     13  C2  DKA d          15.374  -4.991  -1.593  0.00  0.00     0.016 C 
ATOM     14  H1  DKA d          15.027  -5.991  -1.890  0.00  0.00     0.049 H 
ATOM     15  H2  DKA d          15.342  -4.318  -2.463  0.00  0.00     0.049 H 
BRANCH  13  16
ATOM     16  C1  DKA d          16.793  -5.087  -1.093  0.00  0.00     0.172 C 
ATOM     17  O1  DKA d          17.640  -4.298  -1.573  0.00  0.00    -0.648 OA
ATOM     18  O2  DKA d          17.061  -5.956  -0.233  0.00  0.00    -0.648 OA
ENDBRANCH  13  16
ENDBRANCH  10  13
ENDBRANCH   7  10
ENDBRANCH   4   7
ENDBRANCH   1   4
BRANCH   1  19
ATOM     19  C7  DKA d          10.557  -1.871  -0.039  0.00  0.00    -0.065 C 
ATOM     20  H11 DKA d           9.838  -1.291  -0.636  0.00  0.00     0.033 H 
ATOM     21  H12 DKA d          10.501  -1.551   1.012  0.00  0.00     0.033 H 
BRANCH  19  22
ATOM     22  C8  DKA d          10.218  -3.345  -0.135  0.00  0.00    -0.065 C 
ATOM     23  H13 DKA d          11.079  -3.877  -0.565  0.00  0.00     0.033 H 
ATOM     24  H14 DKA d           9.346  -3.465  -0.794  0.00  0.00     0.033 H 
BRANCH  22  25
ATOM     25  C9  DKA d           9.895  -3.952   1.210  0.00  0.00    -0.069 C 
ATOM     26  H15 DKA d           8.929  -4.473   1.149  0.00  0.00     0.032 H 
ATOM     27  H16 DKA d           9.833  -3.152   1.963  0.00  0.00     0.032 H 
BRANCH  25  28
ATOM     28  C10 DKA d          10.965  -4.939   1.623  0.00  0.00    -0.077 C 
ATOM     29  H17 DKA d          10.714  -5.936   1.234  0.00  0.00     0.027 H 
ATOM     30  H18 DKA d          11.024  -4.978   2.721  0.00  0.00     0.027 H 
ATOM     31  H19 DKA d          11.935  -4.620   1.214  0.00  0.00     0.027 H 
ENDBRANCH  25  28
ENDBRANCH  22  25
ENDBRANCH  19  22
ENDBRANCH   1  19
TORSDOF 9
ENDMDL
MODEL 6
REMARK VINA RESULT:      -3.6      3.358      5.876
REMARK  9 active torsions:
REMARK  status: ('A' for Active; 'I' for Inactive)
REMARK    1  A    between atoms: C1_1  and  C2_3 
REMARK    2  A    between atoms: C2_3  and  C3_4 
REMARK    3  A    between atoms: C3_4  and  C4_5 
REMARK    4  A    between atoms: C4_5  and  C5_6 
REMARK    5  A    between atoms: C5_6  and  C6_7 
REMARK    6  A    between atoms: C6_7  and  C7_8 
REMARK    7  A    between atoms: C7_8  and  C8_9 
REMARK    8  A    between atoms: C8_9  and  C9_10 
REMARK    9  A    between atoms: C9_10  and  C10_11 
ROOT
ATOM      1  C6  DKA d          10.854  -2.826  -0.757  0.00  0.00    -0.065 C 
ATOM      2  H9  DKA d          11.271  -3.789  -0.429  0.00  0.00     0.033 H 
ATOM      3  H10 DKA d          10.598  -2.882  -1.825  0.00  0.00     0.033 H 
ENDROOT
BRANCH   1   4
ATOM      4  C5  DKA d          11.898  -1.737  -0.553  0.00  0.00    -0.065 C 
ATOM      5  H7  DKA d          11.652  -0.866  -1.177  0.00  0.00     0.033 H 
ATOM      6  H8  DKA d          11.918  -1.436   0.505  0.00  0.00     0.033 H 
BRANCH   4   7
ATOM      7  C4  DKA d          13.259  -2.291  -0.955  0.00  0.00    -0.065 C 
ATOM      8  H5  DKA d          13.291  -2.403  -2.050  0.00  0.00     0.033 H 
ATOM      9  H6  DKA d          14.041  -1.588  -0.635  0.00  0.00     0.033 H 
BRANCH   7  10
ATOM     10  C3  DKA d          13.516  -3.643  -0.313  0.00  0.00    -0.056 C 
ATOM     11  H3  DKA d          13.338  -3.573   0.770  0.00  0.00     0.033 H 
ATOM     12  H4  DKA d          12.836  -4.390  -0.748  0.00  0.00     0.033 H 
BRANCH  10  13
ATOM     13  C2  DKA d          14.958  -4.065  -0.563  0.00  0.00     0.016 C 
ATOM     14  H1  DKA d          15.197  -3.920  -1.626  0.00  0.00     0.049 H 
ATOM     15  H2  DKA d          15.628  -3.445   0.051  0.00  0.00     0.049 H 
BRANCH  13  16
ATOM     16  C1  DKA d          15.155  -5.514  -0.203  0.00  0.00     0.172 C 
ATOM     17  O1  DKA d          16.247  -6.051  -0.501  0.00  0.00    -0.648 OA
ATOM     18  O2  DKA d          14.217  -6.117   0.366  0.00  0.00    -0.648 OA
ENDBRANCH  13  16
ENDBRANCH  10  13
ENDBRANCH   7  10
ENDBRANCH   4   7
ENDBRANCH   1   4
BRANCH   1  19
ATOM     19  C7  DKA d           9.591  -2.538   0.039  0.00  0.00    -0.065 C 
ATOM     20  H11 DKA d           8.715  -2.642  -0.618  0.00  0.00     0.033 H 
ATOM     21  H12 DKA d           9.634  -1.513   0.433  0.00  0.00     0.033 H 
BRANCH  19  22
ATOM     22  C8  DKA d           9.475  -3.516   1.191  0.00  0.00    -0.065 C 
ATOM     23  H13 DKA d           8.900  -4.391   0.854  0.00  0.00     0.033 H 
ATOM     24  H14 DKA d           8.944  -3.025   2.019  0.00  0.00     0.033 H 
BRANCH  22  25
ATOM     25  C9  DKA d          10.822  -3.985   1.689  0.00  0.00    -0.069 C 
ATOM     26  H15 DKA d          11.079  -3.435   2.606  0.00  0.00     0.032 H 
ATOM     27  H16 DKA d          11.582  -3.787   0.918  0.00  0.00     0.032 H 
BRANCH  25  28
ATOM     28  C10 DKA d          10.796  -5.467   1.989  0.00  0.00    -0.077 C 
ATOM     29  H17 DKA d           9.956  -5.935   1.456  0.00  0.00     0.027 H 
ATOM     30  H18 DKA d          10.673  -5.620   3.072  0.00  0.00     0.027 H 
ATOM     31  H19 DKA d          11.741  -5.925   1.660  0.00  0.00     0.027 H 
ENDBRANCH  25  28
ENDBRANCH  22  25
ENDBRANCH  19  22
ENDBRANCH   1  19
TORSDOF 9
ENDMDL
MODEL 7
REMARK VINA RESULT:      -3.5      3.483      6.956
REMARK  9 active torsions:
REMARK  status: ('A' for Active; 'I' for Inactive)
REMARK    1  A    between atoms: C1_1  and  C2_3 
REMARK    2  A    between atoms: C2_3  and  C3_4 
REMARK    3  A    between atoms: C3_4  and  C4_5 
REMARK    4  A    between atoms: C4_5  and  C5_6 
REMARK    5  A    between atoms: C5_6  and  C6_7 
REMARK    6  A    between atoms: C6_7  and  C7_8 
REMARK    7  A    between atoms: C7_8  and  C8_9 
REMARK    8  A    between atoms: C8_9  and  C9_10 
REMARK    9  A    between atoms: C9_10  and  C10_11 
ROOT
ATOM      1  C6  DKA d           9.701  -2.621   0.309  0.00  0.00    -0.065 C 
ATOM      2  H9  DKA d           8.719  -3.105   0.205  0.00  0.00     0.033 H 
ATOM      3  H10 DKA d           9.942  -2.077  -0.616  0.00  0.00     0.033 H 
ENDROOT
BRANCH   1   4
ATOM      4  C5  DKA d          10.759  -3.689   0.548  0.00  0.00    -0.065 C 
ATOM      5  H7  DKA d          10.880  -3.857   1.628  0.00  0.00     0.033 H 
ATOM      6  H8  DKA d          10.455  -4.628   0.063  0.00  0.00     0.033 H 
BRANCH   4   7
ATOM      7  C4  DKA d          12.076  -3.206  -0.049  0.00  0.00    -0.065 C 
ATOM      8  H5  DKA d          11.929  -2.996  -1.119  0.00  0.00     0.033 H 
ATOM      9  H6  DKA d          12.386  -2.285   0.467  0.00  0.00     0.033 H 
BRANCH   7  10
ATOM     10  C3  DKA d          13.167  -4.251   0.105  0.00  0.00    -0.056 C 
ATOM     11  H3  DKA d          13.341  -4.443   1.174  0.00  0.00     0.033 H 
ATOM     12  H4  DKA d          12.853  -5.183  -0.388  0.00  0.00     0.033 H 
BRANCH  10  13
ATOM     13  C2  DKA d          14.453  -3.748  -0.536  0.00  0.00     0.016 C 
ATOM     14  H1  DKA d          14.203  -3.117  -1.401  0.00  0.00     0.049 H 
ATOM     15  H2  DKA d          15.017  -3.155   0.200  0.00  0.00     0.049 H 
BRANCH  13  16
ATOM     16  C1  DKA d          15.303  -4.905  -0.995  0.00  0.00     0.172 C 
ATOM     17  O1  DKA d          16.197  -5.321  -0.221  0.00  0.00    -0.648 OA
ATOM     18  O2  DKA d          15.086  -5.387  -2.129  0.00  0.00    -0.648 OA
ENDBRANCH  13  16
ENDBRANCH  10  13
ENDBRANCH   7  10
ENDBRANCH   4   7
ENDBRANCH   1   4
BRANCH   1  19
ATOM     19  C7  DKA d           9.643  -1.632   1.462  0.00  0.00    -0.065 C 
ATOM     20  H11 DKA d          10.483  -0.926   1.380  0.00  0.00     0.033 H 
ATOM     21  H12 DKA d           9.715  -2.177   2.414  0.00  0.00     0.033 H 
BRANCH  19  22
ATOM     22  C8  DKA d           8.336  -0.866   1.417  0.00  0.00    -0.065 C 
ATOM     23  H13 DKA d           8.457  -0.001   0.748  0.00  0.00     0.033 H 
ATOM     24  H14 DKA d           8.098  -0.514   2.431  0.00  0.00     0.033 H 
BRANCH  22  25
ATOM     25  C9  DKA d           7.188  -1.711   0.915  0.00  0.00    -0.069 C 
ATOM     26  H15 DKA d           7.304  -1.870  -0.167  0.00  0.00     0.032 H 
ATOM     27  H16 DKA d           6.241  -1.185   1.109  0.00  0.00     0.032 H 
BRANCH  25  28
ATOM     28  C10 DKA d           7.164  -3.052   1.615  0.00  0.00    -0.077 C 
ATOM     29  H17 DKA d           7.526  -2.933   2.647  0.00  0.00     0.027 H 
ATOM     30  H18 DKA d           7.815  -3.758   1.078  0.00  0.00     0.027 H 
ATOM     31  H19 DKA d           6.135  -3.440   1.629  0.00  0.00     0.027 H 
ENDBRANCH  25  28
ENDBRANCH  22  25
ENDBRANCH  19  22
ENDBRANCH   1  19
TORSDOF 9
ENDMDL
