MODEL 1
REMARK VINA RESULT:      -4.1      0.000      0.000
REMARK  11 active torsions:
REMARK  status: ('A' for Active; 'I' for Inactive)
REMARK    1  A    between atoms: C24_1  and  C23_2 
REMARK       I    between atoms: C23_2  and  N22_4 
REMARK    2  A    between atoms: N22_4  and  C19_5 
REMARK    3  A    between atoms: C16_10  and  O14_11 
REMARK    4  A    between atoms: O14_11  and  C13_12 
REMARK    5  A    between atoms: C13_12  and  C11_13 
REMARK    6  A    between atoms: C11_13  and  O11_14 
REMARK    7  A    between atoms: C11_13  and  C12_15 
REMARK    8  A    between atoms: C11_13  and  C10_16 
REMARK       I    between atoms: C10_16  and  N9_18 
REMARK    9  A    between atoms: N9_18  and  C6_19 
REMARK   10  A    between atoms: C3_23  and  N8_24 
REMARK   11  A    between atoms: C4_27  and  C7_28 
ROOT
ATOM      1  C11 B68 d          29.923  -0.201   4.528  0.00  0.00     0.156 C 
ENDROOT
BRANCH   1   2
ATOM      2  C13 B68 d          30.071   1.182   3.913  0.00  0.00     0.063 C 
ATOM      3  H9  B68 d          29.792   1.944   4.657  0.00  0.00     0.080 H 
ATOM      4  H10 B68 d          31.116   1.335   3.607  0.00  0.00     0.080 H 
BRANCH   2   5
ATOM      5  O14 B68 d          29.218   1.305   2.764  0.00  0.00    -0.348 OA
BRANCH   5   6
ATOM      6  C16 B68 d          28.177   2.153   2.990  0.00  0.00     0.069 A 
ATOM      7  C17 B68 d          26.885   1.807   2.603  0.00  0.00    -0.049 A 
ATOM      8  C18 B68 d          25.819   2.657   2.885  0.00  0.00    -0.054 A 
ATOM      9  H6  B68 d          26.709   0.874   2.082  0.00  0.00     0.087 H 
ATOM     10  C19 B68 d          26.032   3.859   3.558  0.00  0.00     0.034 A 
ATOM     11  H5  B68 d          24.817   2.383   2.578  0.00  0.00     0.087 H 
ATOM     12  C20 B68 d          27.325   4.198   3.946  0.00  0.00    -0.054 A 
ATOM     13  C21 B68 d          28.394   3.352   3.665  0.00  0.00    -0.049 A 
ATOM     14  H7  B68 d          27.501   5.129   4.473  0.00  0.00     0.087 H 
ATOM     15  H8  B68 d          29.396   3.627   3.971  0.00  0.00     0.087 H 
BRANCH  10  16
ATOM     16  N22 B68 d          25.041   4.709   3.828  0.00  0.00    -0.328 N 
ATOM     17  C23 B68 d          25.119   6.033   3.708  0.00  0.00     0.218 C 
ATOM     18  O23 B68 d          26.106   6.642   3.296  0.00  0.00    -0.274 OA
ATOM     19  H4  B68 d          24.174   4.324   4.144  0.00  0.00     0.169 HD
BRANCH  17  20
ATOM     20  C24 B68 d          23.845   6.787   4.094  0.00  0.00    -0.003 C 
ATOM     21  H1  B68 d          23.814   7.751   3.565  0.00  0.00     0.040 H 
ATOM     22  H2  B68 d          23.838   6.964   5.179  0.00  0.00     0.040 H 
ATOM     23  H3  B68 d          22.966   6.187   3.815  0.00  0.00     0.040 H 
ENDBRANCH  17  20
ENDBRANCH  10  16
ENDBRANCH   5   6
ENDBRANCH   2   5
ENDBRANCH   1   2
BRANCH   1  24
ATOM     24  O11 B68 d          28.535  -0.525   4.638  0.00  0.00    -0.378 OA
ATOM     25  H11 B68 d          28.160  -0.060   5.376  0.00  0.00     0.211 HD
ENDBRANCH   1  24
BRANCH   1  26
ATOM     26  C12 B68 d          30.640  -1.229   3.651  0.00  0.00    -0.037 C 
ATOM     27  H12 B68 d          31.007  -2.054   4.278  0.00  0.00     0.032 H 
ATOM     28  H13 B68 d          31.488  -0.749   3.141  0.00  0.00     0.032 H 
ATOM     29  H14 B68 d          29.938  -1.623   2.901  0.00  0.00     0.032 H 
ENDBRANCH   1  26
BRANCH   1  30
ATOM     30  C10 B68 d          30.543  -0.178   5.926  0.00  0.00     0.258 C 
ATOM     31  O10 B68 d          31.745  -0.391   6.078  0.00  0.00    -0.270 OA
ATOM     32  N9  B68 d          29.688   0.115   6.905  0.00  0.00    -0.325 N 
ATOM     33  H15 B68 d          28.738   0.286   6.646  0.00  0.00     0.169 HD
BRANCH  32  34
ATOM     34  C6  B68 d          29.994   0.199   8.199  0.00  0.00     0.035 A 
ATOM     35  C5  B68 d          29.036   0.370   9.196  0.00  0.00    -0.040 A 
ATOM     36  C4  B68 d          29.354   0.406  10.554  0.00  0.00     0.083 A 
ATOM     37  H16 B68 d          27.997   0.479   8.904  0.00  0.00     0.088 H 
ATOM     38  C3  B68 d          30.699   0.253  10.912  0.00  0.00     0.118 A 
ATOM     39  C2  B68 d          31.665   0.099   9.921  0.00  0.00    -0.048 A 
ATOM     40  C1  B68 d          31.326   0.069   8.572  0.00  0.00    -0.055 A 
ATOM     41  H18 B68 d          32.706  -0.001  10.207  0.00  0.00     0.087 H 
ATOM     42  H17 B68 d          32.095  -0.054   7.818  0.00  0.00     0.087 H 
BRANCH  36  43
ATOM     43  C7  B68 d          28.221   0.641  11.571  0.00  0.00     0.419 C 
ATOM     44  F2  B68 d          28.297   1.866  12.082  0.00  0.00    -0.166 F 
ATOM     45  F1  B68 d          27.009   0.486  11.045  0.00  0.00    -0.166 F 
ATOM     46  F3  B68 d          28.288  -0.206  12.595  0.00  0.00    -0.166 F 
ENDBRANCH  36  43
BRANCH  38  47
ATOM     47  N8  B68 d          31.140   0.221  12.169  0.00  0.00    -0.115 N 
ATOM     48  O1  B68 d          31.376  -0.986  12.879  0.00  0.00    -0.532 OA
ATOM     49  O2  B68 d          31.493   1.435  12.816  0.00  0.00    -0.532 OA
ENDBRANCH  38  47
ENDBRANCH  32  34
ENDBRANCH   1  30
TORSDOF 11
ENDMDL
MODEL 2
REMARK VINA RESULT:      -4.0      2.244      5.095
REMARK  11 active torsions:
REMARK  status: ('A' for Active; 'I' for Inactive)
REMARK    1  A    between atoms: C24_1  and  C23_2 
REMARK       I    between atoms: C23_2  and  N22_4 
REMARK    2  A    between atoms: N22_4  and  C19_5 
REMARK    3  A    between atoms: C16_10  and  O14_11 
REMARK    4  A    between atoms: O14_11  and  C13_12 
REMARK    5  A    between atoms: C13_12  and  C11_13 
REMARK    6  A    between atoms: C11_13  and  O11_14 
REMARK    7  A    between atoms: C11_13  and  C12_15 
REMARK    8  A    between atoms: C11_13  and  C10_16 
REMARK       I    between atoms: C10_16  and  N9_18 
REMARK    9  A    between atoms: N9_18  and  C6_19 
REMARK   10  A    between atoms: C3_23  and  N8_24 
REMARK   11  A    between atoms: C4_27  and  C7_28 
ROOT
ATOM      1  C11 B68 d          26.485   4.469   3.734  0.00  0.00     0.156 C 
ENDROOT
BRANCH   1   2
ATOM      2  C13 B68 d          25.282   3.574   3.982  0.00  0.00     0.063 C 
ATOM      3  H9  B68 d          25.402   3.061   4.949  0.00  0.00     0.080 H 
ATOM      4  H10 B68 d          24.369   4.187   4.004  0.00  0.00     0.080 H 
BRANCH   2   5
ATOM      5  O14 B68 d          25.171   2.595   2.936  0.00  0.00    -0.348 OA
BRANCH   5   6
ATOM      6  C16 B68 d          26.083   1.594   3.076  0.00  0.00     0.069 A 
ATOM      7  C17 B68 d          25.896   0.592   4.023  0.00  0.00    -0.049 A 
ATOM      8  C18 B68 d          26.808  -0.455   4.124  0.00  0.00    -0.054 A 
ATOM      9  H6  B68 d          25.038   0.626   4.684  0.00  0.00     0.087 H 
ATOM     10  C19 B68 d          27.914  -0.513   3.278  0.00  0.00     0.034 A 
ATOM     11  H5  B68 d          26.657  -1.230   4.866  0.00  0.00     0.087 H 
ATOM     12  C20 B68 d          28.095   0.490   2.330  0.00  0.00    -0.054 A 
ATOM     13  C21 B68 d          27.186   1.539   2.227  0.00  0.00    -0.049 A 
ATOM     14  H7  B68 d          28.950   0.453   1.665  0.00  0.00     0.087 H 
ATOM     15  H8  B68 d          27.337   2.315   1.485  0.00  0.00     0.087 H 
BRANCH  10  16
ATOM     16  N22 B68 d          28.821  -1.487   3.357  0.00  0.00    -0.328 N 
ATOM     17  C23 B68 d          30.139  -1.302   3.371  0.00  0.00     0.218 C 
ATOM     18  O23 B68 d          30.692  -0.203   3.351  0.00  0.00    -0.274 OA
ATOM     19  H4  B68 d          28.485  -2.428   3.409  0.00  0.00     0.169 HD
BRANCH  17  20
ATOM     20  C24 B68 d          30.965  -2.587   3.454  0.00  0.00    -0.003 C 
ATOM     21  H1  B68 d          30.290  -3.454   3.509  0.00  0.00     0.040 H 
ATOM     22  H2  B68 d          31.599  -2.559   4.352  0.00  0.00     0.040 H 
ATOM     23  H3  B68 d          31.600  -2.674   2.559  0.00  0.00     0.040 H 
ENDBRANCH  17  20
ENDBRANCH  10  16
ENDBRANCH   5   6
ENDBRANCH   2   5
ENDBRANCH   1   2
BRANCH   1  24
ATOM     24  O11 B68 d          26.864   4.385   2.358  0.00  0.00    -0.378 OA
ATOM     25  H11 B68 d          26.090   4.244   1.826  0.00  0.00     0.211 HD
ENDBRANCH   1  24
BRANCH   1  26
ATOM     26  C12 B68 d          26.132   5.913   4.098  0.00  0.00    -0.037 C 
ATOM     27  H12 B68 d          25.040   6.042   4.065  0.00  0.00     0.032 H 
ATOM     28  H13 B68 d          26.604   6.598   3.380  0.00  0.00     0.032 H 
ATOM     29  H14 B68 d          26.496   6.134   5.111  0.00  0.00     0.032 H 
ENDBRANCH   1  26
BRANCH   1  30
ATOM     30  C10 B68 d          27.643   3.976   4.602  0.00  0.00     0.258 C 
ATOM     31  O10 B68 d          28.733   4.545   4.568  0.00  0.00    -0.270 OA
ATOM     32  N9  B68 d          27.347   2.936   5.380  0.00  0.00    -0.325 N 
ATOM     33  H15 B68 d          26.416   2.575   5.326  0.00  0.00     0.169 HD
BRANCH  32  34
ATOM     34  C6  B68 d          28.188   2.337   6.223  0.00  0.00     0.035 A 
ATOM     35  C5  B68 d          27.938   2.223   7.590  0.00  0.00    -0.040 A 
ATOM     36  C4  B68 d          28.796   1.550   8.461  0.00  0.00     0.083 A 
ATOM     37  H16 B68 d          27.039   2.675   7.993  0.00  0.00     0.088 H 
ATOM     38  C3  B68 d          29.946   0.964   7.921  0.00  0.00     0.118 A 
ATOM     39  C2  B68 d          30.211   1.088   6.559  0.00  0.00    -0.048 A 
ATOM     40  C1  B68 d          29.344   1.767   5.708  0.00  0.00    -0.055 A 
ATOM     41  H18 B68 d          31.113   0.646   6.153  0.00  0.00     0.087 H 
ATOM     42  H17 B68 d          29.570   1.849   4.651  0.00  0.00     0.087 H 
BRANCH  36  43
ATOM     43  C7  B68 d          28.445   1.518   9.961  0.00  0.00     0.419 C 
ATOM     44  F2  B68 d          29.551   1.517  10.700  0.00  0.00    -0.166 F 
ATOM     45  F1  B68 d          27.694   2.548  10.343  0.00  0.00    -0.166 F 
ATOM     46  F3  B68 d          27.763   0.425  10.289  0.00  0.00    -0.166 F 
ENDBRANCH  36  43
BRANCH  38  47
ATOM     47  N8  B68 d          30.826   0.253   8.626  0.00  0.00    -0.115 N 
ATOM     48  O1  B68 d          32.101   0.752   9.004  0.00  0.00    -0.532 OA
ATOM     49  O2  B68 d          30.454  -1.025   9.120  0.00  0.00    -0.532 OA
ENDBRANCH  38  47
ENDBRANCH  32  34
ENDBRANCH   1  30
TORSDOF 11
ENDMDL
MODEL 3
REMARK VINA RESULT:      -1.7      3.036      5.594
REMARK  11 active torsions:
REMARK  status: ('A' for Active; 'I' for Inactive)
REMARK    1  A    between atoms: C24_1  and  C23_2 
REMARK       I    between atoms: C23_2  and  N22_4 
REMARK    2  A    between atoms: N22_4  and  C19_5 
REMARK    3  A    between atoms: C16_10  and  O14_11 
REMARK    4  A    between atoms: O14_11  and  C13_12 
REMARK    5  A    between atoms: C13_12  and  C11_13 
REMARK    6  A    between atoms: C11_13  and  O11_14 
REMARK    7  A    between atoms: C11_13  and  C12_15 
REMARK    8  A    between atoms: C11_13  and  C10_16 
REMARK       I    between atoms: C10_16  and  N9_18 
REMARK    9  A    between atoms: N9_18  and  C6_19 
REMARK   10  A    between atoms: C3_23  and  N8_24 
REMARK   11  A    between atoms: C4_27  and  C7_28 
ROOT
ATOM      1  C11 B68 d          26.554   4.604   3.809  0.00  0.00     0.156 C 
ENDROOT
BRANCH   1   2
ATOM      2  C13 B68 d          25.265   3.844   4.081  0.00  0.00     0.063 C 
ATOM      3  H9  B68 d          25.344   3.328   5.050  0.00  0.00     0.080 H 
ATOM      4  H10 B68 d          24.424   4.552   4.111  0.00  0.00     0.080 H 
BRANCH   2   5
ATOM      5  O14 B68 d          25.035   2.876   3.045  0.00  0.00    -0.348 OA
BRANCH   5   6
ATOM      6  C16 B68 d          25.905   1.832   3.120  0.00  0.00     0.069 A 
ATOM      7  C17 B68 d          26.966   1.728   2.225  0.00  0.00    -0.049 A 
ATOM      8  C18 B68 d          27.880   0.685   2.341  0.00  0.00    -0.054 A 
ATOM      9  H6  B68 d          27.080   2.462   1.435  0.00  0.00     0.087 H 
ATOM     10  C19 B68 d          27.746  -0.262   3.354  0.00  0.00     0.034 A 
ATOM     11  H5  B68 d          28.702   0.610   1.639  0.00  0.00     0.087 H 
ATOM     12  C20 B68 d          26.687  -0.152   4.250  0.00  0.00    -0.054 A 
ATOM     13  C21 B68 d          25.769   0.888   4.136  0.00  0.00    -0.049 A 
ATOM     14  H7  B68 d          26.575  -0.883   5.043  0.00  0.00     0.087 H 
ATOM     15  H8  B68 d          24.947   0.964   4.838  0.00  0.00     0.087 H 
BRANCH  10  16
ATOM     16  N22 B68 d          28.589  -1.287   3.487  0.00  0.00    -0.328 N 
ATOM     17  C23 B68 d          29.865  -1.278   3.104  0.00  0.00     0.218 C 
ATOM     18  O23 B68 d          30.442  -0.309   2.612  0.00  0.00    -0.274 OA
ATOM     19  H4  B68 d          28.238  -2.125   3.904  0.00  0.00     0.169 HD
BRANCH  17  20
ATOM     20  C24 B68 d          30.617  -2.587   3.355  0.00  0.00    -0.003 C 
ATOM     21  H1  B68 d          30.225  -3.067   4.264  0.00  0.00     0.040 H 
ATOM     22  H2  B68 d          31.688  -2.375   3.485  0.00  0.00     0.040 H 
ATOM     23  H3  B68 d          30.478  -3.260   2.496  0.00  0.00     0.040 H 
ENDBRANCH  17  20
ENDBRANCH  10  16
ENDBRANCH   5   6
ENDBRANCH   2   5
ENDBRANCH   1   2
BRANCH   1  24
ATOM     24  O11 B68 d          26.823   4.594   2.405  0.00  0.00    -0.378 OA
ATOM     25  H11 B68 d          27.574   4.039   2.232  0.00  0.00     0.211 HD
ENDBRANCH   1  24
BRANCH   1  26
ATOM     26  C12 B68 d          26.414   6.043   4.311  0.00  0.00    -0.037 C 
ATOM     27  H12 B68 d          25.860   6.047   5.261  0.00  0.00     0.032 H 
ATOM     28  H13 B68 d          25.869   6.640   3.566  0.00  0.00     0.032 H 
ATOM     29  H14 B68 d          27.413   6.474   4.468  0.00  0.00     0.032 H 
ENDBRANCH   1  26
BRANCH   1  30
ATOM     30  C10 B68 d          27.696   3.899   4.542  0.00  0.00     0.258 C 
ATOM     31  O10 B68 d          28.848   3.974   4.118  0.00  0.00    -0.270 OA
ATOM     32  N9  B68 d          27.328   3.255   5.649  0.00  0.00    -0.325 N 
ATOM     33  H15 B68 d          26.360   3.285   5.895  0.00  0.00     0.169 HD
BRANCH  32  34
ATOM     34  C6  B68 d          28.143   2.574   6.454  0.00  0.00     0.035 A 
ATOM     35  C5  B68 d          29.149   1.733   5.981  0.00  0.00    -0.040 A 
ATOM     36  C4  B68 d          30.033   1.062   6.827  0.00  0.00     0.083 A 
ATOM     37  H16 B68 d          29.249   1.594   4.911  0.00  0.00     0.088 H 
ATOM     38  C3  B68 d          29.894   1.261   8.205  0.00  0.00     0.118 A 
ATOM     39  C2  B68 d          28.881   2.086   8.686  0.00  0.00    -0.048 A 
ATOM     40  C1  B68 d          28.008   2.744   7.826  0.00  0.00    -0.055 A 
ATOM     41  H18 B68 d          28.771   2.220   9.756  0.00  0.00     0.087 H 
ATOM     42  H17 B68 d          27.228   3.383   8.223  0.00  0.00     0.087 H 
BRANCH  36  43
ATOM     43  C7  B68 d          31.083   0.124   6.201  0.00  0.00     0.419 C 
ATOM     44  F2  B68 d          32.051  -0.143   7.072  0.00  0.00    -0.166 F 
ATOM     45  F1  B68 d          30.568  -1.032   5.788  0.00  0.00    -0.166 F 
ATOM     46  F3  B68 d          31.664   0.668   5.136  0.00  0.00    -0.166 F 
ENDBRANCH  36  43
BRANCH  38  47
ATOM     47  N8  B68 d          30.696   0.722   9.124  0.00  0.00    -0.115 N 
ATOM     48  O1  B68 d          31.957   1.274   9.475  0.00  0.00    -0.532 OA
ATOM     49  O2  B68 d          30.246  -0.399   9.871  0.00  0.00    -0.532 OA
ENDBRANCH  38  47
ENDBRANCH  32  34
ENDBRANCH   1  30
TORSDOF 11
ENDMDL
