MODEL 1
REMARK VINA RESULT:      -5.8      0.000      0.000
REMARK  4 active torsions:
REMARK  status: ('A' for Active; 'I' for Inactive)
REMARK    1  A    between atoms: C1_7  and  P1_1 
REMARK    2  A    between atoms: N1_10  and  C1_7 
REMARK    3  A    between atoms: C2_8  and  C3_9 
REMARK    4  A    between atoms: C2_8  and  N1_10 
ROOT
ATOM      1  N1  GPJ d          59.953   7.910  29.375  0.00  0.00    -0.053 N 
ATOM      2  H5  GPJ d          60.915   8.210  29.410  0.00  0.00     0.278 HD
ATOM      3  H6  GPJ d          59.916   6.904  29.315  0.00  0.00     0.278 HD
ENDROOT
BRANCH   1   4
ATOM      4  C1  GPJ d          59.396   8.425  28.129  0.00  0.00     0.183 C 
ATOM      5  H1  GPJ d          58.934   7.596  27.573  0.00  0.00     0.097 H 
ATOM      6  H2  GPJ d          58.631   9.180  28.364  0.00  0.00     0.097 H 
BRANCH   4   7
ATOM      7  P1  GPJ d          60.617   9.151  27.147  0.00  0.00     0.285 P 
ATOM      8  O1  GPJ d          61.572   9.874  28.036  0.00  0.00    -0.638 OA
ATOM      9  O2  GPJ d          59.839  10.044  26.246  0.00  0.00    -0.638 OA
ATOM     10  O3  GPJ d          61.305   8.065  26.385  0.00  0.00    -0.638 OA
ENDBRANCH   4   7
ENDBRANCH   1   4
BRANCH   1  11
ATOM     11  C2  GPJ d          59.344   8.282  30.663  0.00  0.00     0.161 C 
ATOM     12  H3  GPJ d          58.574   9.048  30.490  0.00  0.00     0.092 H 
ATOM     13  H4  GPJ d          58.880   7.391  31.112  0.00  0.00     0.092 H 
BRANCH  11  14
ATOM     14  C3  GPJ d          60.385   8.832  31.615  0.00  0.00     0.199 C 
ATOM     15  O4  GPJ d          60.504   8.310  32.777  0.00  0.00    -0.647 OA
ATOM     16  O5  GPJ d          61.070   9.756  31.206  0.00  0.00    -0.647 OA
ENDBRANCH  11  14
ENDBRANCH   1  11
TORSDOF 4
ENDMDL
MODEL 2
REMARK VINA RESULT:      -5.7      0.221      1.679
REMARK  4 active torsions:
REMARK  status: ('A' for Active; 'I' for Inactive)
REMARK    1  A    between atoms: C1_7  and  P1_1 
REMARK    2  A    between atoms: N1_10  and  C1_7 
REMARK    3  A    between atoms: C2_8  and  C3_9 
REMARK    4  A    between atoms: C2_8  and  N1_10 
ROOT
ATOM      1  N1  GPJ d          60.043   8.032  29.449  0.00  0.00    -0.053 N 
ATOM      2  H5  GPJ d          61.005   8.334  29.439  0.00  0.00     0.278 HD
ATOM      3  H6  GPJ d          60.005   7.036  29.603  0.00  0.00     0.278 HD
ENDROOT
BRANCH   1   4
ATOM      4  C1  GPJ d          59.510   8.272  28.113  0.00  0.00     0.183 C 
ATOM      5  H1  GPJ d          59.296   7.305  27.633  0.00  0.00     0.097 H 
ATOM      6  H2  GPJ d          58.580   8.853  28.197  0.00  0.00     0.097 H 
BRANCH   4   7
ATOM      7  P1  GPJ d          60.633   9.147  27.136  0.00  0.00     0.285 P 
ATOM      8  O1  GPJ d          59.872  10.097  26.275  0.00  0.00    -0.638 OA
ATOM      9  O2  GPJ d          61.330   8.073  26.377  0.00  0.00    -0.638 OA
ATOM     10  O3  GPJ d          61.570   9.875  28.045  0.00  0.00    -0.638 OA
ENDBRANCH   4   7
ENDBRANCH   1   4
BRANCH   1  11
ATOM     11  C2  GPJ d          59.411   8.667  30.619  0.00  0.00     0.161 C 
ATOM     12  H3  GPJ d          58.898   9.585  30.296  0.00  0.00     0.092 H 
ATOM     13  H4  GPJ d          58.679   7.972  31.054  0.00  0.00     0.092 H 
BRANCH  11  14
ATOM     14  C3  GPJ d          60.444   9.020  31.668  0.00  0.00     0.199 C 
ATOM     15  O4  GPJ d          61.162  10.065  31.508  0.00  0.00    -0.647 OA
ATOM     16  O5  GPJ d          60.526   8.273  32.630  0.00  0.00    -0.647 OA
ENDBRANCH  11  14
ENDBRANCH   1  11
TORSDOF 4
ENDMDL
MODEL 3
REMARK VINA RESULT:      -3.4      1.567      1.800
REMARK  4 active torsions:
REMARK  status: ('A' for Active; 'I' for Inactive)
REMARK    1  A    between atoms: C1_7  and  P1_1 
REMARK    2  A    between atoms: N1_10  and  C1_7 
REMARK    3  A    between atoms: C2_8  and  C3_9 
REMARK    4  A    between atoms: C2_8  and  N1_10 
ROOT
ATOM      1  N1  GPJ d          60.995   9.080  29.314  0.00  0.00    -0.053 N 
ATOM      2  H5  GPJ d          60.891  10.081  29.253  0.00  0.00     0.278 HD
ATOM      3  H6  GPJ d          61.922   8.857  29.640  0.00  0.00     0.278 HD
ENDROOT
BRANCH   1   4
ATOM      4  C1  GPJ d          60.891   8.562  27.955  0.00  0.00     0.183 C 
ATOM      5  H1  GPJ d          61.543   9.154  27.295  0.00  0.00     0.097 H 
ATOM      6  H2  GPJ d          61.217   7.511  27.946  0.00  0.00     0.097 H 
BRANCH   4   7
ATOM      7  P1  GPJ d          59.269   8.651  27.370  0.00  0.00     0.285 P 
ATOM      8  O1  GPJ d          58.658   9.920  27.862  0.00  0.00    -0.638 OA
ATOM      9  O2  GPJ d          58.640   7.424  27.930  0.00  0.00    -0.638 OA
ATOM     10  O3  GPJ d          59.311   8.616  25.876  0.00  0.00    -0.638 OA
ENDBRANCH   4   7
ENDBRANCH   1   4
BRANCH   1  11
ATOM     11  C2  GPJ d          60.057   8.617  30.352  0.00  0.00     0.161 C 
ATOM     12  H3  GPJ d          59.066   9.051  30.160  0.00  0.00     0.092 H 
ATOM     13  H4  GPJ d          59.991   7.520  30.314  0.00  0.00     0.092 H 
BRANCH  11  14
ATOM     14  C3  GPJ d          60.524   9.038  31.730  0.00  0.00     0.199 C 
ATOM     15  O4  GPJ d          60.279   8.279  32.729  0.00  0.00    -0.647 OA
ATOM     16  O5  GPJ d          61.128  10.097  31.805  0.00  0.00    -0.647 OA
ENDBRANCH  11  14
ENDBRANCH   1  11
TORSDOF 4
ENDMDL
MODEL 4
REMARK VINA RESULT:      -3.3      1.642      4.277
REMARK  4 active torsions:
REMARK  status: ('A' for Active; 'I' for Inactive)
REMARK    1  A    between atoms: C1_7  and  P1_1 
REMARK    2  A    between atoms: N1_10  and  C1_7 
REMARK    3  A    between atoms: C2_8  and  C3_9 
REMARK    4  A    between atoms: C2_8  and  N1_10 
ROOT
ATOM      1  N1  GPJ d          59.741   7.714  28.977  0.00  0.00    -0.053 N 
ATOM      2  H5  GPJ d          59.511   6.776  28.685  0.00  0.00     0.278 HD
ATOM      3  H6  GPJ d          60.741   7.838  28.948  0.00  0.00     0.278 HD
ENDROOT
BRANCH   1   4
ATOM      4  C1  GPJ d          59.342   7.832  30.375  0.00  0.00     0.183 C 
ATOM      5  H1  GPJ d          58.297   8.173  30.422  0.00  0.00     0.097 H 
ATOM      6  H2  GPJ d          59.428   6.846  30.856  0.00  0.00     0.097 H 
BRANCH   4   7
ATOM      7  P1  GPJ d          60.341   8.958  31.221  0.00  0.00     0.285 P 
ATOM      8  O1  GPJ d          60.853   8.300  32.458  0.00  0.00    -0.638 OA
ATOM      9  O2  GPJ d          59.419  10.096  31.482  0.00  0.00    -0.638 OA
ATOM     10  O3  GPJ d          61.463   9.355  30.316  0.00  0.00    -0.638 OA
ENDBRANCH   4   7
ENDBRANCH   1   4
BRANCH   1  11
ATOM     11  C2  GPJ d          59.171   8.625  27.969  0.00  0.00     0.161 C 
ATOM     12  H3  GPJ d          58.286   8.153  27.518  0.00  0.00     0.092 H 
ATOM     13  H4  GPJ d          58.876   9.564  28.459  0.00  0.00     0.092 H 
BRANCH  11  14
ATOM     14  C3  GPJ d          60.180   8.929  26.881  0.00  0.00     0.199 C 
ATOM     15  O4  GPJ d          61.237   8.215  26.795  0.00  0.00    -0.647 OA
ATOM     16  O5  GPJ d          59.913   9.852  26.128  0.00  0.00    -0.647 OA
ENDBRANCH  11  14
ENDBRANCH   1  11
TORSDOF 4
ENDMDL
MODEL 5
REMARK VINA RESULT:      -3.1      1.646      4.425
REMARK  4 active torsions:
REMARK  status: ('A' for Active; 'I' for Inactive)
REMARK    1  A    between atoms: C1_7  and  P1_1 
REMARK    2  A    between atoms: N1_10  and  C1_7 
REMARK    3  A    between atoms: C2_8  and  C3_9 
REMARK    4  A    between atoms: C2_8  and  N1_10 
ROOT
ATOM      1  N1  GPJ d          59.756   7.730  29.034  0.00  0.00    -0.053 N 
ATOM      2  H5  GPJ d          59.471   6.800  28.768  0.00  0.00     0.278 HD
ATOM      3  H6  GPJ d          60.761   7.796  29.002  0.00  0.00     0.278 HD
ENDROOT
BRANCH   1   4
ATOM      4  C1  GPJ d          59.367   7.907  30.429  0.00  0.00     0.183 C 
ATOM      5  H1  GPJ d          58.365   8.359  30.467  0.00  0.00     0.097 H 
ATOM      6  H2  GPJ d          59.345   6.924  30.922  0.00  0.00     0.097 H 
BRANCH   4   7
ATOM      7  P1  GPJ d          60.477   8.931  31.266  0.00  0.00     0.285 P 
ATOM      8  O1  GPJ d          61.530   9.373  30.306  0.00  0.00    -0.638 OA
ATOM      9  O2  GPJ d          60.987   8.056  32.356  0.00  0.00    -0.638 OA
ATOM     10  O3  GPJ d          59.716  10.097  31.807  0.00  0.00    -0.638 OA
ENDBRANCH   4   7
ENDBRANCH   1   4
BRANCH   1  11
ATOM     11  C2  GPJ d          59.237   8.645  28.003  0.00  0.00     0.161 C 
ATOM     12  H3  GPJ d          58.394   8.163  27.486  0.00  0.00     0.092 H 
ATOM     13  H4  GPJ d          58.890   9.571  28.485  0.00  0.00     0.092 H 
BRANCH  11  14
ATOM     14  C3  GPJ d          60.310   8.985  26.991  0.00  0.00     0.199 C 
ATOM     15  O4  GPJ d          61.306   8.196  26.850  0.00  0.00    -0.647 OA
ATOM     16  O5  GPJ d          60.152  10.011  26.348  0.00  0.00    -0.647 OA
ENDBRANCH  11  14
ENDBRANCH   1  11
TORSDOF 4
ENDMDL
