MODEL 1
REMARK VINA RESULT:      -6.0      0.000      0.000
REMARK  4 active torsions:
REMARK  status: ('A' for Active; 'I' for Inactive)
REMARK    1  A    between atoms: C14_6  and  N2_7 
REMARK    2  A    between atoms: C9_8  and  C8_9 
REMARK       I    between atoms: C8_9  and  N1_11 
REMARK    3  A    between atoms: C4_13  and  C5_14 
REMARK    4  A    between atoms: C2_17  and  C1_18 
ROOT
ATOM      1  C8  SX3 d         -24.820   7.725 -15.866  0.00  0.00     0.256 C 
ATOM      2  O1  SX3 d         -25.539   6.867 -16.379  0.00  0.00    -0.267 OA
ATOM      3  N1  SX3 d         -23.508   7.898 -16.335  0.00  0.00    -0.347 N 
ATOM      4  C6  SX3 d         -22.589   8.773 -15.596  0.00  0.00     0.001 C 
ATOM      5  C4  SX3 d         -21.318   8.070 -15.139  0.00  0.00    -0.042 C 
ATOM      6  C3  SX3 d         -20.634   7.391 -16.317  0.00  0.00    -0.056 C 
ATOM      7  C7  SX3 d         -22.891   7.033 -17.361  0.00  0.00     0.001 C 
ATOM      8  C2  SX3 d         -21.570   6.393 -16.986  0.00  0.00    -0.042 C 
ATOM      9  H6  SX3 d         -23.112   9.159 -14.709  0.00  0.00     0.065 H 
ATOM     10  H7  SX3 d         -22.307   9.613 -16.249  0.00  0.00     0.065 H 
ATOM     11  H8  SX3 d         -21.583   7.299 -14.401  0.00  0.00     0.042 H 
ATOM     12  H12 SX3 d         -19.739   6.861 -15.957  0.00  0.00     0.034 H 
ATOM     13  H13 SX3 d         -20.337   8.156 -17.051  0.00  0.00     0.034 H 
ATOM     14  H14 SX3 d         -22.725   7.644 -18.261  0.00  0.00     0.065 H 
ATOM     15  H15 SX3 d         -23.601   6.226 -17.592  0.00  0.00     0.065 H 
ATOM     16  H16 SX3 d         -21.769   5.574 -16.280  0.00  0.00     0.042 H 
ENDROOT
BRANCH   1  17
ATOM     17  C9  SX3 d         -25.474   8.526 -14.802  0.00  0.00     0.059 A 
ATOM     18  C10 SX3 d         -25.919   9.802 -15.174  0.00  0.00    -0.049 A 
ATOM     19  C11 SX3 d         -26.512  10.636 -14.221  0.00  0.00     0.012 A 
ATOM     20  H1  SX3 d         -25.804  10.140 -16.197  0.00  0.00     0.087 H 
ATOM     21 BR1  SX3 d         -27.107  12.341 -14.790  0.00  0.00    -0.051 Br
ATOM     22  C12 SX3 d         -26.675  10.229 -12.892  0.00  0.00    -0.064 A 
ATOM     23  C13 SX3 d         -26.233   8.942 -12.527  0.00  0.00    -0.055 A 
ATOM     24  H2  SX3 d         -27.130  10.888 -12.161  0.00  0.00     0.085 H 
ATOM     25  C14 SX3 d         -25.619   8.078 -13.460  0.00  0.00     0.041 A 
ATOM     26  H3  SX3 d         -26.366   8.608 -11.505  0.00  0.00     0.087 H 
BRANCH  25  27
ATOM     27  N2  SX3 d         -25.181   6.817 -13.025  0.00  0.00    -0.398 N 
ATOM     28  H4  SX3 d         -24.211   6.692 -12.700  0.00  0.00     0.156 HD
ATOM     29  H5  SX3 d         -25.829   6.016 -13.032  0.00  0.00     0.156 HD
ENDBRANCH  25  27
ENDBRANCH   1  17
BRANCH   5  30
ATOM     30  C5  SX3 d         -20.409   9.084 -14.478  0.00  0.00    -0.071 C 
ATOM     31  H9  SX3 d         -20.375   8.893 -13.394  0.00  0.00     0.028 H 
ATOM     32  H10 SX3 d         -20.796  10.097 -14.660  0.00  0.00     0.028 H 
ATOM     33  H11 SX3 d         -19.395   8.997 -14.897  0.00  0.00     0.028 H 
ENDBRANCH   5  30
BRANCH   8  34
ATOM     34  C1  SX3 d         -20.891   5.819 -18.228  0.00  0.00    -0.071 C 
ATOM     35  H17 SX3 d         -19.885   6.253 -18.330  0.00  0.00     0.028 H 
ATOM     36  H18 SX3 d         -21.488   6.064 -19.119  0.00  0.00     0.028 H 
ATOM     37  H19 SX3 d         -20.810   4.727 -18.129  0.00  0.00     0.028 H 
ENDBRANCH   8  34
TORSDOF 4
ENDMDL
MODEL 2
REMARK VINA RESULT:      -5.9      2.732      6.093
REMARK  4 active torsions:
REMARK  status: ('A' for Active; 'I' for Inactive)
REMARK    1  A    between atoms: C14_6  and  N2_7 
REMARK    2  A    between atoms: C9_8  and  C8_9 
REMARK       I    between atoms: C8_9  and  N1_11 
REMARK    3  A    between atoms: C4_13  and  C5_14 
REMARK    4  A    between atoms: C2_17  and  C1_18 
ROOT
ATOM      1  C8  SX3 d         -24.619  10.414 -16.411  0.00  0.00     0.256 C 
ATOM      2  O1  SX3 d         -24.253  11.277 -17.209  0.00  0.00    -0.267 OA
ATOM      3  N1  SX3 d         -25.858  10.552 -15.764  0.00  0.00    -0.347 N 
ATOM      4  C6  SX3 d         -26.204   9.639 -14.668  0.00  0.00     0.001 C 
ATOM      5  C4  SX3 d         -26.518  10.353 -13.360  0.00  0.00    -0.042 C 
ATOM      6  C3  SX3 d         -27.589  11.412 -13.577  0.00  0.00    -0.056 C 
ATOM      7  C7  SX3 d         -26.725  11.738 -15.914  0.00  0.00     0.001 C 
ATOM      8  C2  SX3 d         -27.148  12.421 -14.629  0.00  0.00    -0.042 C 
ATOM      9  H6  SX3 d         -25.355   8.960 -14.499  0.00  0.00     0.065 H 
ATOM     10  H7  SX3 d         -27.087   9.054 -14.967  0.00  0.00     0.065 H 
ATOM     11  H8  SX3 d         -25.606  10.850 -12.998  0.00  0.00     0.042 H 
ATOM     12  H12 SX3 d         -27.773  11.937 -12.628  0.00  0.00     0.034 H 
ATOM     13  H13 SX3 d         -28.516  10.923 -13.912  0.00  0.00     0.034 H 
ATOM     14  H14 SX3 d         -27.637  11.424 -16.443  0.00  0.00     0.065 H 
ATOM     15  H15 SX3 d         -26.184  12.476 -16.524  0.00  0.00     0.065 H 
ATOM     16  H16 SX3 d         -26.288  12.982 -14.236  0.00  0.00     0.042 H 
ENDROOT
BRANCH   1  17
ATOM     17  C9  SX3 d         -23.682   9.274 -16.257  0.00  0.00     0.059 A 
ATOM     18  C10 SX3 d         -22.548   9.509 -15.468  0.00  0.00    -0.049 A 
ATOM     19  C11 SX3 d         -21.594   8.499 -15.303  0.00  0.00     0.012 A 
ATOM     20  H1  SX3 d         -22.411  10.470 -14.986  0.00  0.00     0.087 H 
ATOM     21 BR1  SX3 d         -20.094   8.872 -14.211  0.00  0.00    -0.051 Br
ATOM     22  C12 SX3 d         -21.743   7.247 -15.912  0.00  0.00    -0.064 A 
ATOM     23  C13 SX3 d         -22.889   7.016 -16.697  0.00  0.00    -0.055 A 
ATOM     24  H2  SX3 d         -20.993   6.474 -15.782  0.00  0.00     0.085 H 
ATOM     25  C14 SX3 d         -23.865   8.017 -16.894  0.00  0.00     0.041 A 
ATOM     26  H3  SX3 d         -23.024   6.046 -17.162  0.00  0.00     0.087 H 
BRANCH  25  27
ATOM     27  N2  SX3 d         -24.973   7.728 -17.707  0.00  0.00    -0.398 N 
ATOM     28  H4  SX3 d         -25.898   7.572 -17.281  0.00  0.00     0.156 HD
ATOM     29  H5  SX3 d         -24.861   7.671 -18.730  0.00  0.00     0.156 HD
ENDBRANCH  25  27
ENDBRANCH   1  17
BRANCH   5  30
ATOM     30  C5  SX3 d         -26.951   9.327 -12.335  0.00  0.00    -0.071 C 
ATOM     31  H9  SX3 d         -26.765   9.719 -11.323  0.00  0.00     0.028 H 
ATOM     32  H10 SX3 d         -26.377   8.399 -12.480  0.00  0.00     0.028 H 
ATOM     33  H11 SX3 d         -28.024   9.118 -12.455  0.00  0.00     0.028 H 
ENDBRANCH   5  30
BRANCH   8  34
ATOM     34  C1  SX3 d         -28.290  13.397 -14.902  0.00  0.00    -0.071 C 
ATOM     35  H17 SX3 d         -28.404  14.078 -14.045  0.00  0.00     0.028 H 
ATOM     36  H18 SX3 d         -29.225  12.836 -15.051  0.00  0.00     0.028 H 
ATOM     37  H19 SX3 d         -28.065  13.982 -15.806  0.00  0.00     0.028 H 
ENDBRANCH   8  34
TORSDOF 4
ENDMDL
MODEL 3
REMARK VINA RESULT:      -5.6      2.425      3.534
REMARK  4 active torsions:
REMARK  status: ('A' for Active; 'I' for Inactive)
REMARK    1  A    between atoms: C14_6  and  N2_7 
REMARK    2  A    between atoms: C9_8  and  C8_9 
REMARK       I    between atoms: C8_9  and  N1_11 
REMARK    3  A    between atoms: C4_13  and  C5_14 
REMARK    4  A    between atoms: C2_17  and  C1_18 
ROOT
ATOM      1  C8  SX3 d         -24.154  10.461 -16.518  0.00  0.00     0.256 C 
ATOM      2  O1  SX3 d         -23.472  11.173 -17.256  0.00  0.00    -0.267 OA
ATOM      3  N1  SX3 d         -23.521   9.581 -15.626  0.00  0.00    -0.347 N 
ATOM      4  C6  SX3 d         -24.325   8.593 -14.896  0.00  0.00     0.001 C 
ATOM      5  C4  SX3 d         -23.882   7.156 -15.135  0.00  0.00    -0.042 C 
ATOM      6  C3  SX3 d         -22.395   7.004 -14.847  0.00  0.00    -0.056 C 
ATOM      7  C7  SX3 d         -22.058   9.383 -15.582  0.00  0.00     0.001 C 
ATOM      8  C2  SX3 d         -21.576   7.952 -15.712  0.00  0.00    -0.042 C 
ATOM      9  H6  SX3 d         -25.373   8.693 -15.215  0.00  0.00     0.065 H 
ATOM     10  H7  SX3 d         -24.248   8.808 -13.820  0.00  0.00     0.065 H 
ATOM     11  H8  SX3 d         -24.059   6.899 -16.189  0.00  0.00     0.042 H 
ATOM     12  H12 SX3 d         -22.091   5.968 -15.059  0.00  0.00     0.034 H 
ATOM     13  H13 SX3 d         -22.209   7.231 -13.786  0.00  0.00     0.034 H 
ATOM     14  H14 SX3 d         -21.694   9.774 -14.620  0.00  0.00     0.065 H 
ATOM     15  H15 SX3 d         -21.615   9.963 -16.405  0.00  0.00     0.065 H 
ATOM     16  H16 SX3 d         -21.681   7.645 -16.762  0.00  0.00     0.042 H 
ENDROOT
BRANCH   1  17
ATOM     17  C9  SX3 d         -25.619  10.663 -16.646  0.00  0.00     0.059 A 
ATOM     18  C10 SX3 d         -26.180  11.653 -15.828  0.00  0.00    -0.049 A 
ATOM     19  C11 SX3 d         -27.560  11.880 -15.859  0.00  0.00     0.012 A 
ATOM     20  H1  SX3 d         -25.546  12.241 -15.175  0.00  0.00     0.087 H 
ATOM     21 BR1  SX3 d         -28.253  13.243 -14.743  0.00  0.00    -0.051 Br
ATOM     22  C12 SX3 d         -28.405  11.138 -16.692  0.00  0.00    -0.064 A 
ATOM     23  C13 SX3 d         -27.833  10.150 -17.516  0.00  0.00    -0.055 A 
ATOM     24  H2  SX3 d         -29.474  11.319 -16.701  0.00  0.00     0.085 H 
ATOM     25  C14 SX3 d         -26.446   9.886 -17.502  0.00  0.00     0.041 A 
ATOM     26  H3  SX3 d         -28.474   9.578 -18.178  0.00  0.00     0.087 H 
BRANCH  25  27
ATOM     27  N2  SX3 d         -25.944   8.871 -18.334  0.00  0.00    -0.398 N 
ATOM     28  H4  SX3 d         -26.105   8.912 -19.351  0.00  0.00     0.156 HD
ATOM     29  H5  SX3 d         -25.415   8.087 -17.927  0.00  0.00     0.156 HD
ENDBRANCH  25  27
ENDBRANCH   1  17
BRANCH   5  30
ATOM     30  C5  SX3 d         -24.713   6.237 -14.264  0.00  0.00    -0.071 C 
ATOM     31  H9  SX3 d         -24.668   6.582 -13.220  0.00  0.00     0.028 H 
ATOM     32  H10 SX3 d         -24.317   5.213 -14.330  0.00  0.00     0.028 H 
ATOM     33  H11 SX3 d         -25.758   6.250 -14.610  0.00  0.00     0.028 H 
ENDBRANCH   5  30
BRANCH   8  34
ATOM     34  C1  SX3 d         -20.105   7.854 -15.315  0.00  0.00    -0.071 C 
ATOM     35  H17 SX3 d         -19.803   6.796 -15.283  0.00  0.00     0.028 H 
ATOM     36  H18 SX3 d         -19.961   8.306 -14.322  0.00  0.00     0.028 H 
ATOM     37  H19 SX3 d         -19.489   8.388 -16.054  0.00  0.00     0.028 H 
ENDBRANCH   8  34
TORSDOF 4
ENDMDL
MODEL 4
REMARK VINA RESULT:      -5.4      2.418      5.756
REMARK  4 active torsions:
REMARK  status: ('A' for Active; 'I' for Inactive)
REMARK    1  A    between atoms: C14_6  and  N2_7 
REMARK    2  A    between atoms: C9_8  and  C8_9 
REMARK       I    between atoms: C8_9  and  N1_11 
REMARK    3  A    between atoms: C4_13  and  C5_14 
REMARK    4  A    between atoms: C2_17  and  C1_18 
ROOT
ATOM      1  C8  SX3 d         -24.676   8.829 -17.009  0.00  0.00     0.256 C 
ATOM      2  O1  SX3 d         -24.742   9.407 -18.094  0.00  0.00    -0.267 OA
ATOM      3  N1  SX3 d         -25.791   8.835 -16.155  0.00  0.00    -0.347 N 
ATOM      4  C6  SX3 d         -25.651   8.326 -14.785  0.00  0.00     0.001 C 
ATOM      5  C4  SX3 d         -26.024   9.347 -13.718  0.00  0.00    -0.042 C 
ATOM      6  C3  SX3 d         -27.417   9.902 -13.979  0.00  0.00    -0.056 C 
ATOM      7  C7  SX3 d         -27.031   9.585 -16.441  0.00  0.00     0.001 C 
ATOM      8  C2  SX3 d         -27.497  10.538 -15.360  0.00  0.00    -0.042 C 
ATOM      9  H6  SX3 d         -24.604   8.027 -14.630  0.00  0.00     0.065 H 
ATOM     10  H7  SX3 d         -26.304   7.448 -14.671  0.00  0.00     0.065 H 
ATOM     11  H8  SX3 d         -25.307  10.179 -13.755  0.00  0.00     0.042 H 
ATOM     12  H12 SX3 d         -27.650  10.661 -13.218  0.00  0.00     0.034 H 
ATOM     13  H13 SX3 d         -28.149   9.083 -13.916  0.00  0.00     0.034 H 
ATOM     14  H14 SX3 d         -27.834   8.854 -16.614  0.00  0.00     0.065 H 
ATOM     15  H15 SX3 d         -26.865  10.171 -17.358  0.00  0.00     0.065 H 
ATOM     16  H16 SX3 d         -26.845  11.424 -15.375  0.00  0.00     0.042 H 
ENDROOT
BRANCH   1  17
ATOM     17  C9  SX3 d         -23.388   8.141 -16.750  0.00  0.00     0.059 A 
ATOM     18  C10 SX3 d         -22.498   8.799 -15.891  0.00  0.00    -0.049 A 
ATOM     19  C11 SX3 d         -21.245   8.237 -15.624  0.00  0.00     0.012 A 
ATOM     20  H1  SX3 d         -22.780   9.741 -15.434  0.00  0.00     0.087 H 
ATOM     21 BR1  SX3 d         -20.096   9.167 -14.442  0.00  0.00    -0.051 Br
ATOM     22  C12 SX3 d         -20.851   7.023 -16.198  0.00  0.00    -0.064 A 
ATOM     23  C13 SX3 d         -21.754   6.363 -17.054  0.00  0.00    -0.055 A 
ATOM     24  H2  SX3 d         -19.875   6.601 -15.989  0.00  0.00     0.085 H 
ATOM     25  C14 SX3 d         -23.021   6.907 -17.355  0.00  0.00     0.041 A 
ATOM     26  H3  SX3 d         -21.468   5.414 -17.494  0.00  0.00     0.087 H 
BRANCH  25  27
ATOM     27  N2  SX3 d         -23.865   6.209 -18.234  0.00  0.00    -0.398 N 
ATOM     28  H4  SX3 d         -24.160   6.645 -19.120  0.00  0.00     0.156 HD
ATOM     29  H5  SX3 d         -24.188   5.261 -17.994  0.00  0.00     0.156 HD
ENDBRANCH  25  27
ENDBRANCH   1  17
BRANCH   5  30
ATOM     30  C5  SX3 d         -25.935   8.688 -12.358  0.00  0.00    -0.071 C 
ATOM     31  H9  SX3 d         -26.632   9.182 -11.665  0.00  0.00     0.028 H 
ATOM     32  H10 SX3 d         -24.908   8.780 -11.973  0.00  0.00     0.028 H 
ATOM     33  H11 SX3 d         -26.199   7.624 -12.448  0.00  0.00     0.028 H 
ENDBRANCH   5  30
BRANCH   8  34
ATOM     34  C1  SX3 d         -28.934  10.980 -15.630  0.00  0.00    -0.071 C 
ATOM     35  H17 SX3 d         -29.347  10.394 -16.465  0.00  0.00     0.028 H 
ATOM     36  H18 SX3 d         -28.946  12.049 -15.891  0.00  0.00     0.028 H 
ATOM     37  H19 SX3 d         -29.544  10.815 -14.730  0.00  0.00     0.028 H 
ENDBRANCH   8  34
TORSDOF 4
ENDMDL
MODEL 5
REMARK VINA RESULT:      -5.3      2.403      5.785
REMARK  4 active torsions:
REMARK  status: ('A' for Active; 'I' for Inactive)
REMARK    1  A    between atoms: C14_6  and  N2_7 
REMARK    2  A    between atoms: C9_8  and  C8_9 
REMARK       I    between atoms: C8_9  and  N1_11 
REMARK    3  A    between atoms: C4_13  and  C5_14 
REMARK    4  A    between atoms: C2_17  and  C1_18 
ROOT
ATOM      1  C8  SX3 d         -24.919   6.836 -14.772  0.00  0.00     0.256 C 
ATOM      2  O1  SX3 d         -25.312   5.670 -14.733  0.00  0.00    -0.267 OA
ATOM      3  N1  SX3 d         -25.662   7.838 -14.127  0.00  0.00    -0.347 N 
ATOM      4  C6  SX3 d         -25.308   9.247 -14.340  0.00  0.00     0.001 C 
ATOM      5  C4  SX3 d         -26.455  10.082 -14.893  0.00  0.00    -0.042 C 
ATOM      6  C3  SX3 d         -27.691   9.932 -14.018  0.00  0.00    -0.056 C 
ATOM      7  C7  SX3 d         -26.963   7.591 -13.472  0.00  0.00     0.001 C 
ATOM      8  C2  SX3 d         -28.111   8.472 -13.919  0.00  0.00    -0.042 C 
ATOM      9  H6  SX3 d         -24.470   9.292 -15.051  0.00  0.00     0.065 H 
ATOM     10  H7  SX3 d         -24.996   9.678 -13.377  0.00  0.00     0.065 H 
ATOM     11  H8  SX3 d         -26.701   9.726 -15.904  0.00  0.00     0.042 H 
ATOM     12  H12 SX3 d         -28.515  10.516 -14.455  0.00  0.00     0.034 H 
ATOM     13  H13 SX3 d         -27.468  10.313 -13.010  0.00  0.00     0.034 H 
ATOM     14  H14 SX3 d         -26.828   7.737 -12.390  0.00  0.00     0.065 H 
ATOM     15  H15 SX3 d         -27.244   6.546 -13.668  0.00  0.00     0.065 H 
ATOM     16  H16 SX3 d         -28.440   8.135 -14.912  0.00  0.00     0.042 H 
ENDROOT
BRANCH   1  17
ATOM     17  C9  SX3 d         -23.636   7.034 -15.491  0.00  0.00     0.059 A 
ATOM     18  C10 SX3 d         -22.636   7.724 -14.792  0.00  0.00    -0.049 A 
ATOM     19  C11 SX3 d         -21.410   7.987 -15.412  0.00  0.00     0.012 A 
ATOM     20  H1  SX3 d         -22.812   8.052 -13.775  0.00  0.00     0.087 H 
ATOM     21 BR1  SX3 d         -20.095   8.907 -14.409  0.00  0.00    -0.051 Br
ATOM     22  C12 SX3 d         -21.152   7.576 -16.725  0.00  0.00    -0.064 A 
ATOM     23  C13 SX3 d         -22.158   6.876 -17.418  0.00  0.00    -0.055 A 
ATOM     24  H2  SX3 d         -20.199   7.791 -17.197  0.00  0.00     0.085 H 
ATOM     25  C14 SX3 d         -23.412   6.605 -16.828  0.00  0.00     0.041 A 
ATOM     26  H3  SX3 d         -21.966   6.539 -18.430  0.00  0.00     0.087 H 
BRANCH  25  27
ATOM     27  N2  SX3 d         -24.380   5.922 -17.582  0.00  0.00    -0.398 N 
ATOM     28  H4  SX3 d         -25.357   5.888 -17.257  0.00  0.00     0.156 HD
ATOM     29  H5  SX3 d         -24.113   5.455 -18.460  0.00  0.00     0.156 HD
ENDBRANCH  25  27
ENDBRANCH   1  17
BRANCH   5  30
ATOM     30  C5  SX3 d         -26.010  11.527 -14.982  0.00  0.00    -0.071 C 
ATOM     31  H9  SX3 d         -25.700  11.876 -13.986  0.00  0.00     0.028 H 
ATOM     32  H10 SX3 d         -26.844  12.145 -15.345  0.00  0.00     0.028 H 
ATOM     33  H11 SX3 d         -25.162  11.607 -15.679  0.00  0.00     0.028 H 
ENDBRANCH   5  30
BRANCH   8  34
ATOM     34  C1  SX3 d         -29.281   8.348 -12.944  0.00  0.00    -0.071 C 
ATOM     35  H17 SX3 d         -29.847   9.291 -12.929  0.00  0.00     0.028 H 
ATOM     36  H18 SX3 d         -28.897   8.135 -11.936  0.00  0.00     0.028 H 
ATOM     37  H19 SX3 d         -29.941   7.529 -13.266  0.00  0.00     0.028 H 
ENDBRANCH   8  34
TORSDOF 4
ENDMDL
MODEL 6
REMARK VINA RESULT:      -5.0      2.920      4.029
REMARK  4 active torsions:
REMARK  status: ('A' for Active; 'I' for Inactive)
REMARK    1  A    between atoms: C14_6  and  N2_7 
REMARK    2  A    between atoms: C9_8  and  C8_9 
REMARK       I    between atoms: C8_9  and  N1_11 
REMARK    3  A    between atoms: C4_13  and  C5_14 
REMARK    4  A    between atoms: C2_17  and  C1_18 
ROOT
ATOM      1  C8  SX3 d         -24.299  10.509 -16.583  0.00  0.00     0.256 C 
ATOM      2  O1  SX3 d         -23.613  11.230 -17.307  0.00  0.00    -0.267 OA
ATOM      3  N1  SX3 d         -23.671   9.662 -15.656  0.00  0.00    -0.347 N 
ATOM      4  C6  SX3 d         -24.470   8.660 -14.940  0.00  0.00     0.001 C 
ATOM      5  C4  SX3 d         -23.975   7.234 -15.140  0.00  0.00    -0.042 C 
ATOM      6  C3  SX3 d         -22.496   7.132 -14.799  0.00  0.00    -0.056 C 
ATOM      7  C7  SX3 d         -22.205   9.509 -15.558  0.00  0.00     0.001 C 
ATOM      8  C2  SX3 d         -21.675   8.092 -15.649  0.00  0.00    -0.042 C 
ATOM      9  H6  SX3 d         -25.508   8.722 -15.297  0.00  0.00     0.065 H 
ATOM     10  H7  SX3 d         -24.437   8.892 -13.865  0.00  0.00     0.065 H 
ATOM     11  H8  SX3 d         -24.107   6.956 -16.196  0.00  0.00     0.042 H 
ATOM     12  H12 SX3 d         -22.153   6.103 -14.985  0.00  0.00     0.034 H 
ATOM     13  H13 SX3 d         -22.353   7.379 -13.736  0.00  0.00     0.034 H 
ATOM     14  H14 SX3 d         -21.887   9.925 -14.591  0.00  0.00     0.065 H 
ATOM     15  H15 SX3 d         -21.751  10.091 -16.374  0.00  0.00     0.065 H 
ATOM     16  H16 SX3 d         -21.734   7.767 -16.698  0.00  0.00     0.042 H 
ENDROOT
BRANCH   1  17
ATOM     17  C9  SX3 d         -25.764  10.663 -16.765  0.00  0.00     0.059 A 
ATOM     18  C10 SX3 d         -26.440   9.556 -17.294  0.00  0.00    -0.049 A 
ATOM     19  C11 SX3 d         -27.816   9.631 -17.533  0.00  0.00     0.012 A 
ATOM     20  H1  SX3 d         -25.898   8.644 -17.518  0.00  0.00     0.087 H 
ATOM     21 BR1  SX3 d         -28.674   8.096 -18.234  0.00  0.00    -0.051 Br
ATOM     22  C12 SX3 d         -28.544  10.793 -17.255  0.00  0.00    -0.064 A 
ATOM     23  C13 SX3 d         -27.859  11.899 -16.716  0.00  0.00    -0.055 A 
ATOM     24  H2  SX3 d         -29.610  10.841 -17.451  0.00  0.00     0.085 H 
ATOM     25  C14 SX3 d         -26.469  11.863 -16.473  0.00  0.00     0.041 A 
ATOM     26  H3  SX3 d         -28.413  12.801 -16.481  0.00  0.00     0.087 H 
BRANCH  25  27
ATOM     27  N2  SX3 d         -25.844  13.008 -15.954  0.00  0.00    -0.398 N 
ATOM     28  H4  SX3 d         -25.044  12.912 -15.312  0.00  0.00     0.156 HD
ATOM     29  H5  SX3 d         -26.185  13.944 -16.215  0.00  0.00     0.156 HD
ENDBRANCH  25  27
ENDBRANCH   1  17
BRANCH   5  30
ATOM     30  C5  SX3 d         -24.808   6.302 -14.286  0.00  0.00    -0.071 C 
ATOM     31  H9  SX3 d         -24.745   6.616 -13.233  0.00  0.00     0.028 H 
ATOM     32  H10 SX3 d         -24.427   5.275 -14.385  0.00  0.00     0.028 H 
ATOM     33  H11 SX3 d         -25.856   6.339 -14.618  0.00  0.00     0.028 H 
ENDBRANCH   5  30
BRANCH   8  34
ATOM     34  C1  SX3 d         -20.217   8.045 -15.200  0.00  0.00    -0.071 C 
ATOM     35  H17 SX3 d         -20.106   7.310 -14.389  0.00  0.00     0.028 H 
ATOM     36  H18 SX3 d         -19.912   9.039 -14.838  0.00  0.00     0.028 H 
ATOM     37  H19 SX3 d         -19.581   7.753 -16.049  0.00  0.00     0.028 H 
ENDBRANCH   8  34
TORSDOF 4
ENDMDL
MODEL 7
REMARK VINA RESULT:      -4.9      2.789      6.254
REMARK  4 active torsions:
REMARK  status: ('A' for Active; 'I' for Inactive)
REMARK    1  A    between atoms: C14_6  and  N2_7 
REMARK    2  A    between atoms: C9_8  and  C8_9 
REMARK       I    between atoms: C8_9  and  N1_11 
REMARK    3  A    between atoms: C4_13  and  C5_14 
REMARK    4  A    between atoms: C2_17  and  C1_18 
ROOT
ATOM      1  C8  SX3 d         -25.580   9.165 -14.304  0.00  0.00     0.256 C 
ATOM      2  O1  SX3 d         -25.992   8.306 -13.524  0.00  0.00    -0.267 OA
ATOM      3  N1  SX3 d         -26.028  10.489 -14.174  0.00  0.00    -0.347 N 
ATOM      4  C6  SX3 d         -25.700  11.466 -15.220  0.00  0.00     0.001 C 
ATOM      5  C4  SX3 d         -26.926  12.119 -15.845  0.00  0.00    -0.042 C 
ATOM      6  C3  SX3 d         -27.816  12.718 -14.766  0.00  0.00    -0.056 C 
ATOM      7  C7  SX3 d         -27.056  10.907 -13.199  0.00  0.00     0.001 C 
ATOM      8  C2  SX3 d         -28.246  11.654 -13.765  0.00  0.00    -0.042 C 
ATOM      9  H6  SX3 d         -25.137  10.952 -16.012  0.00  0.00     0.065 H 
ATOM     10  H7  SX3 d         -25.073  12.254 -14.776  0.00  0.00     0.065 H 
ATOM     11  H8  SX3 d         -27.502  11.354 -16.384  0.00  0.00     0.042 H 
ATOM     12  H12 SX3 d         -28.711  13.152 -15.237  0.00  0.00     0.034 H 
ATOM     13  H13 SX3 d         -27.261  13.507 -14.237  0.00  0.00     0.034 H 
ATOM     14  H14 SX3 d         -26.571  11.560 -12.458  0.00  0.00     0.065 H 
ATOM     15  H15 SX3 d         -27.432  10.003 -12.699  0.00  0.00     0.065 H 
ATOM     16  H16 SX3 d         -28.895  10.931 -14.281  0.00  0.00     0.042 H 
ENDROOT
BRANCH   1  17
ATOM     17  C9  SX3 d         -24.593   8.676 -15.298  0.00  0.00     0.059 A 
ATOM     18  C10 SX3 d         -23.243   8.838 -14.959  0.00  0.00    -0.049 A 
ATOM     19  C11 SX3 d         -22.248   8.440 -15.858  0.00  0.00     0.012 A 
ATOM     20  H1  SX3 d         -22.971   9.272 -14.004  0.00  0.00     0.087 H 
ATOM     21 BR1  SX3 d         -20.444   8.670 -15.334  0.00  0.00    -0.051 Br
ATOM     22  C12 SX3 d         -22.566   7.877 -17.099  0.00  0.00    -0.064 A 
ATOM     23  C13 SX3 d         -23.925   7.710 -17.430  0.00  0.00    -0.055 A 
ATOM     24  H2  SX3 d         -21.786   7.578 -17.790  0.00  0.00     0.085 H 
ATOM     25  C14 SX3 d         -24.955   8.112 -16.552  0.00  0.00     0.041 A 
ATOM     26  H3  SX3 d         -24.186   7.261 -18.381  0.00  0.00     0.087 H 
BRANCH  25  27
ATOM     27  N2  SX3 d         -26.290   7.936 -16.952  0.00  0.00    -0.398 N 
ATOM     28  H4  SX3 d         -26.761   7.035 -16.792  0.00  0.00     0.156 HD
ATOM     29  H5  SX3 d         -26.797   8.709 -17.407  0.00  0.00     0.156 HD
ENDBRANCH  25  27
ENDBRANCH   1  17
BRANCH   5  30
ATOM     30  C5  SX3 d         -26.469  13.170 -16.834  0.00  0.00    -0.071 C 
ATOM     31  H9  SX3 d         -25.441  13.479 -16.592  0.00  0.00     0.028 H 
ATOM     32  H10 SX3 d         -27.137  14.042 -16.776  0.00  0.00     0.028 H 
ATOM     33  H11 SX3 d         -26.497  12.753 -17.852  0.00  0.00     0.028 H 
ENDBRANCH   5  30
BRANCH   8  34
ATOM     34  C1  SX3 d         -29.041  12.311 -12.639  0.00  0.00    -0.071 C 
ATOM     35  H17 SX3 d         -29.407  11.537 -11.948  0.00  0.00     0.028 H 
ATOM     36  H18 SX3 d         -29.896  12.858 -13.063  0.00  0.00     0.028 H 
ATOM     37  H19 SX3 d         -28.392  13.011 -12.092  0.00  0.00     0.028 H 
ENDBRANCH   8  34
TORSDOF 4
ENDMDL
MODEL 8
REMARK VINA RESULT:      -4.6      3.093      5.825
REMARK  4 active torsions:
REMARK  status: ('A' for Active; 'I' for Inactive)
REMARK    1  A    between atoms: C14_6  and  N2_7 
REMARK    2  A    between atoms: C9_8  and  C8_9 
REMARK       I    between atoms: C8_9  and  N1_11 
REMARK    3  A    between atoms: C4_13  and  C5_14 
REMARK    4  A    between atoms: C2_17  and  C1_18 
ROOT
ATOM      1  C8  SX3 d         -25.728   9.491 -16.952  0.00  0.00     0.256 C 
ATOM      2  O1  SX3 d         -25.164   9.442 -18.045  0.00  0.00    -0.267 OA
ATOM      3  N1  SX3 d         -26.778  10.403 -16.755  0.00  0.00    -0.347 N 
ATOM      4  C6  SX3 d         -27.312  10.606 -15.403  0.00  0.00     0.001 C 
ATOM      5  C4  SX3 d         -27.238  12.052 -14.933  0.00  0.00    -0.042 C 
ATOM      6  C3  SX3 d         -27.896  12.975 -15.949  0.00  0.00    -0.056 C 
ATOM      7  C7  SX3 d         -27.195  11.392 -17.770  0.00  0.00     0.001 C 
ATOM      8  C2  SX3 d         -27.235  12.837 -17.314  0.00  0.00    -0.042 C 
ATOM      9  H6  SX3 d         -26.737   9.982 -14.704  0.00  0.00     0.065 H 
ATOM     10  H7  SX3 d         -28.366  10.290 -15.394  0.00  0.00     0.065 H 
ATOM     11  H8  SX3 d         -26.182  12.341 -14.834  0.00  0.00     0.042 H 
ATOM     12  H12 SX3 d         -27.799  14.016 -15.606  0.00  0.00     0.034 H 
ATOM     13  H13 SX3 d         -28.961  12.715 -16.035  0.00  0.00     0.034 H 
ATOM     14  H14 SX3 d         -28.205  11.119 -18.111  0.00  0.00     0.065 H 
ATOM     15  H15 SX3 d         -26.493  11.325 -18.614  0.00  0.00     0.065 H 
ATOM     16  H16 SX3 d         -26.202  13.206 -17.242  0.00  0.00     0.042 H 
ENDROOT
BRANCH   1  17
ATOM     17  C9  SX3 d         -25.229   8.514 -15.953  0.00  0.00     0.059 A 
ATOM     18  C10 SX3 d         -26.196   7.692 -15.358  0.00  0.00    -0.049 A 
ATOM     19  C11 SX3 d         -25.816   6.769 -14.378  0.00  0.00     0.012 A 
ATOM     20  H1  SX3 d         -27.235   7.771 -15.656  0.00  0.00     0.087 H 
ATOM     21 BR1  SX3 d         -27.165   5.676 -13.625  0.00  0.00    -0.051 Br
ATOM     22  C12 SX3 d         -24.482   6.642 -13.970  0.00  0.00    -0.064 A 
ATOM     23  C13 SX3 d         -23.516   7.466 -14.579  0.00  0.00    -0.055 A 
ATOM     24  H2  SX3 d         -24.201   5.928 -13.205  0.00  0.00     0.085 H 
ATOM     25  C14 SX3 d         -23.866   8.417 -15.562  0.00  0.00     0.041 A 
ATOM     26  H3  SX3 d         -22.477   7.368 -14.284  0.00  0.00     0.087 H 
BRANCH  25  27
ATOM     27  N2  SX3 d         -22.855   9.222 -16.113  0.00  0.00    -0.398 N 
ATOM     28  H4  SX3 d         -23.060   9.821 -16.926  0.00  0.00     0.156 HD
ATOM     29  H5  SX3 d         -21.910   9.213 -15.704  0.00  0.00     0.156 HD
ENDBRANCH  25  27
ENDBRANCH   1  17
BRANCH   5  30
ATOM     30  C5  SX3 d         -27.899  12.160 -13.576  0.00  0.00    -0.071 C 
ATOM     31  H9  SX3 d         -27.756  11.219 -13.023  0.00  0.00     0.028 H 
ATOM     32  H10 SX3 d         -28.975  12.348 -13.706  0.00  0.00     0.028 H 
ATOM     33  H11 SX3 d         -27.447  12.989 -13.012  0.00  0.00     0.028 H 
ENDBRANCH   5  30
BRANCH   8  34
ATOM     34  C1  SX3 d         -27.993  13.689 -18.330  0.00  0.00    -0.071 C 
ATOM     35  H17 SX3 d         -29.062  13.432 -18.300  0.00  0.00     0.028 H 
ATOM     36  H18 SX3 d         -27.598  13.495 -19.339  0.00  0.00     0.028 H 
ATOM     37  H19 SX3 d         -27.865  14.753 -18.084  0.00  0.00     0.028 H 
ENDBRANCH   8  34
TORSDOF 4
ENDMDL
MODEL 9
REMARK VINA RESULT:      -4.4      3.060      6.066
REMARK  4 active torsions:
REMARK  status: ('A' for Active; 'I' for Inactive)
REMARK    1  A    between atoms: C14_6  and  N2_7 
REMARK    2  A    between atoms: C9_8  and  C8_9 
REMARK       I    between atoms: C8_9  and  N1_11 
REMARK    3  A    between atoms: C4_13  and  C5_14 
REMARK    4  A    between atoms: C2_17  and  C1_18 
ROOT
ATOM      1  C8  SX3 d         -25.725   9.890 -13.834  0.00  0.00     0.256 C 
ATOM      2  O1  SX3 d         -25.915  10.026 -12.625  0.00  0.00    -0.267 OA
ATOM      3  N1  SX3 d         -26.185  10.877 -14.721  0.00  0.00    -0.347 N 
ATOM      4  C6  SX3 d         -26.142  10.622 -16.166  0.00  0.00     0.001 C 
ATOM      5  C4  SX3 d         -27.502  10.731 -16.842  0.00  0.00    -0.042 C 
ATOM      6  C3  SX3 d         -28.149  12.070 -16.519  0.00  0.00    -0.056 C 
ATOM      7  C7  SX3 d         -26.982  12.045 -14.295  0.00  0.00     0.001 C 
ATOM      8  C2  SX3 d         -28.299  12.251 -15.015  0.00  0.00    -0.042 C 
ATOM      9  H6  SX3 d         -25.752   9.607 -16.330  0.00  0.00     0.065 H 
ATOM     10  H7  SX3 d         -25.463  11.355 -16.629  0.00  0.00     0.065 H 
ATOM     11  H8  SX3 d         -28.153   9.930 -16.463  0.00  0.00     0.042 H 
ATOM     12  H12 SX3 d         -29.144  12.111 -16.988  0.00  0.00     0.034 H 
ATOM     13  H13 SX3 d         -27.521  12.880 -16.920  0.00  0.00     0.034 H 
ATOM     14  H14 SX3 d         -26.369  12.945 -14.450  0.00  0.00     0.065 H 
ATOM     15  H15 SX3 d         -27.199  11.931 -13.223  0.00  0.00     0.065 H 
ATOM     16  H16 SX3 d         -29.017  11.507 -14.643  0.00  0.00     0.042 H 
ENDROOT
BRANCH   1  17
ATOM     17  C9  SX3 d         -24.969   8.670 -14.209  0.00  0.00     0.059 A 
ATOM     18  C10 SX3 d         -23.666   8.872 -14.683  0.00  0.00    -0.049 A 
ATOM     19  C11 SX3 d         -22.898   7.777 -15.095  0.00  0.00     0.012 A 
ATOM     20  H1  SX3 d         -23.254   9.873 -14.730  0.00  0.00     0.087 H 
ATOM     21 BR1  SX3 d         -21.140   8.115 -15.709  0.00  0.00    -0.051 Br
ATOM     22  C12 SX3 d         -23.401   6.472 -15.046  0.00  0.00    -0.064 A 
ATOM     23  C13 SX3 d         -24.708   6.276 -14.561  0.00  0.00    -0.055 A 
ATOM     24  H2  SX3 d         -22.798   5.633 -15.374  0.00  0.00     0.085 H 
ATOM     25  C14 SX3 d         -25.515   7.358 -14.149  0.00  0.00     0.041 A 
ATOM     26  H3  SX3 d         -25.105   5.269 -14.503  0.00  0.00     0.087 H 
BRANCH  25  27
ATOM     27  N2  SX3 d         -26.818   7.095 -13.696  0.00  0.00    -0.398 N 
ATOM     28  H4  SX3 d         -27.435   6.472 -14.236  0.00  0.00     0.156 HD
ATOM     29  H5  SX3 d         -27.157   7.525 -12.823  0.00  0.00     0.156 HD
ENDBRANCH  25  27
ENDBRANCH   1  17
BRANCH   5  30
ATOM     30  C5  SX3 d         -27.323  10.545 -18.334  0.00  0.00    -0.071 C 
ATOM     31  H9  SX3 d         -26.264  10.682 -18.596  0.00  0.00     0.028 H 
ATOM     32  H10 SX3 d         -27.932  11.288 -18.871  0.00  0.00     0.028 H 
ATOM     33  H11 SX3 d         -27.644   9.532 -18.619  0.00  0.00     0.028 H 
ENDBRANCH   5  30
BRANCH   8  34
ATOM     34  C1  SX3 d         -28.844  13.648 -14.726  0.00  0.00    -0.071 C 
ATOM     35  H17 SX3 d         -29.492  13.613 -13.837  0.00  0.00     0.028 H 
ATOM     36  H18 SX3 d         -29.427  14.000 -15.591  0.00  0.00     0.028 H 
ATOM     37  H19 SX3 d         -28.008  14.338 -14.542  0.00  0.00     0.028 H 
ENDBRANCH   8  34
TORSDOF 4
ENDMDL
MODEL 10
REMARK VINA RESULT:      -4.3      2.674      3.848
REMARK  4 active torsions:
REMARK  status: ('A' for Active; 'I' for Inactive)
REMARK    1  A    between atoms: C14_6  and  N2_7 
REMARK    2  A    between atoms: C9_8  and  C8_9 
REMARK       I    between atoms: C8_9  and  N1_11 
REMARK    3  A    between atoms: C4_13  and  C5_14 
REMARK    4  A    between atoms: C2_17  and  C1_18 
ROOT
ATOM      1  C8  SX3 d         -25.052   9.213 -15.033  0.00  0.00     0.256 C 
ATOM      2  O1  SX3 d         -25.011  10.185 -14.279  0.00  0.00    -0.267 OA
ATOM      3  N1  SX3 d         -23.889   8.456 -15.249  0.00  0.00    -0.347 N 
ATOM      4  C6  SX3 d         -23.884   7.427 -16.296  0.00  0.00     0.001 C 
ATOM      5  C4  SX3 d         -22.798   7.634 -17.344  0.00  0.00    -0.042 C 
ATOM      6  C3  SX3 d         -21.437   7.774 -16.677  0.00  0.00    -0.056 C 
ATOM      7  C7  SX3 d         -22.570   8.817 -14.691  0.00  0.00     0.001 C 
ATOM      8  C2  SX3 d         -21.435   8.932 -15.688  0.00  0.00    -0.042 C 
ATOM      9  H6  SX3 d         -24.862   7.438 -16.801  0.00  0.00     0.065 H 
ATOM     10  H7  SX3 d         -23.728   6.447 -15.821  0.00  0.00     0.065 H 
ATOM     11  H8  SX3 d         -23.010   8.559 -17.898  0.00  0.00     0.042 H 
ATOM     12  H12 SX3 d         -20.675   7.958 -17.449  0.00  0.00     0.034 H 
ATOM     13  H13 SX3 d         -21.200   6.842 -16.142  0.00  0.00     0.034 H 
ATOM     14  H14 SX3 d         -22.294   8.047 -13.955  0.00  0.00     0.065 H 
ATOM     15  H15 SX3 d         -22.673   9.788 -14.185  0.00  0.00     0.065 H 
ATOM     16  H16 SX3 d         -21.560   9.870 -16.248  0.00  0.00     0.042 H 
ENDROOT
BRANCH   1  17
ATOM     17  C9  SX3 d         -26.391   8.932 -15.609  0.00  0.00     0.059 A 
ATOM     18  C10 SX3 d         -27.027   7.770 -15.153  0.00  0.00    -0.049 A 
ATOM     19  C11 SX3 d         -28.275   7.411 -15.674  0.00  0.00     0.012 A 
ATOM     20  H1  SX3 d         -26.555   7.152 -14.399  0.00  0.00     0.087 H 
ATOM     21 BR1  SX3 d         -29.091   5.840 -15.004  0.00  0.00    -0.051 Br
ATOM     22  C12 SX3 d         -28.911   8.188 -16.649  0.00  0.00    -0.064 A 
ATOM     23  C13 SX3 d         -28.269   9.359 -17.097  0.00  0.00    -0.055 A 
ATOM     24  H2  SX3 d         -29.876   7.896 -17.050  0.00  0.00     0.085 H 
ATOM     25  C14 SX3 d         -27.004   9.745 -16.601  0.00  0.00     0.041 A 
ATOM     26  H3  SX3 d         -28.757   9.978 -17.840  0.00  0.00     0.087 H 
BRANCH  25  27
ATOM     27  N2  SX3 d         -26.409  10.912 -17.107  0.00  0.00    -0.398 N 
ATOM     28  H4  SX3 d         -26.152  10.969 -18.103  0.00  0.00     0.156 HD
ATOM     29  H5  SX3 d         -26.230  11.711 -16.481  0.00  0.00     0.156 HD
ENDBRANCH  25  27
ENDBRANCH   1  17
BRANCH   5  30
ATOM     30  C5  SX3 d         -22.825   6.471 -18.312  0.00  0.00    -0.071 C 
ATOM     31  H9  SX3 d         -21.806   6.076 -18.439  0.00  0.00     0.028 H 
ATOM     32  H10 SX3 d         -23.210   6.813 -19.284  0.00  0.00     0.028 H 
ATOM     33  H11 SX3 d         -23.478   5.679 -17.917  0.00  0.00     0.028 H 
ENDBRANCH   5  30
BRANCH   8  34
ATOM     34  C1  SX3 d         -20.094   8.970 -14.958  0.00  0.00    -0.071 C 
ATOM     35  H17 SX3 d         -19.532   9.863 -15.269  0.00  0.00     0.028 H 
ATOM     36  H18 SX3 d         -19.515   8.068 -15.207  0.00  0.00     0.028 H 
ATOM     37  H19 SX3 d         -20.268   9.006 -13.873  0.00  0.00     0.028 H 
ENDBRANCH   8  34
TORSDOF 4
ENDMDL
