MODEL 1
REMARK VINA RESULT:      -7.8      0.000      0.000
REMARK  7 active torsions:
REMARK  status: ('A' for Active; 'I' for Inactive)
REMARK    1  A    between atoms: C9_2  and  C10_3 
REMARK       I    between atoms: C9_2  and  N2_4 
REMARK    2  A    between atoms: N2_4  and  C5_5 
REMARK    3  A    between atoms: C6_6  and  O6_7 
REMARK    4  A    between atoms: C4_8  and  O4_9 
REMARK    5  A    between atoms: C3_10  and  O3_11 
REMARK    6  A    between atoms: C2_12  and  C8_13 
REMARK    7  A    between atoms: C8_13  and  O8_14 
ROOT
ATOM      1  C5  HQ6 d           7.897 -11.647   3.862  0.00  0.00     0.065 C 
ATOM      2  C6  HQ6 d           7.241 -13.079   3.875  0.00  0.00     0.080 C 
ATOM      3  C4  HQ6 d           7.477 -10.633   2.773  0.00  0.00     0.084 C 
ATOM      4  C3  HQ6 d           6.412 -11.043   1.740  0.00  0.00     0.091 C 
ATOM      5  C2  HQ6 d           5.045 -11.416   2.378  0.00  0.00     0.149 C 
ATOM      6  N1  HQ6 d           5.091 -12.822   2.774  0.00  0.00    -0.064 N 
ATOM      7  C7  HQ6 d           5.710 -13.116   4.039  0.00  0.00     0.108 C 
ATOM      8  H5  HQ6 d           8.940 -11.889   3.607  0.00  0.00     0.080 H 
ATOM      9  H6  HQ6 d           7.680 -13.609   4.734  0.00  0.00     0.088 H 
ATOM     10  H8  HQ6 d           7.084  -9.748   3.294  0.00  0.00     0.090 H 
ATOM     11  H10 HQ6 d           6.780 -11.951   1.239  0.00  0.00     0.090 H 
ATOM     12  H12 HQ6 d           4.839 -10.760   3.237  0.00  0.00     0.091 H 
ATOM     13  H16 HQ6 d           5.598 -13.325   2.062  0.00  0.00     0.277 HD
ATOM     14  H17 HQ6 d           4.142 -13.161   2.812  0.00  0.00     0.277 HD
ATOM     15  H18 HQ6 d           5.402 -12.366   4.782  0.00  0.00     0.079 H 
ATOM     16  H19 HQ6 d           5.401 -14.115   4.377  0.00  0.00     0.079 H 
ENDROOT
BRANCH   1  17
ATOM     17  N2  HQ6 d           8.011 -10.885   5.117  0.00  0.00    -0.352 N 
ATOM     18  C9  HQ6 d           6.916 -10.317   5.875  0.00  0.00     0.214 C 
ATOM     19  O9  HQ6 d           5.815 -10.202   5.358  0.00  0.00    -0.274 OA
ATOM     20  H4  HQ6 d           8.932 -10.746   5.480  0.00  0.00     0.163 HD
BRANCH  18  21
ATOM     21  C10 HQ6 d           7.221  -9.885   7.320  0.00  0.00    -0.003 C 
ATOM     22  H1  HQ6 d           7.875 -10.632   7.795  0.00  0.00     0.040 H 
ATOM     23  H2  HQ6 d           6.281  -9.808   7.886  0.00  0.00     0.040 H 
ATOM     24  H3  HQ6 d           7.725  -8.908   7.312  0.00  0.00     0.040 H 
ENDBRANCH  18  21
ENDBRANCH   1  17
BRANCH   2  25
ATOM     25  O6  HQ6 d           7.525 -13.839   2.683  0.00  0.00    -0.392 OA
ATOM     26  H7  HQ6 d           6.812 -13.736   2.065  0.00  0.00     0.210 HD
ENDBRANCH   2  25
BRANCH   3  27
ATOM     27  O4  HQ6 d           8.668 -10.272   2.069  0.00  0.00    -0.391 OA
ATOM     28  H9  HQ6 d           8.519  -9.466   1.589  0.00  0.00     0.210 HD
ENDBRANCH   3  27
BRANCH   4  29
ATOM     29  O3  HQ6 d           6.305 -10.040   0.757  0.00  0.00    -0.391 OA
ATOM     30  H11 HQ6 d           6.454  -9.190   1.155  0.00  0.00     0.210 HD
ENDBRANCH   4  29
BRANCH   5  31
ATOM     31  C8  HQ6 d           3.889 -11.356   1.347  0.00  0.00     0.046 C 
ATOM     32  H13 HQ6 d           4.121 -10.602   0.581  0.00  0.00     0.077 H 
ATOM     33  H14 HQ6 d           2.956 -11.080   1.861  0.00  0.00     0.077 H 
BRANCH  31  34
ATOM     34  O8  HQ6 d           3.730 -12.621   0.730  0.00  0.00    -0.399 OA
ATOM     35  H15 HQ6 d           3.772 -12.519  -0.214  0.00  0.00     0.209 HD
ENDBRANCH  31  34
ENDBRANCH   5  31
TORSDOF 7
ENDMDL
