MODEL 1
REMARK VINA RESULT:      -7.2      0.000      0.000
REMARK  5 active torsions:
REMARK  status: ('A' for Active; 'I' for Inactive)
REMARK    1  A    between atoms: C22_2  and  C31_3 
REMARK       I    between atoms: C22_2  and  N21_12 
REMARK    2  A    between atoms: C34_6  and  C41_9 
REMARK    3  A    between atoms: C41_9  and  C42_10 
REMARK    4  A    between atoms: C41_9  and  N43_11 
REMARK    5  A    between atoms: N21_12  and  C14_13 
ROOT
ATOM      1  C31 Y27 d           9.730   8.811   3.129  0.00  0.00     0.024 C 
ATOM      2  C36 Y27 d          10.218   7.569   2.377  0.00  0.00    -0.053 C 
ATOM      3  C35 Y27 d          11.637   7.208   2.827  0.00  0.00    -0.059 C 
ATOM      4  C34 Y27 d          12.555   8.344   2.359  0.00  0.00    -0.027 C 
ATOM      5  C33 Y27 d          12.167   9.656   3.091  0.00  0.00    -0.059 C 
ATOM      6  C32 Y27 d          10.654  10.022   2.893  0.00  0.00    -0.053 C 
ATOM      7  H1  Y27 d           9.764   8.586   4.205  0.00  0.00     0.054 H 
ATOM      8  H2  Y27 d          10.220   7.775   1.297  0.00  0.00     0.034 H 
ATOM      9  H3  Y27 d           9.544   6.727   2.589  0.00  0.00     0.034 H 
ATOM     10  H4  Y27 d          11.948   6.258   2.370  0.00  0.00     0.033 H 
ATOM     11  H5  Y27 d          11.675   7.118   3.923  0.00  0.00     0.033 H 
ATOM     12  H6  Y27 d          12.374   8.511   1.288  0.00  0.00     0.043 H 
ATOM     13  H7  Y27 d          12.784  10.477   2.696  0.00  0.00     0.033 H 
ATOM     14  H8  Y27 d          12.364   9.533   4.166  0.00  0.00     0.033 H 
ATOM     15  H9  Y27 d          10.386  10.818   3.604  0.00  0.00     0.034 H 
ATOM     16  H10 Y27 d          10.508  10.384   1.865  0.00  0.00     0.034 H 
ENDROOT
BRANCH   1  17
ATOM     17  C22 Y27 d           8.290   9.081   2.771  0.00  0.00     0.226 C 
ATOM     18  O23 Y27 d           7.848   8.992   1.623  0.00  0.00    -0.273 OA
ATOM     19  N21 Y27 d           7.479   9.423   3.890  0.00  0.00    -0.327 N 
ATOM     20  H18 Y27 d           7.960   9.715   4.717  0.00  0.00     0.169 HD
BRANCH  19  21
ATOM     21  C14 Y27 d           6.039   9.393   3.959  0.00  0.00     0.037 A 
ATOM     22  C15 Y27 d           5.477   9.857   5.160  0.00  0.00    -0.040 A 
ATOM     23  C16 Y27 d           4.083   9.815   5.243  0.00  0.00     0.004 A 
ATOM     24  H19 Y27 d           6.090  10.225   5.975  0.00  0.00     0.089 H 
ATOM     25  N11 Y27 d           3.315   9.372   4.226  0.00  0.00    -0.273 NA
ATOM     26  H20 Y27 d           3.603  10.151   6.155  0.00  0.00     0.114 H 
ATOM     27  C12 Y27 d           3.838   8.925   3.073  0.00  0.00     0.004 A 
ATOM     28  C13 Y27 d           5.214   8.916   2.899  0.00  0.00    -0.040 A 
ATOM     29  H21 Y27 d           3.187   8.572   2.282  0.00  0.00     0.114 H 
ATOM     30  H22 Y27 d           5.653   8.554   1.976  0.00  0.00     0.089 H 
ENDBRANCH  19  21
ENDBRANCH   1  17
BRANCH   4  31
ATOM     31  C41 Y27 d          14.042   7.896   2.503  0.00  0.00     0.100 C 
ATOM     32  H11 Y27 d          14.146   7.349   3.451  0.00  0.00     0.083 H 
BRANCH  31  33
ATOM     33  C42 Y27 d          14.441   6.961   1.347  0.00  0.00    -0.049 C 
ATOM     34  H12 Y27 d          15.492   6.657   1.467  0.00  0.00     0.030 H 
ATOM     35  H13 Y27 d          14.319   7.489   0.389  0.00  0.00     0.030 H 
ATOM     36  H14 Y27 d          13.798   6.069   1.358  0.00  0.00     0.030 H 
ENDBRANCH  31  33
BRANCH  31  37
ATOM     37  N43 Y27 d          14.976   9.078   2.529  0.00  0.00    -0.075 N 
ATOM     38  H15 Y27 d          14.719   9.694   3.286  0.00  0.00     0.274 HD
ATOM     39  H16 Y27 d          14.914   9.575   1.655  0.00  0.00     0.274 HD
ATOM     40  H17 Y27 d          15.922   8.756   2.666  0.00  0.00     0.274 HD
ENDBRANCH  31  37
ENDBRANCH   4  31
TORSDOF 5
ENDMDL
