MODEL 1
REMARK VINA RESULT:      -7.7      0.000      0.000
REMARK  5 active torsions:
REMARK  status: ('A' for Active; 'I' for Inactive)
REMARK    1  A    between atoms: C22_2  and  C31_3 
REMARK       I    between atoms: C22_2  and  N21_12 
REMARK    2  A    between atoms: C34_6  and  C41_9 
REMARK    3  A    between atoms: C41_9  and  C42_10 
REMARK    4  A    between atoms: C41_9  and  N43_11 
REMARK    5  A    between atoms: N21_12  and  C14_13 
ROOT
ATOM      1  C31 Y27 d           8.489   9.023   4.057  0.00  0.00     0.024 C 
ATOM      2  C36 Y27 d           7.866  10.035   5.024  0.00  0.00    -0.053 C 
ATOM      3  C35 Y27 d           6.387   9.703   5.248  0.00  0.00    -0.059 C 
ATOM      4  C34 Y27 d           5.671   9.935   3.911  0.00  0.00    -0.027 C 
ATOM      5  C33 Y27 d           6.207   8.930   2.857  0.00  0.00    -0.059 C 
ATOM      6  C32 Y27 d           7.766   9.013   2.696  0.00  0.00    -0.053 C 
ATOM      7  H1  Y27 d           8.365   8.022   4.494  0.00  0.00     0.054 H 
ATOM      8  H2  Y27 d           7.952  11.045   4.599  0.00  0.00     0.034 H 
ATOM      9  H3  Y27 d           8.397   9.995   5.986  0.00  0.00     0.034 H 
ATOM     10  H4  Y27 d           5.965  10.360   6.021  0.00  0.00     0.033 H 
ATOM     11  H5  Y27 d           6.278   8.653   5.558  0.00  0.00     0.033 H 
ATOM     12  H6  Y27 d           5.931  10.941   3.554  0.00  0.00     0.043 H 
ATOM     13  H7  Y27 d           5.739   9.152   1.886  0.00  0.00     0.033 H 
ATOM     14  H8  Y27 d           5.938   7.910   3.170  0.00  0.00     0.033 H 
ATOM     15  H9  Y27 d           8.110   8.142   2.118  0.00  0.00     0.034 H 
ATOM     16  H10 Y27 d           8.019   9.936   2.153  0.00  0.00     0.034 H 
ENDROOT
BRANCH   1  17
ATOM     17  C22 Y27 d           9.970   9.285   3.943  0.00  0.00     0.226 C 
ATOM     18  O23 Y27 d          10.504  10.336   4.307  0.00  0.00    -0.273 OA
ATOM     19  N21 Y27 d          10.702   8.191   3.402  0.00  0.00    -0.327 N 
ATOM     20  H18 Y27 d          10.173   7.498   2.911  0.00  0.00     0.169 HD
BRANCH  19  21
ATOM     21  C14 Y27 d          12.125   7.973   3.486  0.00  0.00     0.037 A 
ATOM     22  C15 Y27 d          12.862   8.320   2.342  0.00  0.00    -0.040 A 
ATOM     23  C16 Y27 d          14.240   8.096   2.407  0.00  0.00     0.004 A 
ATOM     24  H19 Y27 d          12.390   8.738   1.460  0.00  0.00     0.089 H 
ATOM     25  N11 Y27 d          14.835   7.590   3.508  0.00  0.00    -0.273 NA
ATOM     26  H20 Y27 d          14.851   8.337   1.544  0.00  0.00     0.114 H 
ATOM     27  C12 Y27 d          14.143   7.253   4.607  0.00  0.00     0.004 A 
ATOM     28  C13 Y27 d          12.767   7.428   4.636  0.00  0.00    -0.040 A 
ATOM     29  H21 Y27 d          14.658   6.845   5.469  0.00  0.00     0.114 H 
ATOM     30  H22 Y27 d          12.193   7.156   5.514  0.00  0.00     0.089 H 
ENDBRANCH  19  21
ENDBRANCH   1  17
BRANCH   4  31
ATOM     31  C41 Y27 d           4.130   9.921   4.144  0.00  0.00     0.100 C 
ATOM     32  H11 Y27 d           3.755  10.949   4.026  0.00  0.00     0.083 H 
BRANCH  31  33
ATOM     33  C42 Y27 d           3.433   9.021   3.107  0.00  0.00    -0.049 C 
ATOM     34  H12 Y27 d           3.691   7.969   3.301  0.00  0.00     0.030 H 
ATOM     35  H13 Y27 d           3.766   9.299   2.096  0.00  0.00     0.030 H 
ATOM     36  H14 Y27 d           2.343   9.151   3.182  0.00  0.00     0.030 H 
ENDBRANCH  31  33
BRANCH  31  37
ATOM     37  N43 Y27 d           3.781   9.442   5.529  0.00  0.00    -0.075 N 
ATOM     38  H15 Y27 d           2.804   9.613   5.708  0.00  0.00     0.274 HD
ATOM     39  H16 Y27 d           4.339   9.938   6.206  0.00  0.00     0.274 HD
ATOM     40  H17 Y27 d           3.968   8.453   5.599  0.00  0.00     0.274 HD
ENDBRANCH  31  37
ENDBRANCH   4  31
TORSDOF 5
ENDMDL
MODEL 2
REMARK VINA RESULT:      -7.7      1.370      1.717
REMARK  5 active torsions:
REMARK  status: ('A' for Active; 'I' for Inactive)
REMARK    1  A    between atoms: C22_2  and  C31_3 
REMARK       I    between atoms: C22_2  and  N21_12 
REMARK    2  A    between atoms: C34_6  and  C41_9 
REMARK    3  A    between atoms: C41_9  and  C42_10 
REMARK    4  A    between atoms: C41_9  and  N43_11 
REMARK    5  A    between atoms: N21_12  and  C14_13 
ROOT
ATOM      1  C31 Y27 d           8.487   9.310   3.848  0.00  0.00     0.024 C 
ATOM      2  C36 Y27 d           7.804  10.234   4.861  0.00  0.00    -0.053 C 
ATOM      3  C35 Y27 d           6.365   9.770   5.107  0.00  0.00    -0.059 C 
ATOM      4  C34 Y27 d           5.599   9.981   3.796  0.00  0.00    -0.027 C 
ATOM      5  C33 Y27 d           6.191   9.059   2.697  0.00  0.00    -0.059 C 
ATOM      6  C32 Y27 d           7.733   9.280   2.504  0.00  0.00    -0.053 C 
ATOM      7  H1  Y27 d           8.458   8.289   4.255  0.00  0.00     0.054 H 
ATOM      8  H2  Y27 d           7.793  11.261   4.468  0.00  0.00     0.034 H 
ATOM      9  H3  Y27 d           8.361  10.210   5.809  0.00  0.00     0.034 H 
ATOM     10  H4  Y27 d           5.908  10.364   5.912  0.00  0.00     0.033 H 
ATOM     11  H5  Y27 d           6.353   8.706   5.385  0.00  0.00     0.033 H 
ATOM     12  H6  Y27 d           5.763  11.017   3.466  0.00  0.00     0.043 H 
ATOM     13  H7  Y27 d           5.682   9.270   1.745  0.00  0.00     0.033 H 
ATOM     14  H8  Y27 d           6.017   8.011   2.983  0.00  0.00     0.033 H 
ATOM     15  H9  Y27 d           8.135   8.460   1.890  0.00  0.00     0.034 H 
ATOM     16  H10 Y27 d           7.892  10.238   1.986  0.00  0.00     0.034 H 
ENDROOT
BRANCH   1  17
ATOM     17  C22 Y27 d           9.937   9.701   3.710  0.00  0.00     0.226 C 
ATOM     18  O23 Y27 d          10.644  10.031   4.665  0.00  0.00    -0.273 OA
ATOM     19  N21 Y27 d          10.422   9.625   2.374  0.00  0.00    -0.327 N 
ATOM     20  H18 Y27 d           9.733   9.599   1.649  0.00  0.00     0.169 HD
BRANCH  19  21
ATOM     21  C14 Y27 d          11.801   9.583   1.954  0.00  0.00     0.037 A 
ATOM     22  C15 Y27 d          12.258  10.711   1.252  0.00  0.00    -0.040 A 
ATOM     23  C16 Y27 d          13.588  10.672   0.825  0.00  0.00     0.004 A 
ATOM     24  H19 Y27 d          11.617  11.562   1.054  0.00  0.00     0.089 H 
ATOM     25  N11 Y27 d          14.395   9.622   1.082  0.00  0.00    -0.273 NA
ATOM     26  H20 Y27 d          13.984  11.514   0.269  0.00  0.00     0.114 H 
ATOM     27  C12 Y27 d          13.972   8.537   1.750  0.00  0.00     0.004 A 
ATOM     28  C13 Y27 d          12.663   8.477   2.206  0.00  0.00    -0.040 A 
ATOM     29  H21 Y27 d          14.650   7.712   1.932  0.00  0.00     0.114 H 
ATOM     30  H22 Y27 d          12.304   7.606   2.743  0.00  0.00     0.089 H 
ENDBRANCH  19  21
ENDBRANCH   1  17
BRANCH   4  31
ATOM     31  C41 Y27 d           4.070   9.828   4.062  0.00  0.00     0.100 C 
ATOM     32  H11 Y27 d           3.599  10.814   3.936  0.00  0.00     0.083 H 
BRANCH  31  33
ATOM     33  C42 Y27 d           3.439   8.848   3.056  0.00  0.00    -0.049 C 
ATOM     34  H12 Y27 d           2.351   9.009   3.020  0.00  0.00     0.030 H 
ATOM     35  H13 Y27 d           3.647   7.815   3.371  0.00  0.00     0.030 H 
ATOM     36  H14 Y27 d           3.868   9.021   2.058  0.00  0.00     0.030 H 
ENDBRANCH  31  33
BRANCH  31  37
ATOM     37  N43 Y27 d           3.796   9.344   5.462  0.00  0.00    -0.075 N 
ATOM     38  H15 Y27 d           3.671   8.343   5.453  0.00  0.00     0.274 HD
ATOM     39  H16 Y27 d           2.960   9.784   5.813  0.00  0.00     0.274 HD
ATOM     40  H17 Y27 d           4.575   9.579   6.058  0.00  0.00     0.274 HD
ENDBRANCH  31  37
ENDBRANCH   4  31
TORSDOF 5
ENDMDL
MODEL 3
REMARK VINA RESULT:      -7.7      1.108      1.816
REMARK  5 active torsions:
REMARK  status: ('A' for Active; 'I' for Inactive)
REMARK    1  A    between atoms: C22_2  and  C31_3 
REMARK       I    between atoms: C22_2  and  N21_12 
REMARK    2  A    between atoms: C34_6  and  C41_9 
REMARK    3  A    between atoms: C41_9  and  C42_10 
REMARK    4  A    between atoms: C41_9  and  N43_11 
REMARK    5  A    between atoms: N21_12  and  C14_13 
ROOT
ATOM      1  C31 Y27 d           8.660  10.000   3.437  0.00  0.00     0.024 C 
ATOM      2  C36 Y27 d           7.700   9.329   2.449  0.00  0.00    -0.053 C 
ATOM      3  C35 Y27 d           6.286   9.888   2.630  0.00  0.00    -0.059 C 
ATOM      4  C34 Y27 d           5.805   9.443   4.017  0.00  0.00    -0.027 C 
ATOM      5  C33 Y27 d           6.695  10.098   5.107  0.00  0.00    -0.059 C 
ATOM      6  C32 Y27 d           8.219   9.784   4.898  0.00  0.00    -0.053 C 
ATOM      7  H1  Y27 d           8.629  11.083   3.249  0.00  0.00     0.054 H 
ATOM      8  H2  Y27 d           7.690   8.244   2.632  0.00  0.00     0.034 H 
ATOM      9  H3  Y27 d           8.040   9.524   1.421  0.00  0.00     0.034 H 
ATOM     10  H4  Y27 d           5.619   9.487   1.853  0.00  0.00     0.033 H 
ATOM     11  H5  Y27 d           6.302  10.986   2.570  0.00  0.00     0.033 H 
ATOM     12  H6  Y27 d           5.951   8.356   4.098  0.00  0.00     0.043 H 
ATOM     13  H7  Y27 d           6.387   9.717   6.092  0.00  0.00     0.033 H 
ATOM     14  H8  Y27 d           6.551  11.189   5.073  0.00  0.00     0.033 H 
ATOM     15  H9  Y27 d           8.810  10.446   5.549  0.00  0.00     0.034 H 
ATOM     16  H10 Y27 d           8.406   8.736   5.174  0.00  0.00     0.034 H 
ENDROOT
BRANCH   1  17
ATOM     17  C22 Y27 d          10.068   9.534   3.164  0.00  0.00     0.226 C 
ATOM     18  O23 Y27 d          10.699   9.839   2.148  0.00  0.00    -0.273 OA
ATOM     19  N21 Y27 d          10.614   8.732   4.205  0.00  0.00    -0.327 N 
ATOM     20  H18 Y27 d           9.963   8.334   4.851  0.00  0.00     0.169 HD
BRANCH  19  21
ATOM     21  C14 Y27 d          12.007   8.430   4.427  0.00  0.00     0.037 A 
ATOM     22  C15 Y27 d          12.681   9.286   5.315  0.00  0.00    -0.040 A 
ATOM     23  C16 Y27 d          14.035   9.013   5.523  0.00  0.00     0.004 A 
ATOM     24  H19 Y27 d          12.179  10.110   5.808  0.00  0.00     0.089 H 
ATOM     25  N11 Y27 d          14.661   7.979   4.922  0.00  0.00    -0.273 NA
ATOM     26  H20 Y27 d          14.601   9.653   6.190  0.00  0.00     0.114 H 
ATOM     27  C12 Y27 d          14.030   7.154   4.072  0.00  0.00     0.004 A 
ATOM     28  C13 Y27 d          12.685   7.350   3.792  0.00  0.00    -0.040 A 
ATOM     29  H21 Y27 d          14.569   6.338   3.606  0.00  0.00     0.114 H 
ATOM     30  H22 Y27 d          12.162   6.696   3.104  0.00  0.00     0.089 H 
ENDBRANCH  19  21
ENDBRANCH   1  17
BRANCH   4  31
ATOM     31  C41 Y27 d           4.273   9.705   4.140  0.00  0.00     0.100 C 
ATOM     32  H11 Y27 d           4.092  10.775   3.963  0.00  0.00     0.083 H 
BRANCH  31  33
ATOM     33  C42 Y27 d           3.498   8.892   3.086  0.00  0.00    -0.049 C 
ATOM     34  H12 Y27 d           2.449   9.223   3.066  0.00  0.00     0.030 H 
ATOM     35  H13 Y27 d           3.541   7.824   3.342  0.00  0.00     0.030 H 
ATOM     36  H14 Y27 d           3.951   9.051   2.095  0.00  0.00     0.030 H 
ENDBRANCH  31  33
BRANCH  31  37
ATOM     37  N43 Y27 d           3.759   9.353   5.511  0.00  0.00    -0.075 N 
ATOM     38  H15 Y27 d           3.331   8.440   5.486  0.00  0.00     0.274 HD
ATOM     39  H16 Y27 d           3.075  10.036   5.799  0.00  0.00     0.274 HD
ATOM     40  H17 Y27 d           4.524   9.348   6.167  0.00  0.00     0.274 HD
ENDBRANCH  31  37
ENDBRANCH   4  31
TORSDOF 5
ENDMDL
MODEL 4
REMARK VINA RESULT:      -7.4      1.724      7.432
REMARK  5 active torsions:
REMARK  status: ('A' for Active; 'I' for Inactive)
REMARK    1  A    between atoms: C22_2  and  C31_3 
REMARK       I    between atoms: C22_2  and  N21_12 
REMARK    2  A    between atoms: C34_6  and  C41_9 
REMARK    3  A    between atoms: C41_9  and  C42_10 
REMARK    4  A    between atoms: C41_9  and  N43_11 
REMARK    5  A    between atoms: N21_12  and  C14_13 
ROOT
ATOM      1  C31 Y27 d           9.685   9.343   2.707  0.00  0.00     0.024 C 
ATOM      2  C36 Y27 d          10.122   9.699   4.132  0.00  0.00    -0.053 C 
ATOM      3  C35 Y27 d          11.636   9.519   4.276  0.00  0.00    -0.059 C 
ATOM      4  C34 Y27 d          11.922   8.020   4.134  0.00  0.00    -0.027 C 
ATOM      5  C33 Y27 d          11.544   7.554   2.703  0.00  0.00    -0.059 C 
ATOM      6  C32 Y27 d          10.054   7.892   2.342  0.00  0.00    -0.053 C 
ATOM      7  H1  Y27 d          10.234   9.998   2.016  0.00  0.00     0.054 H 
ATOM      8  H2  Y27 d           9.607   9.040   4.846  0.00  0.00     0.034 H 
ATOM      9  H3  Y27 d           9.858  10.746   4.343  0.00  0.00     0.034 H 
ATOM     10  H4  Y27 d          11.967   9.876   5.262  0.00  0.00     0.033 H 
ATOM     11  H5  Y27 d          12.160  10.080   3.488  0.00  0.00     0.033 H 
ATOM     12  H6  Y27 d          11.264   7.479   4.830  0.00  0.00     0.043 H 
ATOM     13  H7  Y27 d          11.686   6.465   2.635  0.00  0.00     0.033 H 
ATOM     14  H8  Y27 d          12.205   8.057   1.981  0.00  0.00     0.033 H 
ATOM     15  H9  Y27 d           9.910   7.750   1.261  0.00  0.00     0.034 H 
ATOM     16  H10 Y27 d           9.392   7.208   2.893  0.00  0.00     0.034 H 
ENDROOT
BRANCH   1  17
ATOM     17  C22 Y27 d           8.216   9.644   2.543  0.00  0.00     0.226 C 
ATOM     18  O23 Y27 d           7.685   9.851   1.448  0.00  0.00    -0.273 OA
ATOM     19  N21 Y27 d           7.492   9.638   3.768  0.00  0.00    -0.327 N 
ATOM     20  H18 Y27 d           8.032   9.714   4.606  0.00  0.00     0.169 HD
BRANCH  19  21
ATOM     21  C14 Y27 d           6.063   9.534   3.930  0.00  0.00     0.037 A 
ATOM     22  C15 Y27 d           5.554  10.006   5.152  0.00  0.00    -0.040 A 
ATOM     23  C16 Y27 d           4.172   9.894   5.326  0.00  0.00     0.004 A 
ATOM     24  H19 Y27 d           6.195  10.432   5.914  0.00  0.00     0.089 H 
ATOM     25  N11 Y27 d           3.367   9.378   4.374  0.00  0.00    -0.273 NA
ATOM     26  H20 Y27 d           3.733  10.233   6.257  0.00  0.00     0.114 H 
ATOM     27  C12 Y27 d           3.839   8.922   3.203  0.00  0.00     0.004 A 
ATOM     28  C13 Y27 d           5.200   8.981   2.940  0.00  0.00    -0.040 A 
ATOM     29  H21 Y27 d           3.160   8.510   2.466  0.00  0.00     0.114 H 
ATOM     30  H22 Y27 d           5.599   8.613   2.002  0.00  0.00     0.089 H 
ENDBRANCH  19  21
ENDBRANCH   1  17
BRANCH   4  31
ATOM     31  C41 Y27 d          13.388   7.730   4.581  0.00  0.00     0.100 C 
ATOM     32  H11 Y27 d          13.358   7.018   5.418  0.00  0.00     0.083 H 
BRANCH  31  33
ATOM     33  C42 Y27 d          14.192   7.102   3.427  0.00  0.00    -0.049 C 
ATOM     34  H12 Y27 d          13.505   6.812   2.617  0.00  0.00     0.030 H 
ATOM     35  H13 Y27 d          14.724   6.212   3.794  0.00  0.00     0.030 H 
ATOM     36  H14 Y27 d          14.919   7.834   3.047  0.00  0.00     0.030 H 
ENDBRANCH  31  33
BRANCH  31  37
ATOM     37  N43 Y27 d          14.084   8.983   5.044  0.00  0.00    -0.075 N 
ATOM     38  H15 Y27 d          14.902   8.735   5.579  0.00  0.00     0.274 HD
ATOM     39  H16 Y27 d          13.457   9.523   5.620  0.00  0.00     0.274 HD
ATOM     40  H17 Y27 d          14.360   9.531   4.243  0.00  0.00     0.274 HD
ENDBRANCH  31  37
ENDBRANCH   4  31
TORSDOF 5
ENDMDL
MODEL 5
REMARK VINA RESULT:      -7.1      1.800      2.454
REMARK  5 active torsions:
REMARK  status: ('A' for Active; 'I' for Inactive)
REMARK    1  A    between atoms: C22_2  and  C31_3 
REMARK       I    between atoms: C22_2  and  N21_12 
REMARK    2  A    between atoms: C34_6  and  C41_9 
REMARK    3  A    between atoms: C41_9  and  C42_10 
REMARK    4  A    between atoms: C41_9  and  N43_11 
REMARK    5  A    between atoms: N21_12  and  C14_13 
ROOT
ATOM      1  C31 Y27 d           9.834  10.279   3.745  0.00  0.00     0.024 C 
ATOM      2  C36 Y27 d           9.089   9.458   2.688  0.00  0.00    -0.053 C 
ATOM      3  C35 Y27 d           7.598   9.808   2.707  0.00  0.00    -0.059 C 
ATOM      4  C34 Y27 d           7.044   9.323   4.053  0.00  0.00    -0.027 C 
ATOM      5  C33 Y27 d           7.712  10.120   5.204  0.00  0.00    -0.059 C 
ATOM      6  C32 Y27 d           9.278  10.028   5.161  0.00  0.00    -0.053 C 
ATOM      7  H1  Y27 d           9.668  11.343   3.520  0.00  0.00     0.054 H 
ATOM      8  H2  Y27 d           9.214   8.387   2.905  0.00  0.00     0.034 H 
ATOM      9  H3  Y27 d           9.503   9.682   1.694  0.00  0.00     0.034 H 
ATOM     10  H4  Y27 d           7.080   9.301   1.881  0.00  0.00     0.033 H 
ATOM     11  H5  Y27 d           7.463  10.895   2.613  0.00  0.00     0.033 H 
ATOM     12  H6  Y27 d           7.334   8.271   4.183  0.00  0.00     0.043 H 
ATOM     13  H7  Y27 d           7.360   9.717   6.165  0.00  0.00     0.033 H 
ATOM     14  H8  Y27 d           7.417  11.177   5.120  0.00  0.00     0.033 H 
ATOM     15  H9  Y27 d           9.697  10.780   5.845  0.00  0.00     0.034 H 
ATOM     16  H10 Y27 d           9.583   9.023   5.488  0.00  0.00     0.034 H 
ENDROOT
BRANCH   1  17
ATOM     17  C22 Y27 d          11.315  10.019   3.631  0.00  0.00     0.226 C 
ATOM     18  O23 Y27 d          12.066   9.936   4.607  0.00  0.00    -0.273 OA
ATOM     19  N21 Y27 d          11.762   9.850   2.291  0.00  0.00    -0.327 N 
ATOM     20  H18 Y27 d          11.151  10.179   1.571  0.00  0.00     0.169 HD
BRANCH  19  21
ATOM     21  C14 Y27 d          13.003   9.253   1.860  0.00  0.00     0.037 A 
ATOM     22  C15 Y27 d          13.855  10.089   1.120  0.00  0.00    -0.040 A 
ATOM     23  C16 Y27 d          15.051   9.515   0.682  0.00  0.00     0.004 A 
ATOM     24  H19 Y27 d          13.599  11.119   0.900  0.00  0.00     0.089 H 
ATOM     25  N11 Y27 d          15.381   8.237   0.964  0.00  0.00    -0.273 NA
ATOM     26  H20 Y27 d          15.737  10.117   0.096  0.00  0.00     0.114 H 
ATOM     27  C12 Y27 d          14.577   7.427   1.670  0.00  0.00     0.004 A 
ATOM     28  C13 Y27 d          13.361   7.902   2.140  0.00  0.00    -0.040 A 
ATOM     29  H21 Y27 d          14.876   6.405   1.871  0.00  0.00     0.114 H 
ATOM     30  H22 Y27 d          12.697   7.260   2.707  0.00  0.00     0.089 H 
ENDBRANCH  19  21
ENDBRANCH   1  17
BRANCH   4  31
ATOM     31  C41 Y27 d           5.485   9.361   4.012  0.00  0.00     0.100 C 
ATOM     32  H11 Y27 d           5.118   8.326   3.957  0.00  0.00     0.083 H 
BRANCH  31  33
ATOM     33  C42 Y27 d           4.925  10.017   5.287  0.00  0.00    -0.049 C 
ATOM     34  H12 Y27 d           4.522  11.011   5.042  0.00  0.00     0.030 H 
ATOM     35  H13 Y27 d           5.730  10.121   6.030  0.00  0.00     0.030 H 
ATOM     36  H14 Y27 d           4.123   9.387   5.701  0.00  0.00     0.030 H 
ENDBRANCH  31  33
BRANCH  31  37
ATOM     37  N43 Y27 d           4.980  10.111   2.807  0.00  0.00    -0.075 N 
ATOM     38  H15 Y27 d           4.287  10.784   3.096  0.00  0.00     0.274 HD
ATOM     39  H16 Y27 d           4.567   9.462   2.156  0.00  0.00     0.274 HD
ATOM     40  H17 Y27 d           5.748  10.590   2.362  0.00  0.00     0.274 HD
ENDBRANCH  31  37
ENDBRANCH   4  31
TORSDOF 5
ENDMDL
MODEL 6
REMARK VINA RESULT:      -6.8      2.078      7.562
REMARK  5 active torsions:
REMARK  status: ('A' for Active; 'I' for Inactive)
REMARK    1  A    between atoms: C22_2  and  C31_3 
REMARK       I    between atoms: C22_2  and  N21_12 
REMARK    2  A    between atoms: C34_6  and  C41_9 
REMARK    3  A    between atoms: C41_9  and  C42_10 
REMARK    4  A    between atoms: C41_9  and  N43_11 
REMARK    5  A    between atoms: N21_12  and  C14_13 
ROOT
ATOM      1  C31 Y27 d           9.597  10.059   2.767  0.00  0.00     0.024 C 
ATOM      2  C36 Y27 d          10.874  10.392   3.543  0.00  0.00    -0.053 C 
ATOM      3  C35 Y27 d          11.998  10.762   2.570  0.00  0.00    -0.059 C 
ATOM      4  C34 Y27 d          12.333   9.494   1.775  0.00  0.00    -0.027 C 
ATOM      5  C33 Y27 d          11.107   9.081   0.918  0.00  0.00    -0.059 C 
ATOM      6  C32 Y27 d           9.813   8.891   1.785  0.00  0.00    -0.053 C 
ATOM      7  H1  Y27 d           9.332  10.940   2.165  0.00  0.00     0.054 H 
ATOM      8  H2  Y27 d          11.179   9.518   4.136  0.00  0.00     0.034 H 
ATOM      9  H3  Y27 d          10.681  11.241   4.215  0.00  0.00     0.034 H 
ATOM     10  H4  Y27 d          12.883  11.104   3.126  0.00  0.00     0.033 H 
ATOM     11  H5  Y27 d          11.662  11.557   1.888  0.00  0.00     0.033 H 
ATOM     12  H6  Y27 d          12.511   8.678   2.491  0.00  0.00     0.043 H 
ATOM     13  H7  Y27 d          11.334   8.134   0.408  0.00  0.00     0.033 H 
ATOM     14  H8  Y27 d          10.919   9.866   0.169  0.00  0.00     0.033 H 
ATOM     15  H9  Y27 d           8.943   8.825   1.114  0.00  0.00     0.034 H 
ATOM     16  H10 Y27 d           9.905   7.957   2.359  0.00  0.00     0.034 H 
ENDROOT
BRANCH   1  17
ATOM     17  C22 Y27 d           8.467   9.821   3.737  0.00  0.00     0.226 C 
ATOM     18  O23 Y27 d           8.579   9.967   4.958  0.00  0.00    -0.273 OA
ATOM     19  N21 Y27 d           7.249   9.437   3.110  0.00  0.00    -0.327 N 
ATOM     20  H18 Y27 d           7.316   9.103   2.170  0.00  0.00     0.169 HD
BRANCH  19  21
ATOM     21  C14 Y27 d           5.926   9.479   3.685  0.00  0.00     0.037 A 
ATOM     22  C15 Y27 d           4.901   8.934   2.894  0.00  0.00    -0.040 A 
ATOM     23  C16 Y27 d           3.614   8.986   3.435  0.00  0.00     0.004 A 
ATOM     24  H19 Y27 d           5.098   8.498   1.921  0.00  0.00     0.089 H 
ATOM     25  N11 Y27 d           3.366   9.514   4.652  0.00  0.00    -0.273 NA
ATOM     26  H20 Y27 d           2.787   8.589   2.857  0.00  0.00     0.114 H 
ATOM     27  C12 Y27 d           4.335  10.039   5.418  0.00  0.00     0.004 A 
ATOM     28  C13 Y27 d           5.646  10.044   4.963  0.00  0.00    -0.040 A 
ATOM     29  H21 Y27 d           4.094  10.458   6.388  0.00  0.00     0.114 H 
ATOM     30  H22 Y27 d           6.440  10.468   5.567  0.00  0.00     0.089 H 
ENDBRANCH  19  21
ENDBRANCH   1  17
BRANCH   4  31
ATOM     31  C41 Y27 d          13.667   9.711   0.998  0.00  0.00     0.100 C 
ATOM     32  H11 Y27 d          13.761   8.913   0.246  0.00  0.00     0.083 H 
BRANCH  31  33
ATOM     33  C42 Y27 d          13.658  11.071   0.275  0.00  0.00    -0.049 C 
ATOM     34  H12 Y27 d          13.251  10.944  -0.740  0.00  0.00     0.030 H 
ATOM     35  H13 Y27 d          14.685  11.460   0.212  0.00  0.00     0.030 H 
ATOM     36  H14 Y27 d          13.031  11.779   0.835  0.00  0.00     0.030 H 
ENDBRANCH  31  33
BRANCH  31  37
ATOM     37  N43 Y27 d          14.861   9.646   1.914  0.00  0.00    -0.075 N 
ATOM     38  H15 Y27 d          14.557   9.401   2.844  0.00  0.00     0.274 HD
ATOM     39  H16 Y27 d          15.317  10.544   1.936  0.00  0.00     0.274 HD
ATOM     40  H17 Y27 d          15.507   8.949   1.577  0.00  0.00     0.274 HD
ENDBRANCH  31  37
ENDBRANCH   4  31
TORSDOF 5
ENDMDL
MODEL 7
REMARK VINA RESULT:      -6.7      2.043      2.423
REMARK  5 active torsions:
REMARK  status: ('A' for Active; 'I' for Inactive)
REMARK    1  A    between atoms: C22_2  and  C31_3 
REMARK       I    between atoms: C22_2  and  N21_12 
REMARK    2  A    between atoms: C34_6  and  C41_9 
REMARK    3  A    between atoms: C41_9  and  C42_10 
REMARK    4  A    between atoms: C41_9  and  N43_11 
REMARK    5  A    between atoms: N21_12  and  C14_13 
ROOT
ATOM      1  C31 Y27 d           8.512   8.434   2.785  0.00  0.00     0.024 C 
ATOM      2  C36 Y27 d           8.336   8.983   4.204  0.00  0.00    -0.053 C 
ATOM      3  C35 Y27 d           6.854   8.972   4.591  0.00  0.00    -0.059 C 
ATOM      4  C34 Y27 d           6.148   9.985   3.682  0.00  0.00    -0.027 C 
ATOM      5  C33 Y27 d           6.237   9.506   2.208  0.00  0.00    -0.059 C 
ATOM      6  C32 Y27 d           7.717   9.258   1.752  0.00  0.00    -0.053 C 
ATOM      7  H1  Y27 d           8.100   7.415   2.767  0.00  0.00     0.054 H 
ATOM      8  H2  Y27 d           8.715  10.014   4.245  0.00  0.00     0.034 H 
ATOM      9  H3  Y27 d           8.901   8.356   4.910  0.00  0.00     0.034 H 
ATOM     10  H4  Y27 d           6.735   9.263   5.645  0.00  0.00     0.033 H 
ATOM     11  H5  Y27 d           6.430   7.968   4.438  0.00  0.00     0.033 H 
ATOM     12  H6  Y27 d           6.696  10.937   3.741  0.00  0.00     0.043 H 
ATOM     13  H7  Y27 d           5.791  10.274   1.559  0.00  0.00     0.033 H 
ATOM     14  H8  Y27 d           5.673   8.567   2.107  0.00  0.00     0.033 H 
ATOM     15  H9  Y27 d           7.707   8.713   0.796  0.00  0.00     0.034 H 
ATOM     16  H10 Y27 d           8.215  10.229   1.615  0.00  0.00     0.034 H 
ENDROOT
BRANCH   1  17
ATOM     17  C22 Y27 d           9.982   8.333   2.464  0.00  0.00     0.226 C 
ATOM     18  O23 Y27 d          10.571   7.259   2.315  0.00  0.00    -0.273 OA
ATOM     19  N21 Y27 d          10.622   9.595   2.320  0.00  0.00    -0.327 N 
ATOM     20  H18 Y27 d          10.141  10.386   2.700  0.00  0.00     0.169 HD
BRANCH  19  21
ATOM     21  C14 Y27 d          11.890   9.858   1.684  0.00  0.00     0.037 A 
ATOM     22  C15 Y27 d          11.863  10.794   0.637  0.00  0.00    -0.040 A 
ATOM     23  C16 Y27 d          13.083  11.042   0.003  0.00  0.00     0.004 A 
ATOM     24  H19 Y27 d          10.949  11.294   0.338  0.00  0.00     0.089 H 
ATOM     25  N11 Y27 d          14.226  10.433   0.381  0.00  0.00    -0.273 NA
ATOM     26  H20 Y27 d          13.112  11.747  -0.819  0.00  0.00     0.114 H 
ATOM     27  C12 Y27 d          14.267   9.536   1.379  0.00  0.00     0.004 A 
ATOM     28  C13 Y27 d          13.103   9.215   2.063  0.00  0.00    -0.040 A 
ATOM     29  H21 Y27 d          15.205   9.065   1.649  0.00  0.00     0.114 H 
ATOM     30  H22 Y27 d          13.117   8.489   2.869  0.00  0.00     0.089 H 
ENDBRANCH  19  21
ENDBRANCH   1  17
BRANCH   4  31
ATOM     31  C41 Y27 d           4.713  10.254   4.226  0.00  0.00     0.100 C 
ATOM     32  H11 Y27 d           4.400  11.254   3.891  0.00  0.00     0.083 H 
BRANCH  31  33
ATOM     33  C42 Y27 d           3.720   9.215   3.673  0.00  0.00    -0.049 C 
ATOM     34  H12 Y27 d           3.063   8.867   4.485  0.00  0.00     0.030 H 
ATOM     35  H13 Y27 d           4.275   8.361   3.259  0.00  0.00     0.030 H 
ATOM     36  H14 Y27 d           3.110   9.676   2.882  0.00  0.00     0.030 H 
ENDBRANCH  31  33
BRANCH  31  37
ATOM     37  N43 Y27 d           4.675  10.222   5.732  0.00  0.00    -0.075 N 
ATOM     38  H15 Y27 d           5.490   9.737   6.078  0.00  0.00     0.274 HD
ATOM     39  H16 Y27 d           3.844   9.741   6.037  0.00  0.00     0.274 HD
ATOM     40  H17 Y27 d           4.668  11.165   6.089  0.00  0.00     0.274 HD
ENDBRANCH  31  37
ENDBRANCH   4  31
TORSDOF 5
ENDMDL
MODEL 8
REMARK VINA RESULT:      -6.4      1.523      7.784
REMARK  5 active torsions:
REMARK  status: ('A' for Active; 'I' for Inactive)
REMARK    1  A    between atoms: C22_2  and  C31_3 
REMARK       I    between atoms: C22_2  and  N21_12 
REMARK    2  A    between atoms: C34_6  and  C41_9 
REMARK    3  A    between atoms: C41_9  and  C42_10 
REMARK    4  A    between atoms: C41_9  and  N43_11 
REMARK    5  A    between atoms: N21_12  and  C14_13 
ROOT
ATOM      1  C31 Y27 d          11.238   8.799   3.230  0.00  0.00     0.024 C 
ATOM      2  C36 Y27 d          12.048   7.819   4.085  0.00  0.00    -0.053 C 
ATOM      3  C35 Y27 d          13.521   8.238   4.109  0.00  0.00    -0.059 C 
ATOM      4  C34 Y27 d          14.058   8.062   2.684  0.00  0.00    -0.027 C 
ATOM      5  C33 Y27 d          13.323   9.042   1.730  0.00  0.00    -0.059 C 
ATOM      6  C32 Y27 d          11.765   8.865   1.783  0.00  0.00    -0.053 C 
ATOM      7  H1  Y27 d          11.362   9.801   3.663  0.00  0.00     0.054 H 
ATOM      8  H2  Y27 d          11.964   6.809   3.658  0.00  0.00     0.034 H 
ATOM      9  H3  Y27 d          11.653   7.817   5.111  0.00  0.00     0.034 H 
ATOM     10  H4  Y27 d          14.084   7.601   4.806  0.00  0.00     0.033 H 
ATOM     11  H5  Y27 d          13.610   9.290   4.420  0.00  0.00     0.033 H 
ATOM     12  H6  Y27 d          13.811   7.045   2.348  0.00  0.00     0.043 H 
ATOM     13  H7  Y27 d          13.665   8.858   0.701  0.00  0.00     0.033 H 
ATOM     14  H8  Y27 d          13.572  10.073   2.021  0.00  0.00     0.033 H 
ATOM     15  H9  Y27 d          11.293   9.719   1.273  0.00  0.00     0.034 H 
ATOM     16  H10 Y27 d          11.495   7.933   1.264  0.00  0.00     0.034 H 
ENDROOT
BRANCH   1  17
ATOM     17  C22 Y27 d           9.774   8.448   3.316  0.00  0.00     0.226 C 
ATOM     18  O23 Y27 d           9.360   7.345   3.685  0.00  0.00    -0.273 OA
ATOM     19  N21 Y27 d           8.910   9.521   2.959  0.00  0.00    -0.327 N 
ATOM     20  H18 Y27 d           9.320  10.273   2.442  0.00  0.00     0.169 HD
BRANCH  19  21
ATOM     21  C14 Y27 d           7.504   9.641   3.263  0.00  0.00     0.037 A 
ATOM     22  C15 Y27 d           7.197  10.015   4.582  0.00  0.00    -0.040 A 
ATOM     23  C16 Y27 d           5.839  10.116   4.891  0.00  0.00     0.004 A 
ATOM     24  H19 Y27 d           7.969  10.212   5.317  0.00  0.00     0.089 H 
ATOM     25  N11 Y27 d           4.874   9.886   3.976  0.00  0.00    -0.273 NA
ATOM     26  H20 Y27 d           5.550  10.390   5.900  0.00  0.00     0.114 H 
ATOM     27  C12 Y27 d           5.153   9.527   2.713  0.00  0.00     0.004 A 
ATOM     28  C13 Y27 d           6.474   9.390   2.312  0.00  0.00    -0.040 A 
ATOM     29  H21 Y27 d           4.349   9.346   2.009  0.00  0.00     0.114 H 
ATOM     30  H22 Y27 d           6.716   9.096   1.297  0.00  0.00     0.089 H 
ENDBRANCH  19  21
ENDBRANCH   1  17
BRANCH   4  31
ATOM     31  C41 Y27 d          15.614   8.168   2.703  0.00  0.00     0.100 C 
ATOM     32  H11 Y27 d          16.028   7.152   2.630  0.00  0.00     0.083 H 
BRANCH  31  33
ATOM     33  C42 Y27 d          16.116   8.992   1.503  0.00  0.00    -0.049 C 
ATOM     34  H12 Y27 d          15.472   9.874   1.368  0.00  0.00     0.030 H 
ATOM     35  H13 Y27 d          16.083   8.373   0.594  0.00  0.00     0.030 H 
ATOM     36  H14 Y27 d          17.150   9.317   1.689  0.00  0.00     0.030 H 
ENDBRANCH  31  33
BRANCH  31  37
ATOM     37  N43 Y27 d          16.112   8.797   3.978  0.00  0.00    -0.075 N 
ATOM     38  H15 Y27 d          17.115   8.710   4.026  0.00  0.00     0.274 HD
ATOM     39  H16 Y27 d          15.695   8.330   4.768  0.00  0.00     0.274 HD
ATOM     40  H17 Y27 d          15.858   9.773   3.993  0.00  0.00     0.274 HD
ENDBRANCH  31  37
ENDBRANCH   4  31
TORSDOF 5
ENDMDL
MODEL 9
REMARK VINA RESULT:      -5.2      1.730      7.639
REMARK  5 active torsions:
REMARK  status: ('A' for Active; 'I' for Inactive)
REMARK    1  A    between atoms: C22_2  and  C31_3 
REMARK       I    between atoms: C22_2  and  N21_12 
REMARK    2  A    between atoms: C34_6  and  C41_9 
REMARK    3  A    between atoms: C41_9  and  C42_10 
REMARK    4  A    between atoms: C41_9  and  N43_11 
REMARK    5  A    between atoms: N21_12  and  C14_13 
ROOT
ATOM      1  C31 Y27 d          10.731   8.340   3.507  0.00  0.00     0.024 C 
ATOM      2  C36 Y27 d          11.347   9.022   4.731  0.00  0.00    -0.053 C 
ATOM      3  C35 Y27 d          12.846   9.249   4.507  0.00  0.00    -0.059 C 
ATOM      4  C34 Y27 d          13.502   7.864   4.449  0.00  0.00    -0.027 C 
ATOM      5  C33 Y27 d          12.970   7.091   3.214  0.00  0.00    -0.059 C 
ATOM      6  C32 Y27 d          11.404   6.985   3.208  0.00  0.00    -0.053 C 
ATOM      7  H1  Y27 d          10.912   8.987   2.637  0.00  0.00     0.054 H 
ATOM      8  H2  Y27 d          11.204   8.383   5.615  0.00  0.00     0.034 H 
ATOM      9  H3  Y27 d          10.853   9.991   4.896  0.00  0.00     0.034 H 
ATOM     10  H4  Y27 d          13.268   9.834   5.336  0.00  0.00     0.033 H 
ATOM     11  H5  Y27 d          13.009   9.784   3.560  0.00  0.00     0.033 H 
ATOM     12  H6  Y27 d          13.188   7.300   5.339  0.00  0.00     0.043 H 
ATOM     13  H7  Y27 d          13.393   6.075   3.223  0.00  0.00     0.033 H 
ATOM     14  H8  Y27 d          13.292   7.615   2.302  0.00  0.00     0.033 H 
ATOM     15  H9  Y27 d          11.076   6.636   2.218  0.00  0.00     0.034 H 
ATOM     16  H10 Y27 d          11.094   6.259   3.974  0.00  0.00     0.034 H 
ENDROOT
BRANCH   1  17
ATOM     17  C22 Y27 d           9.237   8.236   3.688  0.00  0.00     0.226 C 
ATOM     18  O23 Y27 d           8.705   7.499   4.522  0.00  0.00    -0.273 OA
ATOM     19  N21 Y27 d           8.498   9.091   2.824  0.00  0.00    -0.327 N 
ATOM     20  H18 Y27 d           8.985   9.451   2.028  0.00  0.00     0.169 HD
BRANCH  19  21
ATOM     21  C14 Y27 d           7.121   9.495   2.973  0.00  0.00     0.037 A 
ATOM     22  C15 Y27 d           6.609   9.440   4.280  0.00  0.00    -0.040 A 
ATOM     23  C16 Y27 d           5.271   9.812   4.432  0.00  0.00     0.004 A 
ATOM     24  H19 Y27 d           7.217   9.127   5.122  0.00  0.00     0.089 H 
ATOM     25  N11 Y27 d           4.514  10.217   3.391  0.00  0.00    -0.273 NA
ATOM     26  H20 Y27 d           4.827   9.775   5.420  0.00  0.00     0.114 H 
ATOM     27  C12 Y27 d           4.990  10.273   2.137  0.00  0.00     0.004 A 
ATOM     28  C13 Y27 d           6.305   9.913   1.882  0.00  0.00    -0.040 A 
ATOM     29  H21 Y27 d           4.348  10.599   1.326  0.00  0.00     0.114 H 
ATOM     30  H22 Y27 d           6.704   9.948   0.875  0.00  0.00     0.089 H 
ENDBRANCH  19  21
ENDBRANCH   1  17
BRANCH   4  31
ATOM     31  C41 Y27 d          15.050   8.025   4.539  0.00  0.00     0.100 C 
ATOM     32  H11 Y27 d          15.450   7.181   5.120  0.00  0.00     0.083 H 
BRANCH  31  33
ATOM     33  C42 Y27 d          15.680   7.998   3.134  0.00  0.00    -0.049 C 
ATOM     34  H12 Y27 d          14.980   8.443   2.410  0.00  0.00     0.030 H 
ATOM     35  H13 Y27 d          15.893   6.958   2.846  0.00  0.00     0.030 H 
ATOM     36  H14 Y27 d          16.616   8.576   3.141  0.00  0.00     0.030 H 
ENDBRANCH  31  33
BRANCH  31  37
ATOM     37  N43 Y27 d          15.437   9.306   5.230  0.00  0.00    -0.075 N 
ATOM     38  H15 Y27 d          15.631  10.015   4.539  0.00  0.00     0.274 HD
ATOM     39  H16 Y27 d          16.259   9.150   5.792  0.00  0.00     0.274 HD
ATOM     40  H17 Y27 d          14.679   9.611   5.821  0.00  0.00     0.274 HD
ENDBRANCH  31  37
ENDBRANCH   4  31
TORSDOF 5
ENDMDL
MODEL 10
REMARK VINA RESULT:      -5.1      1.966      2.660
REMARK  5 active torsions:
REMARK  status: ('A' for Active; 'I' for Inactive)
REMARK    1  A    between atoms: C22_2  and  C31_3 
REMARK       I    between atoms: C22_2  and  N21_12 
REMARK    2  A    between atoms: C34_6  and  C41_9 
REMARK    3  A    between atoms: C41_9  and  C42_10 
REMARK    4  A    between atoms: C41_9  and  N43_11 
REMARK    5  A    between atoms: N21_12  and  C14_13 
ROOT
ATOM      1  C31 Y27 d          10.220   9.022   1.879  0.00  0.00     0.024 C 
ATOM      2  C36 Y27 d           9.482   8.617   3.159  0.00  0.00    -0.053 C 
ATOM      3  C35 Y27 d           8.006   8.347   2.850  0.00  0.00    -0.059 C 
ATOM      4  C34 Y27 d           7.385   9.688   2.439  0.00  0.00    -0.027 C 
ATOM      5  C33 Y27 d           8.042  10.179   1.122  0.00  0.00    -0.059 C 
ATOM      6  C32 Y27 d           9.604  10.281   1.238  0.00  0.00    -0.053 C 
ATOM      7  H1  Y27 d          10.105   8.203   1.154  0.00  0.00     0.054 H 
ATOM      8  H2  Y27 d           9.558   9.430   3.895  0.00  0.00     0.034 H 
ATOM      9  H3  Y27 d           9.940   7.706   3.571  0.00  0.00     0.034 H 
ATOM     10  H4  Y27 d           7.499   7.953   3.742  0.00  0.00     0.033 H 
ATOM     11  H5  Y27 d           7.919   7.622   2.028  0.00  0.00     0.033 H 
ATOM     12  H6  Y27 d           7.629  10.429   3.213  0.00  0.00     0.043 H 
ATOM     13  H7  Y27 d           7.640  11.173   0.874  0.00  0.00     0.033 H 
ATOM     14  H8  Y27 d           7.793   9.472   0.316  0.00  0.00     0.033 H 
ATOM     15  H9  Y27 d          10.027  10.410   0.231  0.00  0.00     0.034 H 
ATOM     16  H10 Y27 d           9.858  11.154   1.857  0.00  0.00     0.034 H 
ENDROOT
BRANCH   1  17
ATOM     17  C22 Y27 d          11.693   9.161   2.171  0.00  0.00     0.226 C 
ATOM     18  O23 Y27 d          12.403  10.039   1.673  0.00  0.00    -0.273 OA
ATOM     19  N21 Y27 d          12.183   8.202   3.101  0.00  0.00    -0.327 N 
ATOM     20  H18 Y27 d          11.613   7.394   3.251  0.00  0.00     0.169 HD
BRANCH  19  21
ATOM     21  C14 Y27 d          13.414   8.270   3.850  0.00  0.00     0.037 A 
ATOM     22  C15 Y27 d          13.346   8.958   5.072  0.00  0.00    -0.040 A 
ATOM     23  C16 Y27 d          14.537   9.044   5.797  0.00  0.00     0.004 A 
ATOM     24  H19 Y27 d          12.422   9.397   5.432  0.00  0.00     0.089 H 
ATOM     25  N11 Y27 d          15.686   8.487   5.360  0.00  0.00    -0.273 NA
ATOM     26  H20 Y27 d          14.538   9.577   6.741  0.00  0.00     0.114 H 
ATOM     27  C12 Y27 d          15.767   7.827   4.194  0.00  0.00     0.004 A 
ATOM     28  C13 Y27 d          14.638   7.697   3.397  0.00  0.00    -0.040 A 
ATOM     29  H21 Y27 d          16.710   7.398   3.876  0.00  0.00     0.114 H 
ATOM     30  H22 Y27 d          14.687   7.172   2.450  0.00  0.00     0.089 H 
ENDBRANCH  19  21
ENDBRANCH   1  17
BRANCH   4  31
ATOM     31  C41 Y27 d           5.832   9.550   2.416  0.00  0.00     0.100 C 
ATOM     32  H11 Y27 d           5.567   8.768   1.691  0.00  0.00     0.083 H 
BRANCH  31  33
ATOM     33  C42 Y27 d           5.305   9.137   3.803  0.00  0.00    -0.049 C 
ATOM     34  H12 Y27 d           4.371   9.680   4.017  0.00  0.00     0.030 H 
ATOM     35  H13 Y27 d           6.055   9.382   4.569  0.00  0.00     0.030 H 
ATOM     36  H14 Y27 d           5.110   8.055   3.813  0.00  0.00     0.030 H 
ENDBRANCH  31  33
BRANCH  31  37
ATOM     37  N43 Y27 d           5.168  10.836   1.997  0.00  0.00    -0.075 N 
ATOM     38  H15 Y27 d           5.367  11.554   2.676  0.00  0.00     0.274 HD
ATOM     39  H16 Y27 d           4.172  10.695   1.939  0.00  0.00     0.274 HD
ATOM     40  H17 Y27 d           5.520  11.118   1.096  0.00  0.00     0.274 HD
ENDBRANCH  31  37
ENDBRANCH   4  31
TORSDOF 5
ENDMDL
