MODEL 1
REMARK VINA RESULT:      -8.0      0.000      0.000
REMARK  3 active torsions:
REMARK  status: ('A' for Active; 'I' for Inactive)
REMARK    1  A    between atoms: C1'_19  and  C2_1 
REMARK    2  A    between atoms: C6_5  and  O5_12 
REMARK    3  A    between atoms: C8_7  and  O7_13 
ROOT
ATOM      1  C2  MOL d          21.455  -0.273  -5.873  0.00  0.00     0.090 A 
ATOM      2  C3  MOL d          21.836  -1.438  -6.528  0.00  0.00    -0.000 A 
ATOM      3  C4  MOL d          21.857  -1.472  -7.911  0.00  0.00     0.190 A 
ATOM      4  C5  MOL d          21.494  -0.333  -8.609  0.00  0.00     0.081 A 
ATOM      5  C6  MOL d          21.507  -0.340 -10.000  0.00  0.00     0.085 A 
ATOM      6  C7  MOL d          21.144   0.801 -10.705  0.00  0.00    -0.018 A 
ATOM      7  C8  MOL d          20.769   1.949 -10.016  0.00  0.00     0.071 A 
ATOM      8  C9  MOL d          20.758   1.952  -8.626  0.00  0.00    -0.017 A 
ATOM      9  C10 MOL d          21.120   0.813  -7.915  0.00  0.00     0.095 A 
ATOM     10  O1  MOL d          21.095   0.859  -6.550  0.00  0.00    -0.309 OA
ATOM     11  O4  MOL d          22.191  -2.494  -8.508  0.00  0.00    -0.287 OA
ATOM     12  H1  MOL d          22.116  -2.320  -5.955  0.00  0.00     0.094 H 
ATOM     13  H2  MOL d          21.152   0.796 -11.788  0.00  0.00     0.092 H 
ATOM     14  H3  MOL d          20.465   2.848  -8.093  0.00  0.00     0.092 H 
ENDROOT
BRANCH   1  15
ATOM     15  C1' MOL d          21.440  -0.257  -4.483  0.00  0.00    -0.002 A 
ATOM     16  C2' MOL d          20.554   0.573  -3.807  0.00  0.00    -0.070 A 
ATOM     17  C3' MOL d          20.539   0.589  -2.417  0.00  0.00    -0.082 A 
ATOM     18  H6  MOL d          19.874   1.208  -4.364  0.00  0.00     0.084 H 
ATOM     19  C4' MOL d          21.411  -0.225  -1.703  0.00  0.00    -0.083 A 
ATOM     20  H7  MOL d          19.847   1.236  -1.890  0.00  0.00     0.083 H 
ATOM     21  C5' MOL d          22.297  -1.055  -2.379  0.00  0.00    -0.082 A 
ATOM     22  H8  MOL d          21.400  -0.212  -0.619  0.00  0.00     0.083 H 
ATOM     23  C6' MOL d          22.312  -1.071  -3.769  0.00  0.00    -0.070 A 
ATOM     24  H9  MOL d          22.977  -1.689  -1.823  0.00  0.00     0.083 H 
ATOM     25  H10 MOL d          23.004  -1.718  -4.296  0.00  0.00     0.084 H 
ENDBRANCH   1  15
BRANCH   5  26
ATOM     26  O5  MOL d          21.874  -1.465 -10.670  0.00  0.00    -0.360 OA
ATOM     27  H4  MOL d          21.290  -2.176 -10.435  0.00  0.00     0.217 HD
ENDBRANCH   5  26
BRANCH   7  28
ATOM     28  O7  MOL d          20.413   3.068 -10.702  0.00  0.00    -0.361 OA
ATOM     29  H5  MOL d          20.691   3.837 -10.218  0.00  0.00     0.217 HD
ENDBRANCH   7  28
TORSDOF 3
ENDMDL
MODEL 2
REMARK VINA RESULT:      -7.8      1.126      2.733
REMARK  3 active torsions:
REMARK  status: ('A' for Active; 'I' for Inactive)
REMARK    1  A    between atoms: C1'_19  and  C2_1 
REMARK    2  A    between atoms: C6_5  and  O5_12 
REMARK    3  A    between atoms: C8_7  and  O7_13 
ROOT
ATOM      1  C2  MOL d          21.068   0.305  -5.872  0.00  0.00     0.090 A 
ATOM      2  C3  MOL d          20.675   1.479  -6.505  0.00  0.00    -0.000 A 
ATOM      3  C4  MOL d          20.651   1.540  -7.887  0.00  0.00     0.190 A 
ATOM      4  C5  MOL d          21.023   0.417  -8.607  0.00  0.00     0.081 A 
ATOM      5  C6  MOL d          21.008   0.451  -9.997  0.00  0.00     0.085 A 
ATOM      6  C7  MOL d          21.381  -0.673 -10.725  0.00  0.00    -0.018 A 
ATOM      7  C8  MOL d          21.767  -1.829 -10.059  0.00  0.00     0.071 A 
ATOM      8  C9  MOL d          21.781  -1.860  -8.669  0.00  0.00    -0.017 A 
ATOM      9  C10 MOL d          21.410  -0.738  -7.936  0.00  0.00     0.095 A 
ATOM     10  O1  MOL d          21.437  -0.810  -6.572  0.00  0.00    -0.309 OA
ATOM     11  O4  MOL d          20.307   2.570  -8.464  0.00  0.00    -0.287 OA
ATOM     12  H1  MOL d          20.387   2.348  -5.915  0.00  0.00     0.094 H 
ATOM     13  H2  MOL d          21.371  -0.647 -11.808  0.00  0.00     0.092 H 
ATOM     14  H3  MOL d          22.084  -2.763  -8.154  0.00  0.00     0.092 H 
ENDROOT
BRANCH   1  15
ATOM     15  C1' MOL d          21.085   0.263  -4.483  0.00  0.00    -0.002 A 
ATOM     16  C2' MOL d          20.270   1.119  -3.752  0.00  0.00    -0.070 A 
ATOM     17  C3' MOL d          20.288   1.077  -2.362  0.00  0.00    -0.082 A 
ATOM     18  H6  MOL d          19.621   1.820  -4.265  0.00  0.00     0.084 H 
ATOM     19  C4' MOL d          21.120   0.179  -1.704  0.00  0.00    -0.083 A 
ATOM     20  H7  MOL d          19.652   1.744  -1.792  0.00  0.00     0.083 H 
ATOM     21  C5' MOL d          21.935  -0.678  -2.436  0.00  0.00    -0.082 A 
ATOM     22  H8  MOL d          21.134   0.146  -0.621  0.00  0.00     0.083 H 
ATOM     23  C6' MOL d          21.917  -0.635  -3.826  0.00  0.00    -0.070 A 
ATOM     24  H9  MOL d          22.583  -1.378  -1.924  0.00  0.00     0.083 H 
ATOM     25  H10 MOL d          22.553  -1.303  -4.396  0.00  0.00     0.084 H 
ENDBRANCH   1  15
BRANCH   5  26
ATOM     26  O5  MOL d          20.630   1.585 -10.645  0.00  0.00    -0.360 OA
ATOM     27  H4  MOL d          21.278   1.803 -11.305  0.00  0.00     0.217 HD
ENDBRANCH   5  26
BRANCH   7  28
ATOM     28  O7  MOL d          22.133  -2.932 -10.767  0.00  0.00    -0.361 OA
ATOM     29  H5  MOL d          22.573  -2.662 -11.566  0.00  0.00     0.217 HD
ENDBRANCH   7  28
TORSDOF 3
ENDMDL
MODEL 3
REMARK VINA RESULT:      -7.7      2.515      6.882
REMARK  3 active torsions:
REMARK  status: ('A' for Active; 'I' for Inactive)
REMARK    1  A    between atoms: C1'_19  and  C2_1 
REMARK    2  A    between atoms: C6_5  and  O5_12 
REMARK    3  A    between atoms: C8_7  and  O7_13 
ROOT
ATOM      1  C2  MOL d          21.201  -0.058  -5.714  0.00  0.00     0.090 A 
ATOM      2  C3  MOL d          20.364   0.860  -5.091  0.00  0.00    -0.000 A 
ATOM      3  C4  MOL d          20.316   0.920  -3.709  0.00  0.00     0.190 A 
ATOM      4  C5  MOL d          21.113   0.054  -2.980  0.00  0.00     0.081 A 
ATOM      5  C6  MOL d          21.086   0.093  -1.590  0.00  0.00     0.085 A 
ATOM      6  C7  MOL d          21.883  -0.775  -0.854  0.00  0.00    -0.018 A 
ATOM      7  C8  MOL d          22.709  -1.679  -1.510  0.00  0.00     0.071 A 
ATOM      8  C9  MOL d          22.734  -1.716  -2.900  0.00  0.00    -0.017 A 
ATOM      9  C10 MOL d          21.938  -0.851  -3.642  0.00  0.00     0.095 A 
ATOM     10  O1  MOL d          21.992  -0.919  -5.005  0.00  0.00    -0.309 OA
ATOM     11  O4  MOL d          19.582   1.726  -3.141  0.00  0.00    -0.287 OA
ATOM     12  H1  MOL d          19.747   1.530  -5.688  0.00  0.00     0.094 H 
ATOM     13  H2  MOL d          21.861  -0.746   0.229  0.00  0.00     0.092 H 
ATOM     14  H3  MOL d          23.378  -2.423  -3.408  0.00  0.00     0.092 H 
ENDROOT
BRANCH   1  15
ATOM     15  C1' MOL d          21.235  -0.103  -7.103  0.00  0.00    -0.002 A 
ATOM     16  C2' MOL d          20.267   0.566  -7.843  0.00  0.00    -0.070 A 
ATOM     17  C3' MOL d          20.301   0.520  -9.232  0.00  0.00    -0.082 A 
ATOM     18  H6  MOL d          19.487   1.123  -7.338  0.00  0.00     0.084 H 
ATOM     19  C4' MOL d          21.302  -0.195  -9.881  0.00  0.00    -0.083 A 
ATOM     20  H7  MOL d          19.548   1.042  -9.810  0.00  0.00     0.083 H 
ATOM     21  C5' MOL d          22.269  -0.864  -9.139  0.00  0.00    -0.082 A 
ATOM     22  H8  MOL d          21.328  -0.231 -10.964  0.00  0.00     0.083 H 
ATOM     23  C6' MOL d          22.235  -0.819  -7.750  0.00  0.00    -0.070 A 
ATOM     24  H9  MOL d          23.049  -1.421  -9.644  0.00  0.00     0.083 H 
ATOM     25  H10 MOL d          22.989  -1.341  -7.173  0.00  0.00     0.084 H 
ENDBRANCH   1  15
BRANCH   5  26
ATOM     26  O5  MOL d          20.276   0.979  -0.951  0.00  0.00    -0.360 OA
ATOM     27  H4  MOL d          20.192   1.766  -1.477  0.00  0.00     0.217 HD
ENDBRANCH   5  26
BRANCH   7  28
ATOM     28  O7  MOL d          23.492  -2.530  -0.793  0.00  0.00    -0.361 OA
ATOM     29  H5  MOL d          24.405  -2.366  -0.997  0.00  0.00     0.217 HD
ENDBRANCH   7  28
TORSDOF 3
ENDMDL
MODEL 4
REMARK VINA RESULT:      -7.5      2.525      6.459
REMARK  3 active torsions:
REMARK  status: ('A' for Active; 'I' for Inactive)
REMARK    1  A    between atoms: C1'_19  and  C2_1 
REMARK    2  A    between atoms: C6_5  and  O5_12 
REMARK    3  A    between atoms: C8_7  and  O7_13 
ROOT
ATOM      1  C2  MOL d          21.324  -0.069  -5.708  0.00  0.00     0.090 A 
ATOM      2  C3  MOL d          22.007  -1.117  -5.103  0.00  0.00    -0.000 A 
ATOM      3  C4  MOL d          22.071  -1.188  -3.722  0.00  0.00     0.190 A 
ATOM      4  C5  MOL d          21.445  -0.203  -2.977  0.00  0.00     0.081 A 
ATOM      5  C6  MOL d          21.493  -0.251  -1.588  0.00  0.00     0.085 A 
ATOM      6  C7  MOL d          20.868   0.735  -0.835  0.00  0.00    -0.018 A 
ATOM      7  C8  MOL d          20.193   1.767  -1.475  0.00  0.00     0.071 A 
ATOM      8  C9  MOL d          20.147   1.813  -2.863  0.00  0.00    -0.017 A 
ATOM      9  C10 MOL d          20.771   0.829  -3.622  0.00  0.00     0.095 A 
ATOM     10  O1  MOL d          20.702   0.910  -4.984  0.00  0.00    -0.309 OA
ATOM     11  O4  MOL d          22.671  -2.108  -3.169  0.00  0.00    -0.287 OA
ATOM     12  H1  MOL d          22.490  -1.878  -5.712  0.00  0.00     0.094 H 
ATOM     13  H2  MOL d          20.906   0.699   0.247  0.00  0.00     0.092 H 
ATOM     14  H3  MOL d          19.620   2.620  -3.358  0.00  0.00     0.092 H 
ENDROOT
BRANCH   1  15
ATOM     15  C1' MOL d          21.270  -0.014  -7.096  0.00  0.00    -0.002 A 
ATOM     16  C2' MOL d          22.208  -0.704  -7.856  0.00  0.00    -0.070 A 
ATOM     17  C3' MOL d          22.154  -0.649  -9.243  0.00  0.00    -0.082 A 
ATOM     18  H6  MOL d          22.980  -1.286  -7.365  0.00  0.00     0.084 H 
ATOM     19  C4' MOL d          21.164   0.098  -9.872  0.00  0.00    -0.083 A 
ATOM     20  H7  MOL d          22.884  -1.187  -9.836  0.00  0.00     0.083 H 
ATOM     21  C5' MOL d          20.227   0.788  -9.112  0.00  0.00    -0.082 A 
ATOM     22  H8  MOL d          21.123   0.141 -10.954  0.00  0.00     0.083 H 
ATOM     23  C6' MOL d          20.280   0.733  -7.724  0.00  0.00    -0.070 A 
ATOM     24  H9  MOL d          19.454   1.370  -9.602  0.00  0.00     0.083 H 
ATOM     25  H10 MOL d          19.550   1.272  -7.132  0.00  0.00     0.084 H 
ENDBRANCH   1  15
BRANCH   5  26
ATOM     26  O5  MOL d          22.155  -1.263  -0.966  0.00  0.00    -0.360 OA
ATOM     27  H4  MOL d          22.429  -0.977  -0.102  0.00  0.00     0.217 HD
ENDBRANCH   5  26
BRANCH   7  28
ATOM     28  O7  MOL d          19.578   2.735  -0.742  0.00  0.00    -0.361 OA
ATOM     29  H5  MOL d          18.744   2.953  -1.143  0.00  0.00     0.217 HD
ENDBRANCH   7  28
TORSDOF 3
ENDMDL
MODEL 5
REMARK VINA RESULT:      -6.0      1.039      1.718
REMARK  3 active torsions:
REMARK  status: ('A' for Active; 'I' for Inactive)
REMARK    1  A    between atoms: C1'_19  and  C2_1 
REMARK    2  A    between atoms: C6_5  and  O5_12 
REMARK    3  A    between atoms: C8_7  and  O7_13 
ROOT
ATOM      1  C2  MOL d          20.937   0.752  -5.193  0.00  0.00     0.090 A 
ATOM      2  C3  MOL d          21.385  -0.511  -5.562  0.00  0.00    -0.000 A 
ATOM      3  C4  MOL d          21.560  -0.814  -6.901  0.00  0.00     0.190 A 
ATOM      4  C5  MOL d          21.281   0.161  -7.844  0.00  0.00     0.081 A 
ATOM      5  C6  MOL d          21.449  -0.117  -9.196  0.00  0.00     0.085 A 
ATOM      6  C7  MOL d          21.170   0.858 -10.146  0.00  0.00    -0.018 A 
ATOM      7  C8  MOL d          20.725   2.110  -9.740  0.00  0.00     0.071 A 
ATOM      8  C9  MOL d          20.559   2.384  -8.388  0.00  0.00    -0.017 A 
ATOM      9  C10 MOL d          20.835   1.413  -7.433  0.00  0.00     0.095 A 
ATOM     10  O1  MOL d          20.659   1.723  -6.114  0.00  0.00    -0.309 OA
ATOM     11  O4  MOL d          21.955  -1.926  -7.246  0.00  0.00    -0.287 OA
ATOM     12  H1  MOL d          21.597  -1.260  -4.800  0.00  0.00     0.094 H 
ATOM     13  H2  MOL d          21.299   0.642 -11.200  0.00  0.00     0.092 H 
ATOM     14  H3  MOL d          20.211   3.362  -8.076  0.00  0.00     0.092 H 
ENDROOT
BRANCH   1  15
ATOM     15  C1' MOL d          20.768   1.038  -3.843  0.00  0.00    -0.002 A 
ATOM     16  C2' MOL d          21.224   0.144  -2.881  0.00  0.00    -0.070 A 
ATOM     17  C3' MOL d          21.054   0.430  -1.531  0.00  0.00    -0.082 A 
ATOM     18  H6  MOL d          21.712  -0.776  -3.184  0.00  0.00     0.084 H 
ATOM     19  C4' MOL d          20.428   1.609  -1.143  0.00  0.00    -0.083 A 
ATOM     20  H7  MOL d          21.410  -0.266  -0.781  0.00  0.00     0.083 H 
ATOM     21  C5' MOL d          19.972   2.502  -2.106  0.00  0.00    -0.082 A 
ATOM     22  H8  MOL d          20.295   1.832  -0.091  0.00  0.00     0.083 H 
ATOM     23  C6' MOL d          20.142   2.217  -3.456  0.00  0.00    -0.070 A 
ATOM     24  H9  MOL d          19.484   3.422  -1.804  0.00  0.00     0.083 H 
ATOM     25  H10 MOL d          19.786   2.913  -4.206  0.00  0.00     0.084 H 
ENDBRANCH   1  15
BRANCH   5  26
ATOM     26  O5  MOL d          21.884  -1.344  -9.589  0.00  0.00    -0.360 OA
ATOM     27  H4  MOL d          21.189  -1.789 -10.059  0.00  0.00     0.217 HD
ENDBRANCH   5  26
BRANCH   7  28
ATOM     28  O7  MOL d          20.452   3.068 -10.668  0.00  0.00    -0.361 OA
ATOM     29  H5  MOL d          19.626   3.487 -10.454  0.00  0.00     0.217 HD
ENDBRANCH   7  28
TORSDOF 3
ENDMDL
