MODEL 1
REMARK VINA RESULT:      -7.7      0.000      0.000
REMARK  5 active torsions:
REMARK  status: ('A' for Active; 'I' for Inactive)
REMARK    1  A    between atoms: C22_2  and  C31_3 
REMARK       I    between atoms: C22_2  and  N21_12 
REMARK    2  A    between atoms: C34_6  and  C41_9 
REMARK    3  A    between atoms: C41_9  and  C42_10 
REMARK    4  A    between atoms: C41_9  and  N43_11 
REMARK    5  A    between atoms: N21_12  and  C14_13 
ROOT
ATOM      1  C31 Y27 d           8.483   9.027   4.046  0.00  0.00     0.024 C 
ATOM      2  C36 Y27 d           7.861  10.035   5.018  0.00  0.00    -0.053 C 
ATOM      3  C35 Y27 d           6.383   9.703   5.244  0.00  0.00    -0.059 C 
ATOM      4  C34 Y27 d           5.664   9.939   3.910  0.00  0.00    -0.027 C 
ATOM      5  C33 Y27 d           6.198   8.939   2.851  0.00  0.00    -0.059 C 
ATOM      6  C32 Y27 d           7.756   9.022   2.686  0.00  0.00    -0.053 C 
ATOM      7  H1  Y27 d           8.359   8.025   4.480  0.00  0.00     0.054 H 
ATOM      8  H2  Y27 d           7.947  11.047   4.596  0.00  0.00     0.034 H 
ATOM      9  H3  Y27 d           8.395   9.992   5.978  0.00  0.00     0.034 H 
ATOM     10  H4  Y27 d           5.963  10.357   6.021  0.00  0.00     0.033 H 
ATOM     11  H5  Y27 d           6.275   8.652   5.551  0.00  0.00     0.033 H 
ATOM     12  H6  Y27 d           5.924  10.947   3.555  0.00  0.00     0.043 H 
ATOM     13  H7  Y27 d           5.727   9.164   1.882  0.00  0.00     0.033 H 
ATOM     14  H8  Y27 d           5.929   7.918   3.161  0.00  0.00     0.033 H 
ATOM     15  H9  Y27 d           8.099   8.153   2.104  0.00  0.00     0.034 H 
ATOM     16  H10 Y27 d           8.008   9.947   2.146  0.00  0.00     0.034 H 
ENDROOT
BRANCH   1  17
ATOM     17  C22 Y27 d           9.963   9.289   3.930  0.00  0.00     0.226 C 
ATOM     18  O23 Y27 d          10.498  10.339   4.296  0.00  0.00    -0.273 OA
ATOM     19  N21 Y27 d          10.693   8.197   3.383  0.00  0.00    -0.327 N 
ATOM     20  H18 Y27 d          10.163   7.506   2.890  0.00  0.00     0.169 HD
BRANCH  19  21
ATOM     21  C14 Y27 d          12.117   7.978   3.462  0.00  0.00     0.037 A 
ATOM     22  C15 Y27 d          12.849   8.307   2.309  0.00  0.00    -0.040 A 
ATOM     23  C16 Y27 d          14.226   8.083   2.370  0.00  0.00     0.004 A 
ATOM     24  H19 Y27 d          12.372   8.712   1.424  0.00  0.00     0.089 H 
ATOM     25  N11 Y27 d          14.827   7.593   3.475  0.00  0.00    -0.273 NA
ATOM     26  H20 Y27 d          14.833   8.310   1.501  0.00  0.00     0.114 H 
ATOM     27  C12 Y27 d          14.140   7.273   4.583  0.00  0.00     0.004 A 
ATOM     28  C13 Y27 d          12.765   7.450   4.617  0.00  0.00    -0.040 A 
ATOM     29  H21 Y27 d          14.659   6.877   5.449  0.00  0.00     0.114 H 
ATOM     30  H22 Y27 d          12.195   7.193   5.502  0.00  0.00     0.089 H 
ENDBRANCH  19  21
ENDBRANCH   1  17
BRANCH   4  31
ATOM     31  C41 Y27 d           4.123   9.925   4.146  0.00  0.00     0.100 C 
ATOM     32  H11 Y27 d           3.751  10.955   4.044  0.00  0.00     0.083 H 
BRANCH  31  33
ATOM     33  C42 Y27 d           3.422   9.041   3.098  0.00  0.00    -0.049 C 
ATOM     34  H12 Y27 d           2.514   9.549   2.738  0.00  0.00     0.030 H 
ATOM     35  H13 Y27 d           3.147   8.079   3.555  0.00  0.00     0.030 H 
ATOM     36  H14 Y27 d           4.103   8.866   2.252  0.00  0.00     0.030 H 
ENDBRANCH  31  33
BRANCH  31  37
ATOM     37  N43 Y27 d           3.778   9.427   5.525  0.00  0.00    -0.075 N 
ATOM     38  H15 Y27 d           4.345   8.622   5.743  0.00  0.00     0.274 HD
ATOM     39  H16 Y27 d           2.804   9.170   5.555  0.00  0.00     0.274 HD
ATOM     40  H17 Y27 d           3.954  10.155   6.200  0.00  0.00     0.274 HD
ENDBRANCH  31  37
ENDBRANCH   4  31
TORSDOF 5
ENDMDL
MODEL 2
REMARK VINA RESULT:      -7.7      1.352      1.695
REMARK  5 active torsions:
REMARK  status: ('A' for Active; 'I' for Inactive)
REMARK    1  A    between atoms: C22_2  and  C31_3 
REMARK       I    between atoms: C22_2  and  N21_12 
REMARK    2  A    between atoms: C34_6  and  C41_9 
REMARK    3  A    between atoms: C41_9  and  C42_10 
REMARK    4  A    between atoms: C41_9  and  N43_11 
REMARK    5  A    between atoms: N21_12  and  C14_13 
ROOT
ATOM      1  C31 Y27 d           8.483   9.317   3.806  0.00  0.00     0.024 C 
ATOM      2  C36 Y27 d           7.807  10.213   4.848  0.00  0.00    -0.053 C 
ATOM      3  C35 Y27 d           6.368   9.747   5.088  0.00  0.00    -0.059 C 
ATOM      4  C34 Y27 d           5.596   9.996   3.787  0.00  0.00    -0.027 C 
ATOM      5  C33 Y27 d           6.181   9.104   2.660  0.00  0.00    -0.059 C 
ATOM      6  C32 Y27 d           7.722   9.326   2.465  0.00  0.00    -0.053 C 
ATOM      7  H1  Y27 d           8.453   8.285   4.184  0.00  0.00     0.054 H 
ATOM      8  H2  Y27 d           7.798  11.251   4.483  0.00  0.00     0.034 H 
ATOM      9  H3  Y27 d           8.369  10.162   5.792  0.00  0.00     0.034 H 
ATOM     10  H4  Y27 d           5.917  10.320   5.911  0.00  0.00     0.033 H 
ATOM     11  H5  Y27 d           6.355   8.675   5.336  0.00  0.00     0.033 H 
ATOM     12  H6  Y27 d           5.762  11.040   3.485  0.00  0.00     0.043 H 
ATOM     13  H7  Y27 d           5.667   9.342   1.716  0.00  0.00     0.033 H 
ATOM     14  H8  Y27 d           6.005   8.049   2.917  0.00  0.00     0.033 H 
ATOM     15  H9  Y27 d           8.118   8.523   1.826  0.00  0.00     0.034 H 
ATOM     16  H10 Y27 d           7.882  10.297   1.974  0.00  0.00     0.034 H 
ENDROOT
BRANCH   1  17
ATOM     17  C22 Y27 d           9.933   9.707   3.671  0.00  0.00     0.226 C 
ATOM     18  O23 Y27 d          10.632  10.058   4.625  0.00  0.00    -0.273 OA
ATOM     19  N21 Y27 d          10.429   9.605   2.342  0.00  0.00    -0.327 N 
ATOM     20  H18 Y27 d           9.747   9.562   1.612  0.00  0.00     0.169 HD
BRANCH  19  21
ATOM     21  C14 Y27 d          11.812   9.556   1.933  0.00  0.00     0.037 A 
ATOM     22  C15 Y27 d          12.280  10.681   1.234  0.00  0.00    -0.040 A 
ATOM     23  C16 Y27 d          13.613  10.636   0.818  0.00  0.00     0.004 A 
ATOM     24  H19 Y27 d          11.643  11.535   1.028  0.00  0.00     0.089 H 
ATOM     25  N11 Y27 d          14.414   9.583   1.084  0.00  0.00    -0.273 NA
ATOM     26  H20 Y27 d          14.017  11.476   0.264  0.00  0.00     0.114 H 
ATOM     27  C12 Y27 d          13.980   8.501   1.750  0.00  0.00     0.004 A 
ATOM     28  C13 Y27 d          12.667   8.447   2.195  0.00  0.00    -0.040 A 
ATOM     29  H21 Y27 d          14.654   7.674   1.939  0.00  0.00     0.114 H 
ATOM     30  H22 Y27 d          12.300   7.579   2.730  0.00  0.00     0.089 H 
ENDBRANCH  19  21
ENDBRANCH   1  17
BRANCH   4  31
ATOM     31  C41 Y27 d           4.068   9.841   4.056  0.00  0.00     0.100 C 
ATOM     32  H11 Y27 d           3.594  10.824   3.926  0.00  0.00     0.083 H 
BRANCH  31  33
ATOM     33  C42 Y27 d           3.439   8.853   3.056  0.00  0.00    -0.049 C 
ATOM     34  H12 Y27 d           4.236   8.344   2.493  0.00  0.00     0.030 H 
ATOM     35  H13 Y27 d           2.791   9.402   2.357  0.00  0.00     0.030 H 
ATOM     36  H14 Y27 d           2.842   8.108   3.603  0.00  0.00     0.030 H 
ENDBRANCH  31  33
BRANCH  31  37
ATOM     37  N43 Y27 d           3.798   9.362   5.459  0.00  0.00    -0.075 N 
ATOM     38  H15 Y27 d           2.963   8.797   5.467  0.00  0.00     0.274 HD
ATOM     39  H16 Y27 d           3.672  10.157   6.066  0.00  0.00     0.274 HD
ATOM     40  H17 Y27 d           4.579   8.813   5.783  0.00  0.00     0.274 HD
ENDBRANCH  31  37
ENDBRANCH   4  31
TORSDOF 5
ENDMDL
MODEL 3
REMARK VINA RESULT:      -7.7      1.109      1.826
REMARK  5 active torsions:
REMARK  status: ('A' for Active; 'I' for Inactive)
REMARK    1  A    between atoms: C22_2  and  C31_3 
REMARK       I    between atoms: C22_2  and  N21_12 
REMARK    2  A    between atoms: C34_6  and  C41_9 
REMARK    3  A    between atoms: C41_9  and  C42_10 
REMARK    4  A    between atoms: C41_9  and  N43_11 
REMARK    5  A    between atoms: N21_12  and  C14_13 
ROOT
ATOM      1  C31 Y27 d           8.653   9.964   3.398  0.00  0.00     0.024 C 
ATOM      2  C36 Y27 d           7.683   9.278   2.431  0.00  0.00    -0.053 C 
ATOM      3  C35 Y27 d           6.274   9.853   2.607  0.00  0.00    -0.059 C 
ATOM      4  C34 Y27 d           5.798   9.444   4.006  0.00  0.00    -0.027 C 
ATOM      5  C33 Y27 d           6.699  10.116   5.076  0.00  0.00    -0.059 C 
ATOM      6  C32 Y27 d           8.218   9.785   4.867  0.00  0.00    -0.053 C 
ATOM      7  H1  Y27 d           8.631  11.042   3.186  0.00  0.00     0.054 H 
ATOM      8  H2  Y27 d           7.665   8.199   2.639  0.00  0.00     0.034 H 
ATOM      9  H3  Y27 d           8.019   9.447   1.398  0.00  0.00     0.034 H 
ATOM     10  H4  Y27 d           5.600   9.441   1.842  0.00  0.00     0.033 H 
ATOM     11  H5  Y27 d           6.300  10.949   2.521  0.00  0.00     0.033 H 
ATOM     12  H6  Y27 d           5.935   8.358   4.111  0.00  0.00     0.043 H 
ATOM     13  H7  Y27 d           6.393   9.761   6.071  0.00  0.00     0.033 H 
ATOM     14  H8  Y27 d           6.564  11.207   5.018  0.00  0.00     0.033 H 
ATOM     15  H9  Y27 d           8.818  10.456   5.499  0.00  0.00     0.034 H 
ATOM     16  H10 Y27 d           8.398   8.741   5.165  0.00  0.00     0.034 H 
ENDROOT
BRANCH   1  17
ATOM     17  C22 Y27 d          10.056   9.480   3.129  0.00  0.00     0.226 C 
ATOM     18  O23 Y27 d          10.677   9.741   2.095  0.00  0.00    -0.273 OA
ATOM     19  N21 Y27 d          10.610   8.718   4.196  0.00  0.00    -0.327 N 
ATOM     20  H18 Y27 d           9.964   8.350   4.865  0.00  0.00     0.169 HD
BRANCH  19  21
ATOM     21  C14 Y27 d          12.004   8.418   4.415  0.00  0.00     0.037 A 
ATOM     22  C15 Y27 d          12.676   9.270   5.308  0.00  0.00    -0.040 A 
ATOM     23  C16 Y27 d          14.032   8.999   5.513  0.00  0.00     0.004 A 
ATOM     24  H19 Y27 d          12.173  10.090   5.807  0.00  0.00     0.089 H 
ATOM     25  N11 Y27 d          14.660   7.971   4.904  0.00  0.00    -0.273 NA
ATOM     26  H20 Y27 d          14.597   9.636   6.184  0.00  0.00     0.114 H 
ATOM     27  C12 Y27 d          14.030   7.150   4.049  0.00  0.00     0.004 A 
ATOM     28  C13 Y27 d          12.685   7.345   3.771  0.00  0.00    -0.040 A 
ATOM     29  H21 Y27 d          14.572   6.339   3.576  0.00  0.00     0.114 H 
ATOM     30  H22 Y27 d          12.163   6.694   3.079  0.00  0.00     0.089 H 
ENDBRANCH  19  21
ENDBRANCH   1  17
BRANCH   4  31
ATOM     31  C41 Y27 d           4.268   9.721   4.130  0.00  0.00     0.100 C 
ATOM     32  H11 Y27 d           4.099  10.794   3.959  0.00  0.00     0.083 H 
BRANCH  31  33
ATOM     33  C42 Y27 d           3.485   8.923   3.072  0.00  0.00    -0.049 C 
ATOM     34  H12 Y27 d           2.903   9.616   2.446  0.00  0.00     0.030 H 
ATOM     35  H13 Y27 d           2.802   8.221   3.574  0.00  0.00     0.030 H 
ATOM     36  H14 Y27 d           4.189   8.362   2.441  0.00  0.00     0.030 H 
ENDBRANCH  31  33
BRANCH  31  37
ATOM     37  N43 Y27 d           3.750   9.368   5.500  0.00  0.00    -0.075 N 
ATOM     38  H15 Y27 d           3.531   8.384   5.533  0.00  0.00     0.274 HD
ATOM     39  H16 Y27 d           2.919   9.905   5.694  0.00  0.00     0.274 HD
ATOM     40  H17 Y27 d           4.454   9.579   6.191  0.00  0.00     0.274 HD
ENDBRANCH  31  37
ENDBRANCH   4  31
TORSDOF 5
ENDMDL
MODEL 4
REMARK VINA RESULT:      -7.4      2.300      7.489
REMARK  5 active torsions:
REMARK  status: ('A' for Active; 'I' for Inactive)
REMARK    1  A    between atoms: C22_2  and  C31_3 
REMARK       I    between atoms: C22_2  and  N21_12 
REMARK    2  A    between atoms: C34_6  and  C41_9 
REMARK    3  A    between atoms: C41_9  and  C42_10 
REMARK    4  A    between atoms: C41_9  and  N43_11 
REMARK    5  A    between atoms: N21_12  and  C14_13 
ROOT
ATOM      1  C31 Y27 d           9.834   8.958   3.862  0.00  0.00     0.024 C 
ATOM      2  C36 Y27 d          10.042   8.499   2.416  0.00  0.00    -0.053 C 
ATOM      3  C35 Y27 d          11.497   8.731   1.995  0.00  0.00    -0.059 C 
ATOM      4  C34 Y27 d          11.716  10.248   1.968  0.00  0.00    -0.027 C 
ATOM      5  C33 Y27 d          11.561  10.819   3.402  0.00  0.00    -0.059 C 
ATOM      6  C32 Y27 d          10.177  10.450   4.043  0.00  0.00    -0.053 C 
ATOM      7  H1  Y27 d          10.530   8.390   4.496  0.00  0.00     0.054 H 
ATOM      8  H2  Y27 d           9.376   9.071   1.753  0.00  0.00     0.034 H 
ATOM      9  H3  Y27 d           9.806   7.428   2.336  0.00  0.00     0.034 H 
ATOM     10  H4  Y27 d          11.674   8.305   0.997  0.00  0.00     0.033 H 
ATOM     11  H5  Y27 d          12.179   8.263   2.721  0.00  0.00     0.033 H 
ATOM     12  H6  Y27 d          10.919  10.698   1.358  0.00  0.00     0.043 H 
ATOM     13  H7  Y27 d          11.651  11.915   3.359  0.00  0.00     0.033 H 
ATOM     14  H8  Y27 d          12.364  10.410   4.034  0.00  0.00     0.033 H 
ATOM     15  H9  Y27 d          10.212  10.679   5.119  0.00  0.00     0.034 H 
ATOM     16  H10 Y27 d           9.392  11.055   3.565  0.00  0.00     0.034 H 
ENDROOT
BRANCH   1  17
ATOM     17  C22 Y27 d           8.435   8.610   4.304  0.00  0.00     0.226 C 
ATOM     18  O23 Y27 d           8.188   7.953   5.319  0.00  0.00    -0.273 OA
ATOM     19  N21 Y27 d           7.422   9.136   3.455  0.00  0.00    -0.327 N 
ATOM     20  H18 Y27 d           7.711   9.428   2.542  0.00  0.00     0.169 HD
BRANCH  19  21
ATOM     21  C14 Y27 d           6.023   9.294   3.768  0.00  0.00     0.037 A 
ATOM     22  C15 Y27 d           5.741   9.928   4.989  0.00  0.00    -0.040 A 
ATOM     23  C16 Y27 d           4.388  10.069   5.310  0.00  0.00     0.004 A 
ATOM     24  H19 Y27 d           6.526  10.285   5.645  0.00  0.00     0.089 H 
ATOM     25  N11 Y27 d           3.406   9.638   4.491  0.00  0.00    -0.273 NA
ATOM     26  H20 Y27 d           4.119  10.541   6.248  0.00  0.00     0.114 H 
ATOM     27  C12 Y27 d           3.661   9.030   3.321  0.00  0.00     0.004 A 
ATOM     28  C13 Y27 d           4.974   8.834   2.920  0.00  0.00    -0.040 A 
ATOM     29  H21 Y27 d           2.844   8.695   2.694  0.00  0.00     0.114 H 
ATOM     30  H22 Y27 d           5.198   8.341   1.980  0.00  0.00     0.089 H 
ENDBRANCH  19  21
ENDBRANCH   1  17
BRANCH   4  31
ATOM     31  C41 Y27 d          13.065  10.560   1.251  0.00  0.00     0.100 C 
ATOM     32  H11 Y27 d          13.489  11.471   1.698  0.00  0.00     0.083 H 
BRANCH  31  33
ATOM     33  C42 Y27 d          14.063   9.404   1.447  0.00  0.00    -0.049 C 
ATOM     34  H12 Y27 d          14.876   9.730   2.114  0.00  0.00     0.030 H 
ATOM     35  H13 Y27 d          14.483   9.113   0.473  0.00  0.00     0.030 H 
ATOM     36  H14 Y27 d          13.544   8.544   1.895  0.00  0.00     0.030 H 
ENDBRANCH  31  33
BRANCH  31  37
ATOM     37  N43 Y27 d          12.868  10.799  -0.223  0.00  0.00    -0.075 N 
ATOM     38  H15 Y27 d          11.939  11.157  -0.385  0.00  0.00     0.274 HD
ATOM     39  H16 Y27 d          12.985   9.932  -0.723  0.00  0.00     0.274 HD
ATOM     40  H17 Y27 d          13.547  11.469  -0.550  0.00  0.00     0.274 HD
ENDBRANCH  31  37
ENDBRANCH   4  31
TORSDOF 5
ENDMDL
MODEL 5
REMARK VINA RESULT:      -7.4      1.779      7.474
REMARK  5 active torsions:
REMARK  status: ('A' for Active; 'I' for Inactive)
REMARK    1  A    between atoms: C22_2  and  C31_3 
REMARK       I    between atoms: C22_2  and  N21_12 
REMARK    2  A    between atoms: C34_6  and  C41_9 
REMARK    3  A    between atoms: C41_9  and  C42_10 
REMARK    4  A    between atoms: C41_9  and  N43_11 
REMARK    5  A    between atoms: N21_12  and  C14_13 
ROOT
ATOM      1  C31 Y27 d           9.585   9.552   2.459  0.00  0.00     0.024 C 
ATOM      2  C36 Y27 d          10.069  10.145   3.786  0.00  0.00    -0.053 C 
ATOM      3  C35 Y27 d          11.598  10.082   3.861  0.00  0.00    -0.059 C 
ATOM      4  C34 Y27 d          11.980   8.598   3.925  0.00  0.00    -0.027 C 
ATOM      5  C33 Y27 d          11.561   7.899   2.605  0.00  0.00    -0.059 C 
ATOM      6  C32 Y27 d          10.035   8.087   2.290  0.00  0.00    -0.053 C 
ATOM      7  H1  Y27 d          10.051  10.126   1.646  0.00  0.00     0.054 H 
ATOM      8  H2  Y27 d           9.640   9.572   4.620  0.00  0.00     0.034 H 
ATOM      9  H3  Y27 d           9.745  11.194   3.856  0.00  0.00     0.034 H 
ATOM     10  H4  Y27 d          11.954  10.603   4.762  0.00  0.00     0.033 H 
ATOM     11  H5  Y27 d          12.040  10.548   2.969  0.00  0.00     0.033 H 
ATOM     12  H6  Y27 d          11.398   8.130   4.732  0.00  0.00     0.043 H 
ATOM     13  H7  Y27 d          11.775   6.824   2.690  0.00  0.00     0.033 H 
ATOM     14  H8  Y27 d          12.148   8.326   1.777  0.00  0.00     0.033 H 
ATOM     15  H9  Y27 d           9.846   7.775   1.253  0.00  0.00     0.034 H 
ATOM     16  H10 Y27 d           9.451   7.455   2.976  0.00  0.00     0.034 H 
ENDROOT
BRANCH   1  17
ATOM     17  C22 Y27 d           8.093   9.734   2.343  0.00  0.00     0.226 C 
ATOM     18  O23 Y27 d           7.498   9.783   1.263  0.00  0.00    -0.273 OA
ATOM     19  N21 Y27 d           7.429   9.815   3.599  0.00  0.00    -0.327 N 
ATOM     20  H18 Y27 d           8.000  10.019   4.394  0.00  0.00     0.169 HD
BRANCH  19  21
ATOM     21  C14 Y27 d           6.019   9.635   3.848  0.00  0.00     0.037 A 
ATOM     22  C15 Y27 d           5.555  10.110   5.086  0.00  0.00    -0.040 A 
ATOM     23  C16 Y27 d           4.195   9.924   5.345  0.00  0.00     0.004 A 
ATOM     24  H19 Y27 d           6.214  10.592   5.799  0.00  0.00     0.089 H 
ATOM     25  N11 Y27 d           3.367   9.338   4.455  0.00  0.00    -0.273 NA
ATOM     26  H20 Y27 d           3.791  10.262   6.292  0.00  0.00     0.114 H 
ATOM     27  C12 Y27 d           3.797   8.879   3.269  0.00  0.00     0.004 A 
ATOM     28  C13 Y27 d           5.135   9.007   2.924  0.00  0.00    -0.040 A 
ATOM     29  H21 Y27 d           3.101   8.409   2.583  0.00  0.00     0.114 H 
ATOM     30  H22 Y27 d           5.499   8.638   1.972  0.00  0.00     0.089 H 
ENDBRANCH  19  21
ENDBRANCH   1  17
BRANCH   4  31
ATOM     31  C41 Y27 d          13.483   8.470   4.318  0.00  0.00     0.100 C 
ATOM     32  H11 Y27 d          13.724   9.278   5.024  0.00  0.00     0.083 H 
BRANCH  31  33
ATOM     33  C42 Y27 d          13.750   7.118   5.007  0.00  0.00    -0.049 C 
ATOM     34  H12 Y27 d          13.135   7.042   5.917  0.00  0.00     0.030 H 
ATOM     35  H13 Y27 d          14.814   7.048   5.277  0.00  0.00     0.030 H 
ATOM     36  H14 Y27 d          13.490   6.299   4.319  0.00  0.00     0.030 H 
ENDBRANCH  31  33
BRANCH  31  37
ATOM     37  N43 Y27 d          14.384   8.599   3.118  0.00  0.00    -0.075 N 
ATOM     38  H15 Y27 d          15.036   9.355   3.266  0.00  0.00     0.274 HD
ATOM     39  H16 Y27 d          13.827   8.792   2.300  0.00  0.00     0.274 HD
ATOM     40  H17 Y27 d          14.891   7.739   2.983  0.00  0.00     0.274 HD
ENDBRANCH  31  37
ENDBRANCH   4  31
TORSDOF 5
ENDMDL
MODEL 6
REMARK VINA RESULT:      -7.2      1.788      7.755
REMARK  5 active torsions:
REMARK  status: ('A' for Active; 'I' for Inactive)
REMARK    1  A    between atoms: C22_2  and  C31_3 
REMARK       I    between atoms: C22_2  and  N21_12 
REMARK    2  A    between atoms: C34_6  and  C41_9 
REMARK    3  A    between atoms: C41_9  and  C42_10 
REMARK    4  A    between atoms: C41_9  and  N43_11 
REMARK    5  A    between atoms: N21_12  and  C14_13 
ROOT
ATOM      1  C31 Y27 d           9.665   8.834   2.978  0.00  0.00     0.024 C 
ATOM      2  C36 Y27 d          10.169   7.811   1.955  0.00  0.00    -0.053 C 
ATOM      3  C35 Y27 d          11.616   7.421   2.273  0.00  0.00    -0.059 C 
ATOM      4  C34 Y27 d          12.475   8.671   2.045  0.00  0.00    -0.027 C 
ATOM      5  C33 Y27 d          12.067   9.770   3.061  0.00  0.00    -0.059 C 
ATOM      6  C32 Y27 d          10.536  10.105   2.992  0.00  0.00    -0.053 C 
ATOM      7  H1  Y27 d           9.747   8.377   3.975  0.00  0.00     0.054 H 
ATOM      8  H2  Y27 d          10.124   8.251   0.948  0.00  0.00     0.034 H 
ATOM      9  H3  Y27 d           9.534   6.915   1.993  0.00  0.00     0.034 H 
ATOM     10  H4  Y27 d          11.944   6.610   1.607  0.00  0.00     0.033 H 
ATOM     11  H5  Y27 d          11.697   7.092   3.320  0.00  0.00     0.033 H 
ATOM     12  H6  Y27 d          12.249   9.063   1.043  0.00  0.00     0.043 H 
ATOM     13  H7  Y27 d          12.640  10.684   2.842  0.00  0.00     0.033 H 
ATOM     14  H8  Y27 d          12.308   9.421   4.076  0.00  0.00     0.033 H 
ATOM     15  H9  Y27 d          10.265  10.711   3.870  0.00  0.00     0.034 H 
ATOM     16  H10 Y27 d          10.339  10.680   2.075  0.00  0.00     0.034 H 
ENDROOT
BRANCH   1  17
ATOM     17  C22 Y27 d           8.204   9.114   2.730  0.00  0.00     0.226 C 
ATOM     18  O23 Y27 d           7.670   9.001   1.623  0.00  0.00    -0.273 OA
ATOM     19  N21 Y27 d           7.490   9.495   3.900  0.00  0.00    -0.327 N 
ATOM     20  H18 Y27 d           8.039   9.802   4.679  0.00  0.00     0.169 HD
BRANCH  19  21
ATOM     21  C14 Y27 d           6.060   9.487   4.086  0.00  0.00     0.037 A 
ATOM     22  C15 Y27 d           5.597  10.069   5.278  0.00  0.00    -0.040 A 
ATOM     23  C16 Y27 d           4.214  10.050   5.474  0.00  0.00     0.004 A 
ATOM     24  H19 Y27 d           6.274  10.506   6.003  0.00  0.00     0.089 H 
ATOM     25  N11 Y27 d           3.366   9.519   4.569  0.00  0.00    -0.273 NA
ATOM     26  H20 Y27 d           3.809  10.475   6.385  0.00  0.00     0.114 H 
ATOM     27  C12 Y27 d           3.794   8.960   3.426  0.00  0.00     0.004 A 
ATOM     28  C13 Y27 d           5.152   8.920   3.145  0.00  0.00    -0.040 A 
ATOM     29  H21 Y27 d           3.081   8.540   2.726  0.00  0.00     0.114 H 
ATOM     30  H22 Y27 d           5.515   8.468   2.229  0.00  0.00     0.089 H 
ENDBRANCH  19  21
ENDBRANCH   1  17
BRANCH   4  31
ATOM     31  C41 Y27 d          13.981   8.267   2.044  0.00  0.00     0.100 C 
ATOM     32  H11 Y27 d          14.574   9.154   1.779  0.00  0.00     0.083 H 
BRANCH  31  33
ATOM     33  C42 Y27 d          14.413   7.782   3.440  0.00  0.00    -0.049 C 
ATOM     34  H12 Y27 d          13.531   7.430   3.996  0.00  0.00     0.030 H 
ATOM     35  H13 Y27 d          14.883   8.613   3.987  0.00  0.00     0.030 H 
ATOM     36  H14 Y27 d          15.134   6.958   3.335  0.00  0.00     0.030 H 
ENDBRANCH  31  33
BRANCH  31  37
ATOM     37  N43 Y27 d          14.265   7.185   1.035  0.00  0.00    -0.075 N 
ATOM     38  H15 Y27 d          13.402   6.728   0.780  0.00  0.00     0.274 HD
ATOM     39  H16 Y27 d          14.897   6.510   1.435  0.00  0.00     0.274 HD
ATOM     40  H17 Y27 d          14.685   7.592   0.214  0.00  0.00     0.274 HD
ENDBRANCH  31  37
ENDBRANCH   4  31
TORSDOF 5
ENDMDL
MODEL 7
REMARK VINA RESULT:      -6.9      1.635      7.575
REMARK  5 active torsions:
REMARK  status: ('A' for Active; 'I' for Inactive)
REMARK    1  A    between atoms: C22_2  and  C31_3 
REMARK       I    between atoms: C22_2  and  N21_12 
REMARK    2  A    between atoms: C34_6  and  C41_9 
REMARK    3  A    between atoms: C41_9  and  C42_10 
REMARK    4  A    between atoms: C41_9  and  N43_11 
REMARK    5  A    between atoms: N21_12  and  C14_13 
ROOT
ATOM      1  C31 Y27 d           9.837   9.172   4.002  0.00  0.00     0.024 C 
ATOM      2  C36 Y27 d           9.919   9.270   2.476  0.00  0.00    -0.053 C 
ATOM      3  C35 Y27 d          11.192   8.583   1.974  0.00  0.00    -0.059 C 
ATOM      4  C34 Y27 d          12.377   9.408   2.490  0.00  0.00    -0.027 C 
ATOM      5  C33 Y27 d          12.411   9.350   4.041  0.00  0.00    -0.059 C 
ATOM      6  C32 Y27 d          11.059   9.821   4.683  0.00  0.00    -0.053 C 
ATOM      7  H1  Y27 d           9.850   8.106   4.270  0.00  0.00     0.054 H 
ATOM      8  H2  Y27 d           9.935  10.329   2.180  0.00  0.00     0.034 H 
ATOM      9  H3  Y27 d           9.041   8.779   2.032  0.00  0.00     0.034 H 
ATOM     10  H4  Y27 d          11.200   8.558   0.874  0.00  0.00     0.033 H 
ATOM     11  H5  Y27 d          11.248   7.557   2.365  0.00  0.00     0.033 H 
ATOM     12  H6  Y27 d          12.208  10.459   2.215  0.00  0.00     0.043 H 
ATOM     13  H7  Y27 d          13.220  10.001   4.402  0.00  0.00     0.033 H 
ATOM     14  H8  Y27 d          12.608   8.313   4.351  0.00  0.00     0.033 H 
ATOM     15  H9  Y27 d          11.058   9.548   5.749  0.00  0.00     0.034 H 
ATOM     16  H10 Y27 d          10.981  10.914   4.584  0.00  0.00     0.034 H 
ENDROOT
BRANCH   1  17
ATOM     17  C22 Y27 d           8.521   9.739   4.473  0.00  0.00     0.226 C 
ATOM     18  O23 Y27 d           8.407  10.860   4.977  0.00  0.00    -0.273 OA
ATOM     19  N21 Y27 d           7.416   8.871   4.253  0.00  0.00    -0.327 N 
ATOM     20  H18 Y27 d           7.630   7.909   4.081  0.00  0.00     0.169 HD
BRANCH  19  21
ATOM     21  C14 Y27 d           6.018   9.229   4.253  0.00  0.00     0.037 A 
ATOM     22  C15 Y27 d           5.348   9.063   3.030  0.00  0.00    -0.040 A 
ATOM     23  C16 Y27 d           3.998   9.424   3.014  0.00  0.00     0.004 A 
ATOM     24  H19 Y27 d           5.849   8.678   2.149  0.00  0.00     0.089 H 
ATOM     25  N11 Y27 d           3.366   9.891   4.112  0.00  0.00    -0.273 NA
ATOM     26  H20 Y27 d           3.441   9.326   2.090  0.00  0.00     0.114 H 
ATOM     27  C12 Y27 d           3.994  10.055   5.287  0.00  0.00     0.004 A 
ATOM     28  C13 Y27 d           5.339   9.734   5.399  0.00  0.00    -0.040 A 
ATOM     29  H21 Y27 d           3.452  10.437   6.144  0.00  0.00     0.114 H 
ATOM     30  H22 Y27 d           5.862   9.866   6.340  0.00  0.00     0.089 H 
ENDBRANCH  19  21
ENDBRANCH   1  17
BRANCH   4  31
ATOM     31  C41 Y27 d          13.678   8.953   1.762  0.00  0.00     0.100 C 
ATOM     32  H11 Y27 d          13.443   8.061   1.164  0.00  0.00     0.083 H 
BRANCH  31  33
ATOM     33  C42 Y27 d          14.187  10.059   0.819  0.00  0.00    -0.049 C 
ATOM     34  H12 Y27 d          14.357  10.982   1.394  0.00  0.00     0.030 H 
ATOM     35  H13 Y27 d          13.437  10.247   0.037  0.00  0.00     0.030 H 
ATOM     36  H14 Y27 d          15.131   9.738   0.354  0.00  0.00     0.030 H 
ENDBRANCH  31  33
BRANCH  31  37
ATOM     37  N43 Y27 d          14.767   8.599   2.741  0.00  0.00    -0.075 N 
ATOM     38  H15 Y27 d          15.169   7.708   2.489  0.00  0.00     0.274 HD
ATOM     39  H16 Y27 d          14.379   8.541   3.669  0.00  0.00     0.274 HD
ATOM     40  H17 Y27 d          15.483   9.308   2.720  0.00  0.00     0.274 HD
ENDBRANCH  31  37
ENDBRANCH   4  31
TORSDOF 5
ENDMDL
MODEL 8
REMARK VINA RESULT:      -6.7      1.628      2.310
REMARK  5 active torsions:
REMARK  status: ('A' for Active; 'I' for Inactive)
REMARK    1  A    between atoms: C22_2  and  C31_3 
REMARK       I    between atoms: C22_2  and  N21_12 
REMARK    2  A    between atoms: C34_6  and  C41_9 
REMARK    3  A    between atoms: C41_9  and  C42_10 
REMARK    4  A    between atoms: C41_9  and  N43_11 
REMARK    5  A    between atoms: N21_12  and  C14_13 
ROOT
ATOM      1  C31 Y27 d          10.080   9.346   3.024  0.00  0.00     0.024 C 
ATOM      2  C36 Y27 d           9.153   9.395   1.806  0.00  0.00    -0.053 C 
ATOM      3  C35 Y27 d           7.785   9.953   2.211  0.00  0.00    -0.059 C 
ATOM      4  C34 Y27 d           7.148   8.927   3.156  0.00  0.00    -0.027 C 
ATOM      5  C33 Y27 d           7.996   8.821   4.451  0.00  0.00    -0.059 C 
ATOM      6  C32 Y27 d           9.496   8.472   4.152  0.00  0.00    -0.053 C 
ATOM      7  H1  Y27 d          10.165  10.368   3.421  0.00  0.00     0.054 H 
ATOM      8  H2  Y27 d           9.027   8.380   1.403  0.00  0.00     0.034 H 
ATOM      9  H3  Y27 d           9.597  10.043   1.036  0.00  0.00     0.034 H 
ATOM     10  H4  Y27 d           7.154  10.090   1.321  0.00  0.00     0.033 H 
ATOM     11  H5  Y27 d           7.907  10.917   2.726  0.00  0.00     0.033 H 
ATOM     12  H6  Y27 d           7.186   7.942   2.668  0.00  0.00     0.043 H 
ATOM     13  H7  Y27 d           7.570   8.032   5.090  0.00  0.00     0.033 H 
ATOM     14  H8  Y27 d           7.956   9.784   4.981  0.00  0.00     0.033 H 
ATOM     15  H9  Y27 d          10.087   8.631   5.066  0.00  0.00     0.034 H 
ATOM     16  H10 Y27 d           9.563   7.415   3.852  0.00  0.00     0.034 H 
ENDROOT
BRANCH   1  17
ATOM     17  C22 Y27 d          11.459   8.915   2.589  0.00  0.00     0.226 C 
ATOM     18  O23 Y27 d          12.068   9.437   1.651  0.00  0.00    -0.273 OA
ATOM     19  N21 Y27 d          12.004   7.867   3.381  0.00  0.00    -0.327 N 
ATOM     20  H18 Y27 d          11.358   7.345   3.939  0.00  0.00     0.169 HD
BRANCH  19  21
ATOM     21  C14 Y27 d          13.390   7.475   3.466  0.00  0.00     0.037 A 
ATOM     22  C15 Y27 d          13.987   7.084   2.256  0.00  0.00    -0.040 A 
ATOM     23  C16 Y27 d          15.324   6.686   2.331  0.00  0.00     0.004 A 
ATOM     24  H19 Y27 d          13.442   7.091   1.319  0.00  0.00     0.089 H 
ATOM     25  N11 Y27 d          16.011   6.689   3.492  0.00  0.00    -0.273 NA
ATOM     26  H20 Y27 d          15.826   6.363   1.426  0.00  0.00     0.114 H 
ATOM     27  C12 Y27 d          15.453   7.059   4.656  0.00  0.00     0.004 A 
ATOM     28  C13 Y27 d          14.126   7.461   4.686  0.00  0.00    -0.040 A 
ATOM     29  H21 Y27 d          16.038   7.043   5.568  0.00  0.00     0.114 H 
ATOM     30  H22 Y27 d          13.659   7.758   5.618  0.00  0.00     0.089 H 
ENDBRANCH  19  21
ENDBRANCH   1  17
BRANCH   4  31
ATOM     31  C41 Y27 d           5.641   9.276   3.354  0.00  0.00     0.100 C 
ATOM     32  H11 Y27 d           5.060   8.345   3.281  0.00  0.00     0.083 H 
BRANCH  31  33
ATOM     33  C42 Y27 d           5.406   9.895   4.745  0.00  0.00    -0.049 C 
ATOM     34  H12 Y27 d           4.703  10.737   4.657  0.00  0.00     0.030 H 
ATOM     35  H13 Y27 d           6.362  10.258   5.151  0.00  0.00     0.030 H 
ATOM     36  H14 Y27 d           4.986   9.134   5.419  0.00  0.00     0.030 H 
ENDBRANCH  31  33
BRANCH  31  37
ATOM     37  N43 Y27 d           5.149  10.230   2.298  0.00  0.00    -0.075 N 
ATOM     38  H15 Y27 d           4.439   9.779   1.742  0.00  0.00     0.274 HD
ATOM     39  H16 Y27 d           5.917  10.502   1.706  0.00  0.00     0.274 HD
ATOM     40  H17 Y27 d           4.759  11.049   2.739  0.00  0.00     0.274 HD
ENDBRANCH  31  37
ENDBRANCH   4  31
TORSDOF 5
ENDMDL
MODEL 9
REMARK VINA RESULT:      -6.2      1.783      2.739
REMARK  5 active torsions:
REMARK  status: ('A' for Active; 'I' for Inactive)
REMARK    1  A    between atoms: C22_2  and  C31_3 
REMARK       I    between atoms: C22_2  and  N21_12 
REMARK    2  A    between atoms: C34_6  and  C41_9 
REMARK    3  A    between atoms: C41_9  and  C42_10 
REMARK    4  A    between atoms: C41_9  and  N43_11 
REMARK    5  A    between atoms: N21_12  and  C14_13 
ROOT
ATOM      1  C31 Y27 d           9.947   9.257   2.791  0.00  0.00     0.024 C 
ATOM      2  C36 Y27 d           8.824   8.958   1.794  0.00  0.00    -0.053 C 
ATOM      3  C35 Y27 d           7.619   9.862   2.075  0.00  0.00    -0.059 C 
ATOM      4  C34 Y27 d           7.060   9.447   3.441  0.00  0.00    -0.027 C 
ATOM      5  C33 Y27 d           8.114   9.741   4.541  0.00  0.00    -0.059 C 
ATOM      6  C32 Y27 d           9.490   9.044   4.248  0.00  0.00    -0.053 C 
ATOM      7  H1  Y27 d          10.211  10.320   2.689  0.00  0.00     0.054 H 
ATOM      8  H2  Y27 d           8.520   7.906   1.892  0.00  0.00     0.034 H 
ATOM      9  H3  Y27 d           9.186   9.142   0.771  0.00  0.00     0.034 H 
ATOM     10  H4  Y27 d           6.855   9.726   1.296  0.00  0.00     0.033 H 
ATOM     11  H5  Y27 d           7.935  10.916   2.099  0.00  0.00     0.033 H 
ATOM     12  H6  Y27 d           6.904   8.359   3.431  0.00  0.00     0.043 H 
ATOM     13  H7  Y27 d           7.731   9.375   5.506  0.00  0.00     0.033 H 
ATOM     14  H8  Y27 d           8.274  10.828   4.598  0.00  0.00     0.033 H 
ATOM     15  H9  Y27 d          10.251   9.462   4.923  0.00  0.00     0.034 H 
ATOM     16  H10 Y27 d           9.388   7.965   4.433  0.00  0.00     0.034 H 
ENDROOT
BRANCH   1  17
ATOM     17  C22 Y27 d          11.170   8.452   2.426  0.00  0.00     0.226 C 
ATOM     18  O23 Y27 d          11.120   7.285   2.029  0.00  0.00    -0.273 OA
ATOM     19  N21 Y27 d          12.388   9.176   2.557  0.00  0.00    -0.327 N 
ATOM     20  H18 Y27 d          12.357  10.006   3.114  0.00  0.00     0.169 HD
BRANCH  19  21
ATOM     21  C14 Y27 d          13.663   8.841   1.971  0.00  0.00     0.037 A 
ATOM     22  C15 Y27 d          14.264   7.667   2.454  0.00  0.00    -0.040 A 
ATOM     23  C16 Y27 d          15.508   7.343   1.906  0.00  0.00     0.004 A 
ATOM     24  H19 Y27 d          13.791   7.048   3.208  0.00  0.00     0.089 H 
ATOM     25  N11 Y27 d          16.095   8.102   0.957  0.00  0.00    -0.273 NA
ATOM     26  H20 Y27 d          16.018   6.453   2.256  0.00  0.00     0.114 H 
ATOM     27  C12 Y27 d          15.532   9.226   0.487  0.00  0.00     0.004 A 
ATOM     28  C13 Y27 d          14.301   9.637   0.977  0.00  0.00    -0.040 A 
ATOM     29  H21 Y27 d          16.038   9.811  -0.273  0.00  0.00     0.114 H 
ATOM     30  H22 Y27 d          13.835  10.546   0.612  0.00  0.00     0.089 H 
ENDBRANCH  19  21
ENDBRANCH   1  17
BRANCH   4  31
ATOM     31  C41 Y27 d           5.660  10.103   3.645  0.00  0.00     0.100 C 
ATOM     32  H11 Y27 d           5.787  11.195   3.632  0.00  0.00     0.083 H 
BRANCH  31  33
ATOM     33  C42 Y27 d           4.703   9.704   2.507  0.00  0.00    -0.049 C 
ATOM     34  H12 Y27 d           4.584  10.550   1.814  0.00  0.00     0.030 H 
ATOM     35  H13 Y27 d           3.724   9.434   2.929  0.00  0.00     0.030 H 
ATOM     36  H14 Y27 d           5.119   8.842   1.964  0.00  0.00     0.030 H 
ENDBRANCH  31  33
BRANCH  31  37
ATOM     37  N43 Y27 d           5.051   9.709   4.966  0.00  0.00    -0.075 N 
ATOM     38  H15 Y27 d           5.563   8.932   5.354  0.00  0.00     0.274 HD
ATOM     39  H16 Y27 d           4.089   9.442   4.825  0.00  0.00     0.274 HD
ATOM     40  H17 Y27 d           5.093  10.490   5.602  0.00  0.00     0.274 HD
ENDBRANCH  31  37
ENDBRANCH   4  31
TORSDOF 5
ENDMDL
MODEL 10
REMARK VINA RESULT:      -5.6      1.271      1.778
REMARK  5 active torsions:
REMARK  status: ('A' for Active; 'I' for Inactive)
REMARK    1  A    between atoms: C22_2  and  C31_3 
REMARK       I    between atoms: C22_2  and  N21_12 
REMARK    2  A    between atoms: C34_6  and  C41_9 
REMARK    3  A    between atoms: C41_9  and  C42_10 
REMARK    4  A    between atoms: C41_9  and  N43_11 
REMARK    5  A    between atoms: N21_12  and  C14_13 
ROOT
ATOM      1  C31 Y27 d           9.383   9.400   4.043  0.00  0.00     0.024 C 
ATOM      2  C36 Y27 d           8.543   8.773   2.927  0.00  0.00    -0.053 C 
ATOM      3  C35 Y27 d           7.281   9.609   2.687  0.00  0.00    -0.059 C 
ATOM      4  C34 Y27 d           6.420   9.488   3.950  0.00  0.00    -0.027 C 
ATOM      5  C33 Y27 d           7.169  10.129   5.149  0.00  0.00    -0.059 C 
ATOM      6  C32 Y27 d           8.593   9.506   5.362  0.00  0.00    -0.053 C 
ATOM      7  H1  Y27 d           9.634  10.426   3.736  0.00  0.00     0.054 H 
ATOM      8  H2  Y27 d           8.253   7.753   3.218  0.00  0.00     0.034 H 
ATOM      9  H3  Y27 d           9.136   8.735   2.001  0.00  0.00     0.034 H 
ATOM     10  H4  Y27 d           6.732   9.223   1.816  0.00  0.00     0.033 H 
ATOM     11  H5  Y27 d           7.552  10.661   2.513  0.00  0.00     0.033 H 
ATOM     12  H6  Y27 d           6.302   8.420   4.183  0.00  0.00     0.043 H 
ATOM     13  H7  Y27 d           6.574   9.975   6.061  0.00  0.00     0.033 H 
ATOM     14  H8  Y27 d           7.279  11.208   4.961  0.00  0.00     0.033 H 
ATOM     15  H9  Y27 d           9.156  10.140   6.064  0.00  0.00     0.034 H 
ATOM     16  H10 Y27 d           8.479   8.498   5.789  0.00  0.00     0.034 H 
ENDROOT
BRANCH   1  17
ATOM     17  C22 Y27 d          10.679   8.642   4.183  0.00  0.00     0.226 C 
ATOM     18  O23 Y27 d          10.765   7.543   4.738  0.00  0.00    -0.273 OA
ATOM     19  N21 Y27 d          11.791   9.300   3.588  0.00  0.00    -0.327 N 
ATOM     20  H18 Y27 d          11.682  10.275   3.394  0.00  0.00     0.169 HD
BRANCH  19  21
ATOM     21  C14 Y27 d          13.061   8.712   3.236  0.00  0.00     0.037 A 
ATOM     22  C15 Y27 d          13.361   8.691   1.864  0.00  0.00    -0.040 A 
ATOM     23  C16 Y27 d          14.581   8.107   1.511  0.00  0.00     0.004 A 
ATOM     24  H19 Y27 d          12.687   9.103   1.122  0.00  0.00     0.089 H 
ATOM     25  N11 Y27 d          15.431   7.606   2.432  0.00  0.00    -0.273 NA
ATOM     26  H20 Y27 d          14.853   8.055   0.463  0.00  0.00     0.114 H 
ATOM     27  C12 Y27 d          15.157   7.619   3.746  0.00  0.00     0.004 A 
ATOM     28  C13 Y27 d          13.964   8.168   4.195  0.00  0.00    -0.040 A 
ATOM     29  H21 Y27 d          15.864   7.202   4.453  0.00  0.00     0.114 H 
ATOM     30  H22 Y27 d          13.725   8.183   5.252  0.00  0.00     0.089 H 
ENDBRANCH  19  21
ENDBRANCH   1  17
BRANCH   4  31
ATOM     31  C41 Y27 d           4.995  10.049   3.657  0.00  0.00     0.100 C 
ATOM     32  H11 Y27 d           5.010  10.523   2.665  0.00  0.00     0.083 H 
BRANCH  31  33
ATOM     33  C42 Y27 d           3.957   8.911   3.645  0.00  0.00    -0.049 C 
ATOM     34  H12 Y27 d           4.264   8.142   2.921  0.00  0.00     0.030 H 
ATOM     35  H13 Y27 d           2.975   9.314   3.357  0.00  0.00     0.030 H 
ATOM     36  H14 Y27 d           3.891   8.465   4.649  0.00  0.00     0.030 H 
ENDBRANCH  31  33
BRANCH  31  37
ATOM     37  N43 Y27 d           4.585  11.082   4.674  0.00  0.00    -0.075 N 
ATOM     38  H15 Y27 d           4.037  10.642   5.398  0.00  0.00     0.274 HD
ATOM     39  H16 Y27 d           4.036  11.797   4.224  0.00  0.00     0.274 HD
ATOM     40  H17 Y27 d           5.408  11.497   5.082  0.00  0.00     0.274 HD
ENDBRANCH  31  37
ENDBRANCH   4  31
TORSDOF 5
ENDMDL
