MODEL 1
REMARK VINA RESULT:      -8.0      0.000      0.000
REMARK  17 active torsions:
REMARK  status: ('A' for Active; 'I' for Inactive)
REMARK    1  A    between atoms: C_1  and  OA_3 
REMARK       I    between atoms: N_11  and  C_1 
REMARK    2  A    between atoms: OA_3  and  CB_4 
REMARK    3  A    between atoms: CB_4  and  CG_5 
REMARK    4  A    between atoms: CA_12  and  N_11 
REMARK    5  A    between atoms: P_13  and  CA_12 
REMARK    6  A    between atoms: CA_12  and  CB_16 
REMARK    7  A    between atoms: P_13  and  N_23 
REMARK    8  A    between atoms: CB_16  and  CG_17 
REMARK    9  A    between atoms: N_23  and  CA_24 
REMARK   10  A    between atoms: CA_24  and  CB_27 
REMARK   11  A    between atoms: CA_24  and  C_25 
REMARK       I    between atoms: C_25  and  N_31 
REMARK   12  A    between atoms: CB_27  and  CG_28 
REMARK   13  A    between atoms: CG_28  and  CD1_29 
REMARK   14  A    between atoms: CG_28  and  CD2_30 
REMARK   15  A    between atoms: N_31  and  CA_32 
REMARK   16  A    between atoms: CA_32  and  CB_35 
REMARK   17  A    between atoms: CA_32  and  C_33 
ROOT
ATOM      1  CA  MOL d          50.678  18.063  -6.668  0.00  0.00     0.112 C 
ATOM      2  H9  MOL d          49.830  18.591  -6.209  0.00  0.00     0.092 H 
ENDROOT
BRANCH   1   3
ATOM      3  N   MOL d          51.087  18.654  -7.972  0.00  0.00    -0.321 N 
ATOM      4  C   MOL d          50.861  19.946  -8.257  0.00  0.00     0.361 C 
ATOM      5  O   MOL d          50.226  20.778  -7.524  0.00  0.00    -0.238 OA
ATOM      6  H8  MOL d          51.540  18.076  -8.650  0.00  0.00     0.165 HD
BRANCH   4   7
ATOM      7  OA  MOL d          51.485  20.220  -9.456  0.00  0.00    -0.299 OA
BRANCH   7   8
ATOM      8  CB  MOL d          51.044  21.308 -10.284  0.00  0.00     0.054 C 
ATOM      9  H1  MOL d          51.893  21.897 -10.660  0.00  0.00     0.082 H 
ATOM     10  H2  MOL d          50.350  21.968  -9.743  0.00  0.00     0.082 H 
BRANCH   8  11
ATOM     11  CG  MOL d          50.355  20.586 -11.387  0.00  0.00    -0.034 A 
ATOM     12  CD1 MOL d          49.521  19.464 -11.321  0.00  0.00    -0.075 A 
ATOM     13  CE1 MOL d          48.877  18.894 -12.451  0.00  0.00    -0.082 A 
ATOM     14  H3  MOL d          49.357  19.005 -10.353  0.00  0.00     0.084 H 
ATOM     15  CZ  MOL d          48.983  19.408 -13.671  0.00  0.00    -0.083 A 
ATOM     16  H5  MOL d          48.275  18.003 -12.312  0.00  0.00     0.083 H 
ATOM     17  CE2 MOL d          49.805  20.463 -13.654  0.00  0.00    -0.082 A 
ATOM     18  H7  MOL d          48.479  19.028 -14.552  0.00  0.00     0.083 H 
ATOM     19  CD2 MOL d          50.494  21.115 -12.611  0.00  0.00    -0.075 A 
ATOM     20  H6  MOL d          49.974  20.901 -14.631  0.00  0.00     0.083 H 
ATOM     21  H4  MOL d          51.102  21.995 -12.789  0.00  0.00     0.084 H 
ENDBRANCH   8  11
ENDBRANCH   7   8
ENDBRANCH   4   7
ENDBRANCH   1   3
BRANCH   1  22
ATOM     22  P   MOL d          52.019  18.120  -5.704  0.00  0.00     0.229 P 
ATOM     23  OP1 MOL d          53.255  18.744  -6.457  0.00  0.00    -0.650 OA
ATOM     24  OP2 MOL d          51.740  18.830  -4.314  0.00  0.00    -0.650 OA
BRANCH  22  25
ATOM     25  N   MOL d          52.252  16.276  -5.314  0.00  0.00    -0.334 N 
ATOM     26  H17 MOL d          52.169  15.566  -6.012  0.00  0.00     0.164 HD
BRANCH  25  27
ATOM     27  CA  MOL d          52.565  15.970  -3.911  0.00  0.00     0.091 C 
ATOM     28  H18 MOL d          51.656  16.193  -3.332  0.00  0.00     0.087 H 
BRANCH  27  29
ATOM     29  CB  MOL d          52.922  14.494  -3.694  0.00  0.00    -0.035 C 
ATOM     30  H19 MOL d          53.841  14.272  -4.256  0.00  0.00     0.037 H 
ATOM     31  H20 MOL d          52.098  13.876  -4.080  0.00  0.00     0.037 H 
BRANCH  29  32
ATOM     32  CG  MOL d          53.151  14.137  -2.244  0.00  0.00    -0.059 C 
ATOM     33  H21 MOL d          53.665  14.943  -1.701  0.00  0.00     0.038 H 
BRANCH  32  34
ATOM     34  CD1 MOL d          51.810  13.839  -1.548  0.00  0.00    -0.073 C 
ATOM     35  H22 MOL d          50.991  13.928  -2.276  0.00  0.00     0.028 H 
ATOM     36  H23 MOL d          51.654  14.557  -0.730  0.00  0.00     0.028 H 
ATOM     37  H24 MOL d          51.828  12.818  -1.140  0.00  0.00     0.028 H 
ENDBRANCH  32  34
BRANCH  32  38
ATOM     38  CD2 MOL d          54.055  12.934  -2.410  0.00  0.00    -0.073 C 
ATOM     39  H25 MOL d          54.911  13.205  -3.046  0.00  0.00     0.028 H 
ATOM     40  H26 MOL d          53.494  12.115  -2.882  0.00  0.00     0.028 H 
ATOM     41  H27 MOL d          54.418  12.610  -1.424  0.00  0.00     0.028 H 
ENDBRANCH  32  38
ENDBRANCH  29  32
ENDBRANCH  27  29
BRANCH  27  42
ATOM     42  C   MOL d          53.719  16.783  -3.302  0.00  0.00     0.241 C 
ATOM     43  O   MOL d          54.834  16.817  -3.834  0.00  0.00    -0.271 OA
ATOM     44  N   MOL d          53.419  17.491  -2.231  0.00  0.00    -0.345 N 
ATOM     45  H28 MOL d          52.488  17.416  -1.876  0.00  0.00     0.163 HD
BRANCH  44  46
ATOM     46  CA  MOL d          54.348  18.388  -1.513  0.00  0.00     0.093 C 
ATOM     47  H29 MOL d          55.379  18.041  -1.672  0.00  0.00     0.089 H 
BRANCH  46  48
ATOM     48  CB  MOL d          54.200  19.786  -2.084  0.00  0.00    -0.048 C 
ATOM     49  H30 MOL d          53.255  20.227  -1.736  0.00  0.00     0.030 H 
ATOM     50  H31 MOL d          54.199  19.736  -3.183  0.00  0.00     0.030 H 
ATOM     51  H32 MOL d          55.042  20.411  -1.748  0.00  0.00     0.030 H 
ENDBRANCH  46  48
BRANCH  46  52
ATOM     52  C   MOL d          54.050  18.383   0.007  0.00  0.00     0.196 C 
ATOM     53  O   MOL d          52.892  18.176   0.426  0.00  0.00    -0.646 OA
ATOM     54  OXT MOL d          54.922  18.479   0.945  0.00  0.00    -0.646 OA
ENDBRANCH  46  52
ENDBRANCH  44  46
ENDBRANCH  27  42
ENDBRANCH  25  27
ENDBRANCH  22  25
ENDBRANCH   1  22
BRANCH   1  55
ATOM     55  CB  MOL d          50.338  16.648  -6.999  0.00  0.00    -0.011 C 
ATOM     56  H10 MOL d          50.365  16.026  -6.092  0.00  0.00     0.044 H 
ATOM     57  H11 MOL d          51.046  16.248  -7.739  0.00  0.00     0.044 H 
BRANCH  55  58
ATOM     58  CG  MOL d          48.937  16.680  -7.574  0.00  0.00    -0.056 A 
ATOM     59  CD1 MOL d          48.829  16.613  -8.969  0.00  0.00    -0.077 A 
ATOM     60  CE1 MOL d          47.571  16.614  -9.584  0.00  0.00    -0.082 A 
ATOM     61  H12 MOL d          49.726  16.559  -9.576  0.00  0.00     0.084 H 
ATOM     62  CZ  MOL d          46.441  16.675  -8.778  0.00  0.00    -0.083 A 
ATOM     63  H14 MOL d          47.482  16.569 -10.663  0.00  0.00     0.083 H 
ATOM     64  CE2 MOL d          46.560  16.716  -7.359  0.00  0.00    -0.082 A 
ATOM     65  H16 MOL d          45.458  16.692  -9.234  0.00  0.00     0.083 H 
ATOM     66  CD2 MOL d          47.830  16.703  -6.763  0.00  0.00    -0.077 A 
ATOM     67  H15 MOL d          45.671  16.758  -6.740  0.00  0.00     0.083 H 
ATOM     68  H13 MOL d          47.934  16.712  -5.684  0.00  0.00     0.084 H 
ENDBRANCH  55  58
ENDBRANCH   1  55
TORSDOF 17
ENDMDL
MODEL 2
REMARK VINA RESULT:      -7.1      2.399      6.629
REMARK  17 active torsions:
REMARK  status: ('A' for Active; 'I' for Inactive)
REMARK    1  A    between atoms: C_1  and  OA_3 
REMARK       I    between atoms: N_11  and  C_1 
REMARK    2  A    between atoms: OA_3  and  CB_4 
REMARK    3  A    between atoms: CB_4  and  CG_5 
REMARK    4  A    between atoms: CA_12  and  N_11 
REMARK    5  A    between atoms: P_13  and  CA_12 
REMARK    6  A    between atoms: CA_12  and  CB_16 
REMARK    7  A    between atoms: P_13  and  N_23 
REMARK    8  A    between atoms: CB_16  and  CG_17 
REMARK    9  A    between atoms: N_23  and  CA_24 
REMARK   10  A    between atoms: CA_24  and  CB_27 
REMARK   11  A    between atoms: CA_24  and  C_25 
REMARK       I    between atoms: C_25  and  N_31 
REMARK   12  A    between atoms: CB_27  and  CG_28 
REMARK   13  A    between atoms: CG_28  and  CD1_29 
REMARK   14  A    between atoms: CG_28  and  CD2_30 
REMARK   15  A    between atoms: N_31  and  CA_32 
REMARK   16  A    between atoms: CA_32  and  CB_35 
REMARK   17  A    between atoms: CA_32  and  C_33 
ROOT
ATOM      1  CA  MOL d          52.726  18.185  -3.527  0.00  0.00     0.112 C 
ATOM      2  H9  MOL d          53.574  18.826  -3.810  0.00  0.00     0.092 H 
ENDROOT
BRANCH   1   3
ATOM      3  N   MOL d          51.634  18.194  -4.540  0.00  0.00    -0.321 N 
ATOM      4  C   MOL d          51.688  18.988  -5.621  0.00  0.00     0.361 C 
ATOM      5  O   MOL d          52.593  19.855  -5.873  0.00  0.00    -0.238 OA
ATOM      6  H8  MOL d          50.844  17.596  -4.412  0.00  0.00     0.165 HD
BRANCH   4   7
ATOM      7  OA  MOL d          50.623  18.656  -6.430  0.00  0.00    -0.299 OA
BRANCH   7   8
ATOM      8  CB  MOL d          50.822  17.904  -7.639  0.00  0.00     0.054 C 
ATOM      9  H1  MOL d          50.156  17.030  -7.682  0.00  0.00     0.082 H 
ATOM     10  H2  MOL d          51.867  17.574  -7.738  0.00  0.00     0.082 H 
BRANCH   8  11
ATOM     11  CG  MOL d          50.469  18.907  -8.679  0.00  0.00    -0.034 A 
ATOM     12  CD1 MOL d          50.897  20.233  -8.806  0.00  0.00    -0.075 A 
ATOM     13  CE1 MOL d          50.525  21.081  -9.882  0.00  0.00    -0.082 A 
ATOM     14  H3  MOL d          51.550  20.636  -8.039  0.00  0.00     0.084 H 
ATOM     15  CZ  MOL d          49.763  20.668 -10.889  0.00  0.00    -0.083 A 
ATOM     16  H5  MOL d          50.877  22.107  -9.882  0.00  0.00     0.083 H 
ATOM     17  CE2 MOL d          49.385  19.401 -10.688  0.00  0.00    -0.082 A 
ATOM     18  H7  MOL d          49.489  21.269 -11.748  0.00  0.00     0.083 H 
ATOM     19  CD2 MOL d          49.684  18.469  -9.673  0.00  0.00    -0.075 A 
ATOM     20  H6  MOL d          48.718  19.017 -11.452  0.00  0.00     0.083 H 
ATOM     21  H4  MOL d          49.302  17.455  -9.697  0.00  0.00     0.084 H 
ENDBRANCH   8  11
ENDBRANCH   7   8
ENDBRANCH   4   7
ENDBRANCH   1   3
BRANCH   1  22
ATOM     22  P   MOL d          53.187  16.606  -3.371  0.00  0.00     0.229 P 
ATOM     23  OP1 MOL d          54.754  16.445  -3.429  0.00  0.00    -0.650 OA
ATOM     24  OP2 MOL d          52.558  15.912  -2.092  0.00  0.00    -0.650 OA
BRANCH  22  25
ATOM     25  N   MOL d          52.315  15.834  -4.870  0.00  0.00    -0.334 N 
ATOM     26  H17 MOL d          51.688  16.352  -5.452  0.00  0.00     0.164 HD
BRANCH  25  27
ATOM     27  CA  MOL d          52.628  14.419  -5.114  0.00  0.00     0.091 C 
ATOM     28  H18 MOL d          53.705  14.371  -5.336  0.00  0.00     0.087 H 
BRANCH  27  29
ATOM     29  CB  MOL d          52.349  13.534  -3.893  0.00  0.00    -0.035 C 
ATOM     30  H19 MOL d          51.478  12.900  -4.114  0.00  0.00     0.037 H 
ATOM     31  H20 MOL d          52.121  14.184  -3.036  0.00  0.00     0.037 H 
BRANCH  29  32
ATOM     32  CG  MOL d          53.509  12.639  -3.521  0.00  0.00    -0.059 C 
ATOM     33  H21 MOL d          53.332  11.595  -3.819  0.00  0.00     0.038 H 
BRANCH  32  34
ATOM     34  CD1 MOL d          54.805  13.137  -4.186  0.00  0.00    -0.073 C 
ATOM     35  H22 MOL d          54.562  13.633  -5.137  0.00  0.00     0.028 H 
ATOM     36  H23 MOL d          55.471  12.283  -4.377  0.00  0.00     0.028 H 
ATOM     37  H24 MOL d          55.309  13.852  -3.518  0.00  0.00     0.028 H 
ENDBRANCH  32  34
BRANCH  32  38
ATOM     38  CD2 MOL d          53.478  12.784  -2.014  0.00  0.00    -0.073 C 
ATOM     39  H25 MOL d          54.409  12.381  -1.588  0.00  0.00     0.028 H 
ATOM     40  H26 MOL d          52.620  12.227  -1.610  0.00  0.00     0.028 H 
ATOM     41  H27 MOL d          53.382  13.847  -1.750  0.00  0.00     0.028 H 
ENDBRANCH  32  38
ENDBRANCH  29  32
ENDBRANCH  27  29
BRANCH  27  42
ATOM     42  C   MOL d          51.878  13.773  -6.290  0.00  0.00     0.241 C 
ATOM     43  O   MOL d          52.165  12.639  -6.693  0.00  0.00    -0.271 OA
ATOM     44  N   MOL d          50.873  14.470  -6.783  0.00  0.00    -0.345 N 
ATOM     45  H28 MOL d          50.703  15.373  -6.387  0.00  0.00     0.163 HD
BRANCH  44  46
ATOM     46  CA  MOL d          49.979  14.027  -7.871  0.00  0.00     0.093 C 
ATOM     47  H29 MOL d          49.745  12.961  -7.735  0.00  0.00     0.089 H 
BRANCH  46  48
ATOM     48  CB  MOL d          48.694  14.832  -7.793  0.00  0.00    -0.048 C 
ATOM     49  H30 MOL d          48.686  15.588  -8.592  0.00  0.00     0.030 H 
ATOM     50  H31 MOL d          48.633  15.331  -6.815  0.00  0.00     0.030 H 
ATOM     51  H32 MOL d          47.832  14.160  -7.916  0.00  0.00     0.030 H 
ENDBRANCH  46  48
BRANCH  46  52
ATOM     52  C   MOL d          50.659  14.214  -9.251  0.00  0.00     0.196 C 
ATOM     53  O   MOL d          50.500  15.270  -9.898  0.00  0.00    -0.646 OA
ATOM     54  OXT MOL d          51.492  13.403  -9.795  0.00  0.00    -0.646 OA
ENDBRANCH  46  52
ENDBRANCH  44  46
ENDBRANCH  27  42
ENDBRANCH  25  27
ENDBRANCH  22  25
ENDBRANCH   1  22
BRANCH   1  55
ATOM     55  CB  MOL d          52.067  18.658  -2.275  0.00  0.00    -0.011 C 
ATOM     56  H10 MOL d          51.335  17.916  -1.924  0.00  0.00     0.044 H 
ATOM     57  H11 MOL d          51.561  19.619  -2.449  0.00  0.00     0.044 H 
BRANCH  55  58
ATOM     58  CG  MOL d          53.176  18.826  -1.256  0.00  0.00    -0.056 A 
ATOM     59  CD1 MOL d          52.990  18.201  -0.017  0.00  0.00    -0.077 A 
ATOM     60  CE1 MOL d          53.974  18.286   0.976  0.00  0.00    -0.082 A 
ATOM     61  H12 MOL d          52.077  17.647   0.176  0.00  0.00     0.084 H 
ATOM     62  CZ  MOL d          55.136  18.995   0.696  0.00  0.00    -0.083 A 
ATOM     63  H14 MOL d          53.833  17.809   1.939  0.00  0.00     0.083 H 
ATOM     64  CE2 MOL d          55.327  19.605  -0.577  0.00  0.00    -0.082 A 
ATOM     65  H16 MOL d          55.905  19.085   1.455  0.00  0.00     0.083 H 
ATOM     66  CD2 MOL d          54.333  19.499  -1.561  0.00  0.00    -0.077 A 
ATOM     67  H15 MOL d          56.240  20.151  -0.786  0.00  0.00     0.083 H 
ATOM     68  H13 MOL d          54.476  19.939  -2.541  0.00  0.00     0.084 H 
ENDBRANCH  55  58
ENDBRANCH   1  55
TORSDOF 17
ENDMDL
MODEL 3
REMARK VINA RESULT:      -7.1      2.779      9.797
REMARK  17 active torsions:
REMARK  status: ('A' for Active; 'I' for Inactive)
REMARK    1  A    between atoms: C_1  and  OA_3 
REMARK       I    between atoms: N_11  and  C_1 
REMARK    2  A    between atoms: OA_3  and  CB_4 
REMARK    3  A    between atoms: CB_4  and  CG_5 
REMARK    4  A    between atoms: CA_12  and  N_11 
REMARK    5  A    between atoms: P_13  and  CA_12 
REMARK    6  A    between atoms: CA_12  and  CB_16 
REMARK    7  A    between atoms: P_13  and  N_23 
REMARK    8  A    between atoms: CB_16  and  CG_17 
REMARK    9  A    between atoms: N_23  and  CA_24 
REMARK   10  A    between atoms: CA_24  and  CB_27 
REMARK   11  A    between atoms: CA_24  and  C_25 
REMARK       I    between atoms: C_25  and  N_31 
REMARK   12  A    between atoms: CB_27  and  CG_28 
REMARK   13  A    between atoms: CG_28  and  CD1_29 
REMARK   14  A    between atoms: CG_28  and  CD2_30 
REMARK   15  A    between atoms: N_31  and  CA_32 
REMARK   16  A    between atoms: CA_32  and  CB_35 
REMARK   17  A    between atoms: CA_32  and  C_33 
ROOT
ATOM      1  CA  MOL d          50.575  18.515  -7.622  0.00  0.00     0.112 C 
ATOM      2  H9  MOL d          51.097  17.658  -8.073  0.00  0.00     0.092 H 
ENDROOT
BRANCH   1   3
ATOM      3  N   MOL d          51.221  18.982  -6.363  0.00  0.00    -0.321 N 
ATOM      4  C   MOL d          51.865  18.132  -5.549  0.00  0.00     0.361 C 
ATOM      5  O   MOL d          51.939  16.864  -5.691  0.00  0.00    -0.238 OA
ATOM      6  H8  MOL d          51.172  19.950  -6.119  0.00  0.00     0.165 HD
BRANCH   4   7
ATOM      7  OA  MOL d          52.476  18.884  -4.567  0.00  0.00    -0.299 OA
BRANCH   7   8
ATOM      8  CB  MOL d          53.792  18.550  -4.096  0.00  0.00     0.054 C 
ATOM      9  H1  MOL d          54.518  19.339  -4.343  0.00  0.00     0.082 H 
ATOM     10  H2  MOL d          54.136  17.592  -4.512  0.00  0.00     0.082 H 
BRANCH   8  11
ATOM     11  CG  MOL d          53.571  18.456  -2.628  0.00  0.00    -0.034 A 
ATOM     12  CD1 MOL d          52.783  17.549  -1.912  0.00  0.00    -0.075 A 
ATOM     13  CE1 MOL d          52.694  17.531  -0.495  0.00  0.00    -0.082 A 
ATOM     14  H3  MOL d          52.207  16.819  -2.470  0.00  0.00     0.084 H 
ATOM     15  CZ  MOL d          53.391  18.357   0.277  0.00  0.00    -0.083 A 
ATOM     16  H5  MOL d          52.031  16.813  -0.024  0.00  0.00     0.083 H 
ATOM     17  CE2 MOL d          54.104  19.199  -0.478  0.00  0.00    -0.082 A 
ATOM     18  H7  MOL d          53.382  18.351   1.361  0.00  0.00     0.083 H 
ATOM     19  CD2 MOL d          54.273  19.314  -1.873  0.00  0.00    -0.075 A 
ATOM     20  H6  MOL d          54.660  19.934   0.091  0.00  0.00     0.083 H 
ATOM     21  H4  MOL d          54.933  20.055  -2.311  0.00  0.00     0.084 H 
ENDBRANCH   8  11
ENDBRANCH   7   8
ENDBRANCH   4   7
ENDBRANCH   1   3
BRANCH   1  22
ATOM     22  P   MOL d          50.564  19.819  -8.636  0.00  0.00     0.229 P 
ATOM     23  OP1 MOL d          49.834  21.057  -7.989  0.00  0.00    -0.650 OA
ATOM     24  OP2 MOL d          52.010  20.185  -9.173  0.00  0.00    -0.650 OA
BRANCH  22  25
ATOM     25  N   MOL d          49.618  19.104 -10.119  0.00  0.00    -0.334 N 
ATOM     26  H17 MOL d          49.516  18.120 -10.267  0.00  0.00     0.164 HD
BRANCH  25  27
ATOM     27  CA  MOL d          49.046  20.102 -11.035  0.00  0.00     0.091 C 
ATOM     28  H18 MOL d          48.868  21.008 -10.437  0.00  0.00     0.087 H 
BRANCH  27  29
ATOM     29  CB  MOL d          49.997  20.463 -12.183  0.00  0.00    -0.035 C 
ATOM     30  H19 MOL d          49.647  19.960 -13.096  0.00  0.00     0.037 H 
ATOM     31  H20 MOL d          51.004  20.101 -11.929  0.00  0.00     0.037 H 
BRANCH  29  32
ATOM     32  CG  MOL d          50.077  21.947 -12.454  0.00  0.00    -0.059 C 
ATOM     33  H21 MOL d          49.116  22.350 -12.808  0.00  0.00     0.038 H 
BRANCH  32  34
ATOM     34  CD1 MOL d          50.498  22.703 -11.181  0.00  0.00    -0.073 C 
ATOM     35  H22 MOL d          49.606  23.125 -10.694  0.00  0.00     0.028 H 
ATOM     36  H23 MOL d          51.189  23.516 -11.448  0.00  0.00     0.028 H 
ATOM     37  H24 MOL d          50.998  22.009 -10.490  0.00  0.00     0.028 H 
ENDBRANCH  32  34
BRANCH  32  38
ATOM     38  CD2 MOL d          51.108  21.956 -13.562  0.00  0.00    -0.073 C 
ATOM     39  H25 MOL d          51.021  22.890 -14.136  0.00  0.00     0.028 H 
ATOM     40  H26 MOL d          50.936  21.099 -14.230  0.00  0.00     0.028 H 
ATOM     41  H27 MOL d          52.115  21.885 -13.126  0.00  0.00     0.028 H 
ENDBRANCH  32  38
ENDBRANCH  29  32
ENDBRANCH  27  29
BRANCH  27  42
ATOM     42  C   MOL d          47.715  19.704 -11.692  0.00  0.00     0.241 C 
ATOM     43  O   MOL d          46.684  20.361 -11.509  0.00  0.00    -0.271 OA
ATOM     44  N   MOL d          47.765  18.673 -12.513  0.00  0.00    -0.345 N 
ATOM     45  H28 MOL d          48.645  18.208 -12.613  0.00  0.00     0.163 HD
BRANCH  44  46
ATOM     46  CA  MOL d          46.628  18.149 -13.296  0.00  0.00     0.093 C 
ATOM     47  H29 MOL d          45.689  18.517 -12.859  0.00  0.00     0.089 H 
BRANCH  46  48
ATOM     48  CB  MOL d          46.750  18.664 -14.719  0.00  0.00    -0.048 C 
ATOM     49  H30 MOL d          45.930  19.368 -14.925  0.00  0.00     0.030 H 
ATOM     50  H31 MOL d          46.693  17.819 -15.421  0.00  0.00     0.030 H 
ATOM     51  H32 MOL d          47.715  19.178 -14.842  0.00  0.00     0.030 H 
ENDBRANCH  46  48
BRANCH  46  52
ATOM     52  C   MOL d          46.614  16.600 -13.274  0.00  0.00     0.196 C 
ATOM     53  O   MOL d          46.658  15.949 -14.339  0.00  0.00    -0.646 OA
ATOM     54  OXT MOL d          46.662  15.862 -12.224  0.00  0.00    -0.646 OA
ENDBRANCH  46  52
ENDBRANCH  44  46
ENDBRANCH  27  42
ENDBRANCH  25  27
ENDBRANCH  22  25
ENDBRANCH   1  22
BRANCH   1  55
ATOM     55  CB  MOL d          49.184  18.165  -7.211  0.00  0.00    -0.011 C 
ATOM     56  H10 MOL d          48.458  18.790  -7.751  0.00  0.00     0.044 H 
ATOM     57  H11 MOL d          49.058  18.310  -6.128  0.00  0.00     0.044 H 
BRANCH  55  58
ATOM     58  CG  MOL d          48.996  16.706  -7.574  0.00  0.00    -0.056 A 
ATOM     59  CD1 MOL d          50.061  16.082  -8.235  0.00  0.00    -0.077 A 
ATOM     60  CE1 MOL d          49.981  14.729  -8.589  0.00  0.00    -0.082 A 
ATOM     61  H12 MOL d          50.953  16.650  -8.476  0.00  0.00     0.084 H 
ATOM     62  CZ  MOL d          48.828  14.027  -8.260  0.00  0.00    -0.083 A 
ATOM     63  H14 MOL d          50.799  14.242  -9.107  0.00  0.00     0.083 H 
ATOM     64  CE2 MOL d          47.761  14.665  -7.563  0.00  0.00    -0.082 A 
ATOM     65  H16 MOL d          48.739  12.982  -8.536  0.00  0.00     0.083 H 
ATOM     66  CD2 MOL d          47.867  16.018  -7.209  0.00  0.00    -0.077 A 
ATOM     67  H15 MOL d          46.869  14.105  -7.307  0.00  0.00     0.083 H 
ATOM     68  H13 MOL d          47.072  16.509  -6.659  0.00  0.00     0.084 H 
ENDBRANCH  55  58
ENDBRANCH   1  55
TORSDOF 17
ENDMDL
MODEL 4
REMARK VINA RESULT:      -6.7      1.512      2.175
REMARK  17 active torsions:
REMARK  status: ('A' for Active; 'I' for Inactive)
REMARK    1  A    between atoms: C_1  and  OA_3 
REMARK       I    between atoms: N_11  and  C_1 
REMARK    2  A    between atoms: OA_3  and  CB_4 
REMARK    3  A    between atoms: CB_4  and  CG_5 
REMARK    4  A    between atoms: CA_12  and  N_11 
REMARK    5  A    between atoms: P_13  and  CA_12 
REMARK    6  A    between atoms: CA_12  and  CB_16 
REMARK    7  A    between atoms: P_13  and  N_23 
REMARK    8  A    between atoms: CB_16  and  CG_17 
REMARK    9  A    between atoms: N_23  and  CA_24 
REMARK   10  A    between atoms: CA_24  and  CB_27 
REMARK   11  A    between atoms: CA_24  and  C_25 
REMARK       I    between atoms: C_25  and  N_31 
REMARK   12  A    between atoms: CB_27  and  CG_28 
REMARK   13  A    between atoms: CG_28  and  CD1_29 
REMARK   14  A    between atoms: CG_28  and  CD2_30 
REMARK   15  A    between atoms: N_31  and  CA_32 
REMARK   16  A    between atoms: CA_32  and  CB_35 
REMARK   17  A    between atoms: CA_32  and  C_33 
ROOT
ATOM      1  CA  MOL d          50.396  17.643  -7.340  0.00  0.00     0.112 C 
ATOM      2  H9  MOL d          49.403  17.832  -6.906  0.00  0.00     0.092 H 
ENDROOT
BRANCH   1   3
ATOM      3  N   MOL d          50.622  18.392  -8.608  0.00  0.00    -0.321 N 
ATOM      4  C   MOL d          49.600  18.909  -9.308  0.00  0.00     0.361 C 
ATOM      5  O   MOL d          48.358  18.767  -9.041  0.00  0.00    -0.238 OA
ATOM      6  H8  MOL d          51.555  18.512  -8.946  0.00  0.00     0.165 HD
BRANCH   4   7
ATOM      7  OA  MOL d          50.138  19.662 -10.329  0.00  0.00    -0.299 OA
BRANCH   7   8
ATOM      8  CB  MOL d          49.545  19.658 -11.638  0.00  0.00     0.054 C 
ATOM      9  H1  MOL d          48.471  19.893 -11.593  0.00  0.00     0.082 H 
ATOM     10  H2  MOL d          49.687  18.689 -12.140  0.00  0.00     0.082 H 
BRANCH   8  11
ATOM     11  CG  MOL d          50.309  20.738 -12.318  0.00  0.00    -0.034 A 
ATOM     12  CD1 MOL d          50.242  21.161 -13.650  0.00  0.00    -0.075 A 
ATOM     13  CE1 MOL d          50.994  22.247 -14.170  0.00  0.00    -0.082 A 
ATOM     14  H3  MOL d          49.579  20.629 -14.323  0.00  0.00     0.084 H 
ATOM     15  CZ  MOL d          51.803  22.985 -13.417  0.00  0.00    -0.083 A 
ATOM     16  H5  MOL d          50.905  22.485 -15.224  0.00  0.00     0.083 H 
ATOM     17  CE2 MOL d          51.824  22.510 -12.167  0.00  0.00    -0.082 A 
ATOM     18  H7  MOL d          52.364  23.844 -13.764  0.00  0.00     0.083 H 
ATOM     19  CD2 MOL d          51.132  21.454 -11.539  0.00  0.00    -0.075 A 
ATOM     20  H6  MOL d          52.504  23.039 -11.509  0.00  0.00     0.083 H 
ATOM     21  H4  MOL d          51.257  21.234 -10.484  0.00  0.00     0.084 H 
ENDBRANCH   8  11
ENDBRANCH   7   8
ENDBRANCH   4   7
ENDBRANCH   1   3
BRANCH   1  22
ATOM     22  P   MOL d          51.604  18.114  -6.315  0.00  0.00     0.229 P 
ATOM     23  OP1 MOL d          52.691  18.984  -7.053  0.00  0.00    -0.650 OA
ATOM     24  OP2 MOL d          51.051  18.822  -5.009  0.00  0.00    -0.650 OA
BRANCH  22  25
ATOM     25  N   MOL d          52.270  16.426  -5.756  0.00  0.00    -0.334 N 
ATOM     26  H17 MOL d          52.419  15.671  -6.393  0.00  0.00     0.164 HD
BRANCH  25  27
ATOM     27  CA  MOL d          52.552  16.312  -4.318  0.00  0.00     0.091 C 
ATOM     28  H18 MOL d          51.580  16.186  -3.818  0.00  0.00     0.087 H 
BRANCH  27  29
ATOM     29  CB  MOL d          53.426  15.097  -3.983  0.00  0.00    -0.035 C 
ATOM     30  H19 MOL d          54.012  15.328  -3.081  0.00  0.00     0.037 H 
ATOM     31  H20 MOL d          54.108  14.914  -4.826  0.00  0.00     0.037 H 
BRANCH  29  32
ATOM     32  CG  MOL d          52.632  13.837  -3.727  0.00  0.00    -0.059 C 
ATOM     33  H21 MOL d          51.602  14.059  -3.414  0.00  0.00     0.038 H 
BRANCH  32  34
ATOM     34  CD1 MOL d          52.592  12.962  -4.994  0.00  0.00    -0.073 C 
ATOM     35  H22 MOL d          52.980  13.536  -5.848  0.00  0.00     0.028 H 
ATOM     36  H23 MOL d          51.554  12.659  -5.197  0.00  0.00     0.028 H 
ATOM     37  H24 MOL d          53.212  12.067  -4.841  0.00  0.00     0.028 H 
ENDBRANCH  32  34
BRANCH  32  38
ATOM     38  CD2 MOL d          53.431  13.251  -2.583  0.00  0.00    -0.073 C 
ATOM     39  H25 MOL d          54.310  12.724  -2.981  0.00  0.00     0.028 H 
ATOM     40  H26 MOL d          52.804  12.544  -2.021  0.00  0.00     0.028 H 
ATOM     41  H27 MOL d          53.760  14.061  -1.914  0.00  0.00     0.028 H 
ENDBRANCH  32  38
ENDBRANCH  29  32
ENDBRANCH  27  29
BRANCH  27  42
ATOM     42  C   MOL d          53.250  17.527  -3.687  0.00  0.00     0.241 C 
ATOM     43  O   MOL d          54.181  18.106  -4.259  0.00  0.00    -0.271 OA
ATOM     44  N   MOL d          52.744  17.951  -2.545  0.00  0.00    -0.345 N 
ATOM     45  H28 MOL d          51.981  17.431  -2.160  0.00  0.00     0.163 HD
BRANCH  44  46
ATOM     46  CA  MOL d          53.213  19.129  -1.788  0.00  0.00     0.093 C 
ATOM     47  H29 MOL d          53.400  19.956  -2.488  0.00  0.00     0.089 H 
BRANCH  46  48
ATOM     48  CB  MOL d          52.121  19.538  -0.816  0.00  0.00    -0.048 C 
ATOM     49  H30 MOL d          51.140  19.442  -1.304  0.00  0.00     0.030 H 
ATOM     50  H31 MOL d          52.277  20.583  -0.508  0.00  0.00     0.030 H 
ATOM     51  H32 MOL d          52.156  18.887   0.070  0.00  0.00     0.030 H 
ENDBRANCH  46  48
BRANCH  46  52
ATOM     52  C   MOL d          54.527  18.809  -1.033  0.00  0.00     0.196 C 
ATOM     53  O   MOL d          55.635  19.018  -1.570  0.00  0.00    -0.646 OA
ATOM     54  OXT MOL d          54.618  18.421   0.188  0.00  0.00    -0.646 OA
ENDBRANCH  46  52
ENDBRANCH  44  46
ENDBRANCH  27  42
ENDBRANCH  25  27
ENDBRANCH  22  25
ENDBRANCH   1  22
BRANCH   1  55
ATOM     55  CB  MOL d          50.571  16.212  -7.724  0.00  0.00    -0.011 C 
ATOM     56  H10 MOL d          51.200  15.693  -6.987  0.00  0.00     0.044 H 
ATOM     57  H11 MOL d          51.035  16.138  -8.719  0.00  0.00     0.044 H 
BRANCH  55  58
ATOM     58  CG  MOL d          49.180  15.613  -7.746  0.00  0.00    -0.056 A 
ATOM     59  CD1 MOL d          48.205  16.263  -6.978  0.00  0.00    -0.077 A 
ATOM     60  CE1 MOL d          46.887  15.789  -6.957  0.00  0.00    -0.082 A 
ATOM     61  H12 MOL d          48.472  17.137  -6.396  0.00  0.00     0.084 H 
ATOM     62  CZ  MOL d          46.574  14.670  -7.720  0.00  0.00    -0.083 A 
ATOM     63  H14 MOL d          46.130  16.283  -6.360  0.00  0.00     0.083 H 
ATOM     64  CE2 MOL d          47.567  14.032  -8.518  0.00  0.00    -0.082 A 
ATOM     65  H16 MOL d          45.564  14.278  -7.707  0.00  0.00     0.083 H 
ATOM     66  CD2 MOL d          48.879  14.530  -8.533  0.00  0.00    -0.077 A 
ATOM     67  H15 MOL d          47.310  13.164  -9.113  0.00  0.00     0.083 H 
ATOM     68  H13 MOL d          49.639  14.067  -9.153  0.00  0.00     0.084 H 
ENDBRANCH  55  58
ENDBRANCH   1  55
TORSDOF 17
ENDMDL
MODEL 5
REMARK VINA RESULT:      -6.7      3.510      8.751
REMARK  17 active torsions:
REMARK  status: ('A' for Active; 'I' for Inactive)
REMARK    1  A    between atoms: C_1  and  OA_3 
REMARK       I    between atoms: N_11  and  C_1 
REMARK    2  A    between atoms: OA_3  and  CB_4 
REMARK    3  A    between atoms: CB_4  and  CG_5 
REMARK    4  A    between atoms: CA_12  and  N_11 
REMARK    5  A    between atoms: P_13  and  CA_12 
REMARK    6  A    between atoms: CA_12  and  CB_16 
REMARK    7  A    between atoms: P_13  and  N_23 
REMARK    8  A    between atoms: CB_16  and  CG_17 
REMARK    9  A    between atoms: N_23  and  CA_24 
REMARK   10  A    between atoms: CA_24  and  CB_27 
REMARK   11  A    between atoms: CA_24  and  C_25 
REMARK       I    between atoms: C_25  and  N_31 
REMARK   12  A    between atoms: CB_27  and  CG_28 
REMARK   13  A    between atoms: CG_28  and  CD1_29 
REMARK   14  A    between atoms: CG_28  and  CD2_30 
REMARK   15  A    between atoms: N_31  and  CA_32 
REMARK   16  A    between atoms: CA_32  and  CB_35 
REMARK   17  A    between atoms: CA_32  and  C_33 
ROOT
ATOM      1  CA  MOL d          49.313  19.860 -10.087  0.00  0.00     0.112 C 
ATOM      2  H9  MOL d          49.014  20.919 -10.083  0.00  0.00     0.092 H 
ENDROOT
BRANCH   1   3
ATOM      3  N   MOL d          50.203  19.509  -8.944  0.00  0.00    -0.321 N 
ATOM      4  C   MOL d          50.532  20.414  -8.009  0.00  0.00     0.361 C 
ATOM      5  O   MOL d          50.213  21.652  -8.015  0.00  0.00    -0.238 OA
ATOM      6  H8  MOL d          50.562  18.580  -8.873  0.00  0.00     0.165 HD
BRANCH   4   7
ATOM      7  OA  MOL d          51.227  19.751  -7.020  0.00  0.00    -0.299 OA
BRANCH   7   8
ATOM      8  CB  MOL d          51.017  18.349  -6.786  0.00  0.00     0.054 C 
ATOM      9  H1  MOL d          51.287  17.750  -7.668  0.00  0.00     0.082 H 
ATOM     10  H2  MOL d          49.974  18.141  -6.505  0.00  0.00     0.082 H 
BRANCH   8  11
ATOM     11  CG  MOL d          51.944  18.092  -5.651  0.00  0.00    -0.034 A 
ATOM     12  CD1 MOL d          52.686  19.005  -4.894  0.00  0.00    -0.075 A 
ATOM     13  CE1 MOL d          53.503  18.636  -3.793  0.00  0.00    -0.082 A 
ATOM     14  H3  MOL d          52.633  20.055  -5.163  0.00  0.00     0.084 H 
ATOM     15  CZ  MOL d          53.602  17.383  -3.363  0.00  0.00    -0.083 A 
ATOM     16  H5  MOL d          54.070  19.407  -3.284  0.00  0.00     0.083 H 
ATOM     17  CE2 MOL d          52.880  16.572  -4.144  0.00  0.00    -0.082 A 
ATOM     18  H7  MOL d          54.182  17.064  -2.505  0.00  0.00     0.083 H 
ATOM     19  CD2 MOL d          52.039  16.816  -5.249  0.00  0.00    -0.075 A 
ATOM     20  H6  MOL d          52.956  15.524  -3.876  0.00  0.00     0.083 H 
ATOM     21  H4  MOL d          51.499  16.018  -5.746  0.00  0.00     0.084 H 
ENDBRANCH   8  11
ENDBRANCH   7   8
ENDBRANCH   4   7
ENDBRANCH   1   3
BRANCH   1  22
ATOM     22  P   MOL d          48.003  18.861  -9.964  0.00  0.00     0.229 P 
ATOM     23  OP1 MOL d          47.949  18.135  -8.566  0.00  0.00    -0.650 OA
ATOM     24  OP2 MOL d          46.642  19.597 -10.313  0.00  0.00    -0.650 OA
BRANCH  22  25
ATOM     25  N   MOL d          48.336  17.664 -11.399  0.00  0.00    -0.334 N 
ATOM     26  H17 MOL d          49.165  17.710 -11.955  0.00  0.00     0.164 HD
BRANCH  25  27
ATOM     27  CA  MOL d          47.285  16.663 -11.634  0.00  0.00     0.091 C 
ATOM     28  H18 MOL d          46.354  17.087 -11.231  0.00  0.00     0.087 H 
BRANCH  27  29
ATOM     29  CB  MOL d          47.074  16.367 -13.124  0.00  0.00    -0.035 C 
ATOM     30  H19 MOL d          46.506  17.199 -13.567  0.00  0.00     0.037 H 
ATOM     31  H20 MOL d          46.493  15.438 -13.216  0.00  0.00     0.037 H 
BRANCH  29  32
ATOM     32  CG  MOL d          48.363  16.205 -13.894  0.00  0.00    -0.059 C 
ATOM     33  H21 MOL d          49.238  16.186 -13.228  0.00  0.00     0.038 H 
BRANCH  32  34
ATOM     34  CD1 MOL d          48.335  14.905 -14.719  0.00  0.00    -0.073 C 
ATOM     35  H22 MOL d          47.312  14.500 -14.730  0.00  0.00     0.028 H 
ATOM     36  H23 MOL d          49.016  14.169 -14.266  0.00  0.00     0.028 H 
ATOM     37  H24 MOL d          48.657  15.116 -15.749  0.00  0.00     0.028 H 
ENDBRANCH  32  34
BRANCH  32  38
ATOM     38  CD2 MOL d          48.338  17.474 -14.719  0.00  0.00    -0.073 C 
ATOM     39  H25 MOL d          47.445  18.061 -14.460  0.00  0.00     0.028 H 
ATOM     40  H26 MOL d          48.310  17.217 -15.788  0.00  0.00     0.028 H 
ATOM     41  H27 MOL d          49.241  18.066 -14.507  0.00  0.00     0.028 H 
ENDBRANCH  32  38
ENDBRANCH  29  32
ENDBRANCH  27  29
BRANCH  27  42
ATOM     42  C   MOL d          47.511  15.302 -10.956  0.00  0.00     0.241 C 
ATOM     43  O   MOL d          46.885  14.295 -11.307  0.00  0.00    -0.271 OA
ATOM     44  N   MOL d          48.460  15.266 -10.041  0.00  0.00    -0.345 N 
ATOM     45  H28 MOL d          48.926  16.125  -9.830  0.00  0.00     0.163 HD
BRANCH  44  46
ATOM     46  CA  MOL d          48.889  14.062  -9.302  0.00  0.00     0.093 C 
ATOM     47  H29 MOL d          48.231  13.222  -9.568  0.00  0.00     0.089 H 
BRANCH  46  48
ATOM     48  CB  MOL d          50.311  13.729  -9.715  0.00  0.00    -0.048 C 
ATOM     49  H30 MOL d          50.444  12.637  -9.728  0.00  0.00     0.030 H 
ATOM     50  H31 MOL d          51.015  14.176  -8.997  0.00  0.00     0.030 H 
ATOM     51  H32 MOL d          50.507  14.134 -10.719  0.00  0.00     0.030 H 
ENDBRANCH  46  48
BRANCH  46  52
ATOM     52  C   MOL d          48.803  14.296  -7.773  0.00  0.00     0.196 C 
ATOM     53  O   MOL d          48.592  13.342  -6.996  0.00  0.00    -0.646 OA
ATOM     54  OXT MOL d          49.031  15.406  -7.168  0.00  0.00    -0.646 OA
ENDBRANCH  46  52
ENDBRANCH  44  46
ENDBRANCH  27  42
ENDBRANCH  25  27
ENDBRANCH  22  25
ENDBRANCH   1  22
BRANCH   1  55
ATOM     55  CB  MOL d          50.116  19.514 -11.295  0.00  0.00    -0.011 C 
ATOM     56  H10 MOL d          49.575  18.788 -11.919  0.00  0.00     0.044 H 
ATOM     57  H11 MOL d          51.088  19.092 -11.000  0.00  0.00     0.044 H 
BRANCH  55  58
ATOM     58  CG  MOL d          50.315  20.813 -12.050  0.00  0.00    -0.056 A 
ATOM     59  CD1 MOL d          51.242  21.715 -11.513  0.00  0.00    -0.077 A 
ATOM     60  CE1 MOL d          51.503  22.931 -12.157  0.00  0.00    -0.082 A 
ATOM     61  H12 MOL d          51.760  21.472 -10.592  0.00  0.00     0.084 H 
ATOM     62  CZ  MOL d          50.829  23.211 -13.339  0.00  0.00    -0.083 A 
ATOM     63  H14 MOL d          52.214  23.636 -11.743  0.00  0.00     0.083 H 
ATOM     64  CE2 MOL d          49.908  22.275 -13.891  0.00  0.00    -0.082 A 
ATOM     65  H16 MOL d          51.006  24.153 -13.847  0.00  0.00     0.083 H 
ATOM     66  CD2 MOL d          49.669  21.059 -13.235  0.00  0.00    -0.077 A 
ATOM     67  H15 MOL d          49.392  22.502 -14.817  0.00  0.00     0.083 H 
ATOM     68  H13 MOL d          48.987  20.328 -13.656  0.00  0.00     0.084 H 
ENDBRANCH  55  58
ENDBRANCH   1  55
TORSDOF 17
ENDMDL
MODEL 6
REMARK VINA RESULT:      -6.4      2.748      9.298
REMARK  17 active torsions:
REMARK  status: ('A' for Active; 'I' for Inactive)
REMARK    1  A    between atoms: C_1  and  OA_3 
REMARK       I    between atoms: N_11  and  C_1 
REMARK    2  A    between atoms: OA_3  and  CB_4 
REMARK    3  A    between atoms: CB_4  and  CG_5 
REMARK    4  A    between atoms: CA_12  and  N_11 
REMARK    5  A    between atoms: P_13  and  CA_12 
REMARK    6  A    between atoms: CA_12  and  CB_16 
REMARK    7  A    between atoms: P_13  and  N_23 
REMARK    8  A    between atoms: CB_16  and  CG_17 
REMARK    9  A    between atoms: N_23  and  CA_24 
REMARK   10  A    between atoms: CA_24  and  CB_27 
REMARK   11  A    between atoms: CA_24  and  C_25 
REMARK       I    between atoms: C_25  and  N_31 
REMARK   12  A    between atoms: CB_27  and  CG_28 
REMARK   13  A    between atoms: CG_28  and  CD1_29 
REMARK   14  A    between atoms: CG_28  and  CD2_30 
REMARK   15  A    between atoms: N_31  and  CA_32 
REMARK   16  A    between atoms: CA_32  and  CB_35 
REMARK   17  A    between atoms: CA_32  and  C_33 
ROOT
ATOM      1  CA  MOL d          50.397  18.103  -8.079  0.00  0.00     0.112 C 
ATOM      2  H9  MOL d          50.992  17.308  -8.552  0.00  0.00     0.092 H 
ENDROOT
BRANCH   1   3
ATOM      3  N   MOL d          51.057  18.676  -6.873  0.00  0.00    -0.321 N 
ATOM      4  C   MOL d          51.616  17.890  -5.940  0.00  0.00     0.361 C 
ATOM      5  O   MOL d          51.588  16.612  -5.918  0.00  0.00    -0.238 OA
ATOM      6  H8  MOL d          51.084  19.668  -6.756  0.00  0.00     0.165 HD
BRANCH   4   7
ATOM      7  OA  MOL d          52.269  18.711  -5.046  0.00  0.00    -0.299 OA
BRANCH   7   8
ATOM      8  CB  MOL d          53.527  18.320  -4.470  0.00  0.00     0.054 C 
ATOM      9  H1  MOL d          54.341  18.984  -4.796  0.00  0.00     0.082 H 
ATOM     10  H2  MOL d          53.778  17.279  -4.725  0.00  0.00     0.082 H 
BRANCH   8  11
ATOM     11  CG  MOL d          53.252  18.470  -3.016  0.00  0.00    -0.034 A 
ATOM     12  CD1 MOL d          52.409  17.714  -2.195  0.00  0.00    -0.075 A 
ATOM     13  CE1 MOL d          52.270  17.928  -0.799  0.00  0.00    -0.082 A 
ATOM     14  H3  MOL d          51.829  16.919  -2.652  0.00  0.00     0.084 H 
ATOM     15  CZ  MOL d          52.968  18.849  -0.142  0.00  0.00    -0.083 A 
ATOM     16  H5  MOL d          51.567  17.315  -0.245  0.00  0.00     0.083 H 
ATOM     17  CE2 MOL d          53.735  19.536  -0.995  0.00  0.00    -0.082 A 
ATOM     18  H7  MOL d          52.921  19.019   0.927  0.00  0.00     0.083 H 
ATOM     19  CD2 MOL d          53.955  19.419  -2.382  0.00  0.00    -0.075 A 
ATOM     20  H6  MOL d          54.295  20.339  -0.529  0.00  0.00     0.083 H 
ATOM     21  H4  MOL d          54.655  20.061  -2.907  0.00  0.00     0.084 H 
ENDBRANCH   8  11
ENDBRANCH   7   8
ENDBRANCH   4   7
ENDBRANCH   1   3
BRANCH   1  22
ATOM     22  P   MOL d          50.155  19.372  -9.110  0.00  0.00     0.229 P 
ATOM     23  OP1 MOL d          48.933  20.262  -8.664  0.00  0.00    -0.650 OA
ATOM     24  OP2 MOL d          51.470  20.227  -9.341  0.00  0.00    -0.650 OA
BRANCH  22  25
ATOM     25  N   MOL d          49.835  18.449 -10.738  0.00  0.00    -0.334 N 
ATOM     26  H17 MOL d          50.440  17.727 -11.072  0.00  0.00     0.164 HD
BRANCH  25  27
ATOM     27  CA  MOL d          48.634  18.873 -11.470  0.00  0.00     0.091 C 
ATOM     28  H18 MOL d          48.614  18.290 -12.403  0.00  0.00     0.087 H 
BRANCH  27  29
ATOM     29  CB  MOL d          47.340  18.587 -10.697  0.00  0.00    -0.035 C 
ATOM     30  H19 MOL d          46.789  19.531 -10.578  0.00  0.00     0.037 H 
ATOM     31  H20 MOL d          47.606  18.190  -9.706  0.00  0.00     0.037 H 
BRANCH  29  32
ATOM     32  CG  MOL d          46.436  17.590 -11.384  0.00  0.00    -0.059 C 
ATOM     33  H21 MOL d          45.378  17.761 -11.139  0.00  0.00     0.038 H 
BRANCH  32  34
ATOM     34  CD1 MOL d          46.615  17.668 -12.912  0.00  0.00    -0.073 C 
ATOM     35  H22 MOL d          45.736  18.156 -13.359  0.00  0.00     0.028 H 
ATOM     36  H23 MOL d          46.719  16.653 -13.321  0.00  0.00     0.028 H 
ATOM     37  H24 MOL d          47.517  18.253 -13.146  0.00  0.00     0.028 H 
ENDBRANCH  32  34
BRANCH  32  38
ATOM     38  CD2 MOL d          46.936  16.306 -10.757  0.00  0.00    -0.073 C 
ATOM     39  H25 MOL d          46.902  16.396  -9.661  0.00  0.00     0.028 H 
ATOM     40  H26 MOL d          47.973  16.121 -11.076  0.00  0.00     0.028 H 
ATOM     41  H27 MOL d          46.299  15.469 -11.078  0.00  0.00     0.028 H 
ENDBRANCH  32  38
ENDBRANCH  29  32
ENDBRANCH  27  29
BRANCH  27  42
ATOM     42  C   MOL d          48.585  20.363 -11.847  0.00  0.00     0.241 C 
ATOM     43  O   MOL d          47.510  20.962 -11.970  0.00  0.00    -0.271 OA
ATOM     44  N   MOL d          49.752  20.966 -11.953  0.00  0.00    -0.345 N 
ATOM     45  H28 MOL d          50.572  20.408 -11.823  0.00  0.00     0.163 HD
BRANCH  44  46
ATOM     46  CA  MOL d          49.949  22.400 -12.249  0.00  0.00     0.093 C 
ATOM     47  H29 MOL d          49.153  22.981 -11.760  0.00  0.00     0.089 H 
BRANCH  46  48
ATOM     48  CB  MOL d          51.293  22.825 -11.686  0.00  0.00    -0.048 C 
ATOM     49  H30 MOL d          51.956  23.126 -12.510  0.00  0.00     0.030 H 
ATOM     50  H31 MOL d          51.745  21.984 -11.140  0.00  0.00     0.030 H 
ATOM     51  H32 MOL d          51.151  23.673 -10.999  0.00  0.00     0.030 H 
ENDBRANCH  46  48
BRANCH  46  52
ATOM     52  C   MOL d          49.888  22.659 -13.775  0.00  0.00     0.196 C 
ATOM     53  O   MOL d          49.382  23.709 -14.221  0.00  0.00    -0.646 OA
ATOM     54  OXT MOL d          50.413  21.920 -14.685  0.00  0.00    -0.646 OA
ENDBRANCH  46  52
ENDBRANCH  44  46
ENDBRANCH  27  42
ENDBRANCH  25  27
ENDBRANCH  22  25
ENDBRANCH   1  22
BRANCH   1  55
ATOM     55  CB  MOL d          49.090  17.591  -7.572  0.00  0.00    -0.011 C 
ATOM     56  H10 MOL d          48.258  18.126  -8.053  0.00  0.00     0.044 H 
ATOM     57  H11 MOL d          49.027  17.719  -6.482  0.00  0.00     0.044 H 
BRANCH  55  58
ATOM     58  CG  MOL d          49.049  16.121  -7.934  0.00  0.00    -0.056 A 
ATOM     59  CD1 MOL d          47.992  15.373  -7.399  0.00  0.00    -0.077 A 
ATOM     60  CE1 MOL d          47.865  14.010  -7.699  0.00  0.00    -0.082 A 
ATOM     61  H12 MOL d          47.268  15.851  -6.749  0.00  0.00     0.084 H 
ATOM     62  CZ  MOL d          48.805  13.428  -8.541  0.00  0.00    -0.083 A 
ATOM     63  H14 MOL d          47.054  13.424  -7.283  0.00  0.00     0.083 H 
ATOM     64  CE2 MOL d          49.861  14.204  -9.101  0.00  0.00    -0.082 A 
ATOM     65  H16 MOL d          48.733  12.372  -8.775  0.00  0.00     0.083 H 
ATOM     66  CD2 MOL d          49.963  15.569  -8.796  0.00  0.00    -0.077 A 
ATOM     67  H15 MOL d          50.584  13.740  -9.761  0.00  0.00     0.083 H 
ATOM     68  H13 MOL d          50.749  16.176  -9.233  0.00  0.00     0.084 H 
ENDBRANCH  55  58
ENDBRANCH   1  55
TORSDOF 17
ENDMDL
MODEL 7
REMARK VINA RESULT:      -5.8      2.098      9.007
REMARK  17 active torsions:
REMARK  status: ('A' for Active; 'I' for Inactive)
REMARK    1  A    between atoms: C_1  and  OA_3 
REMARK       I    between atoms: N_11  and  C_1 
REMARK    2  A    between atoms: OA_3  and  CB_4 
REMARK    3  A    between atoms: CB_4  and  CG_5 
REMARK    4  A    between atoms: CA_12  and  N_11 
REMARK    5  A    between atoms: P_13  and  CA_12 
REMARK    6  A    between atoms: CA_12  and  CB_16 
REMARK    7  A    between atoms: P_13  and  N_23 
REMARK    8  A    between atoms: CB_16  and  CG_17 
REMARK    9  A    between atoms: N_23  and  CA_24 
REMARK   10  A    between atoms: CA_24  and  CB_27 
REMARK   11  A    between atoms: CA_24  and  C_25 
REMARK       I    between atoms: C_25  and  N_31 
REMARK   12  A    between atoms: CB_27  and  CG_28 
REMARK   13  A    between atoms: CG_28  and  CD1_29 
REMARK   14  A    between atoms: CG_28  and  CD2_30 
REMARK   15  A    between atoms: N_31  and  CA_32 
REMARK   16  A    between atoms: CA_32  and  CB_35 
REMARK   17  A    between atoms: CA_32  and  C_33 
ROOT
ATOM      1  CA  MOL d          52.075  16.364  -5.877  0.00  0.00     0.112 C 
ATOM      2  H9  MOL d          53.025  16.301  -6.429  0.00  0.00     0.092 H 
ENDROOT
BRANCH   1   3
ATOM      3  N   MOL d          52.212  17.080  -4.578  0.00  0.00    -0.321 N 
ATOM      4  C   MOL d          53.137  18.036  -4.398  0.00  0.00     0.361 C 
ATOM      5  O   MOL d          54.030  18.386  -5.243  0.00  0.00    -0.238 OA
ATOM      6  H8  MOL d          51.602  16.842  -3.823  0.00  0.00     0.165 HD
BRANCH   4   7
ATOM      7  OA  MOL d          52.909  18.604  -3.163  0.00  0.00    -0.299 OA
BRANCH   7   8
ATOM      8  CB  MOL d          53.893  19.454  -2.551  0.00  0.00     0.054 C 
ATOM      9  H1  MOL d          53.610  20.514  -2.627  0.00  0.00     0.082 H 
ATOM     10  H2  MOL d          54.886  19.306  -3.000  0.00  0.00     0.082 H 
BRANCH   8  11
ATOM     11  CG  MOL d          53.861  18.985  -1.140  0.00  0.00    -0.034 A 
ATOM     12  CD1 MOL d          52.796  18.435  -0.418  0.00  0.00    -0.075 A 
ATOM     13  CE1 MOL d          52.907  17.974   0.920  0.00  0.00    -0.082 A 
ATOM     14  H3  MOL d          51.832  18.356  -0.908  0.00  0.00     0.084 H 
ATOM     15  CZ  MOL d          54.054  17.991   1.591  0.00  0.00    -0.083 A 
ATOM     16  H5  MOL d          52.020  17.593   1.415  0.00  0.00     0.083 H 
ATOM     17  CE2 MOL d          55.014  18.543   0.842  0.00  0.00    -0.082 A 
ATOM     18  H7  MOL d          54.191  17.614   2.598  0.00  0.00     0.083 H 
ATOM     19  CD2 MOL d          55.027  19.030  -0.480  0.00  0.00    -0.075 A 
ATOM     20  H6  MOL d          55.968  18.632   1.351  0.00  0.00     0.083 H 
ATOM     21  H4  MOL d          55.929  19.420  -0.939  0.00  0.00     0.084 H 
ENDBRANCH   8  11
ENDBRANCH   7   8
ENDBRANCH   4   7
ENDBRANCH   1   3
BRANCH   1  22
ATOM     22  P   MOL d          50.931  17.193  -6.733  0.00  0.00     0.229 P 
ATOM     23  OP1 MOL d          49.478  16.912  -6.192  0.00  0.00    -0.650 OA
ATOM     24  OP2 MOL d          51.248  18.744  -6.829  0.00  0.00    -0.650 OA
BRANCH  22  25
ATOM     25  N   MOL d          51.214  16.490  -8.474  0.00  0.00    -0.334 N 
ATOM     26  H17 MOL d          52.101  16.141  -8.774  0.00  0.00     0.164 HD
BRANCH  25  27
ATOM     27  CA  MOL d          50.033  16.495  -9.348  0.00  0.00     0.091 C 
ATOM     28  H18 MOL d          50.392  16.257 -10.360  0.00  0.00     0.087 H 
BRANCH  27  29
ATOM     29  CB  MOL d          48.995  15.440  -8.945  0.00  0.00    -0.035 C 
ATOM     30  H19 MOL d          48.279  15.323  -9.772  0.00  0.00     0.037 H 
ATOM     31  H20 MOL d          48.466  15.795  -8.049  0.00  0.00     0.037 H 
BRANCH  29  32
ATOM     32  CG  MOL d          49.598  14.088  -8.640  0.00  0.00    -0.059 C 
ATOM     33  H21 MOL d          50.636  14.175  -8.287  0.00  0.00     0.038 H 
BRANCH  32  34
ATOM     34  CD1 MOL d          48.765  13.358  -7.572  0.00  0.00    -0.073 C 
ATOM     35  H22 MOL d          49.201  13.540  -6.579  0.00  0.00     0.028 H 
ATOM     36  H23 MOL d          48.766  12.278  -7.781  0.00  0.00     0.028 H 
ATOM     37  H24 MOL d          47.731  13.734  -7.593  0.00  0.00     0.028 H 
ENDBRANCH  32  34
BRANCH  32  38
ATOM     38  CD2 MOL d          49.546  13.462 -10.017  0.00  0.00    -0.073 C 
ATOM     39  H25 MOL d          48.868  14.043 -10.659  0.00  0.00     0.028 H 
ATOM     40  H26 MOL d          49.178  12.428  -9.937  0.00  0.00     0.028 H 
ATOM     41  H27 MOL d          50.555  13.458 -10.456  0.00  0.00     0.028 H 
ENDBRANCH  32  38
ENDBRANCH  29  32
ENDBRANCH  27  29
BRANCH  27  42
ATOM     42  C   MOL d          49.276  17.831  -9.423  0.00  0.00     0.241 C 
ATOM     43  O   MOL d          48.114  17.938  -9.014  0.00  0.00    -0.271 OA
ATOM     44  N   MOL d          49.968  18.858  -9.875  0.00  0.00    -0.345 N 
ATOM     45  H28 MOL d          50.908  18.685 -10.171  0.00  0.00     0.163 HD
BRANCH  44  46
ATOM     46  CA  MOL d          49.469  20.244  -9.981  0.00  0.00     0.093 C 
ATOM     47  H29 MOL d          48.395  20.260  -9.748  0.00  0.00     0.089 H 
BRANCH  46  48
ATOM     48  CB  MOL d          50.210  21.099  -8.969  0.00  0.00    -0.048 C 
ATOM     49  H30 MOL d          51.024  21.640  -9.472  0.00  0.00     0.030 H 
ATOM     50  H31 MOL d          50.629  20.454  -8.182  0.00  0.00     0.030 H 
ATOM     51  H32 MOL d          49.513  21.821  -8.518  0.00  0.00     0.030 H 
ENDBRANCH  46  48
BRANCH  46  52
ATOM     52  C   MOL d          49.674  20.793 -11.415  0.00  0.00     0.196 C 
ATOM     53  O   MOL d          48.745  21.378 -12.010  0.00  0.00    -0.646 OA
ATOM     54  OXT MOL d          50.781  20.802 -12.066  0.00  0.00    -0.646 OA
ENDBRANCH  46  52
ENDBRANCH  44  46
ENDBRANCH  27  42
ENDBRANCH  25  27
ENDBRANCH  22  25
ENDBRANCH   1  22
BRANCH   1  55
ATOM     55  CB  MOL d          51.563  15.015  -5.499  0.00  0.00    -0.011 C 
ATOM     56  H10 MOL d          51.371  14.413  -6.399  0.00  0.00     0.044 H 
ATOM     57  H11 MOL d          50.635  15.108  -4.916  0.00  0.00     0.044 H 
BRANCH  55  58
ATOM     58  CG  MOL d          52.650  14.375  -4.660  0.00  0.00    -0.056 A 
ATOM     59  CD1 MOL d          52.678  14.717  -3.302  0.00  0.00    -0.077 A 
ATOM     60  CE1 MOL d          53.636  14.156  -2.448  0.00  0.00    -0.082 A 
ATOM     61  H12 MOL d          51.953  15.421  -2.909  0.00  0.00     0.084 H 
ATOM     62  CZ  MOL d          54.547  13.251  -2.980  0.00  0.00    -0.083 A 
ATOM     63  H14 MOL d          53.666  14.422  -1.398  0.00  0.00     0.083 H 
ATOM     64  CE2 MOL d          54.493  12.890  -4.358  0.00  0.00    -0.082 A 
ATOM     65  H16 MOL d          55.306  12.816  -2.341  0.00  0.00     0.083 H 
ATOM     66  CD2 MOL d          53.519  13.456  -5.193  0.00  0.00    -0.077 A 
ATOM     67  H15 MOL d          55.206  12.179  -4.760  0.00  0.00     0.083 H 
ATOM     68  H13 MOL d          53.453  13.173  -6.237  0.00  0.00     0.084 H 
ENDBRANCH  55  58
ENDBRANCH   1  55
TORSDOF 17
ENDMDL
MODEL 8
REMARK VINA RESULT:      -5.6      2.751      6.953
REMARK  17 active torsions:
REMARK  status: ('A' for Active; 'I' for Inactive)
REMARK    1  A    between atoms: C_1  and  OA_3 
REMARK       I    between atoms: N_11  and  C_1 
REMARK    2  A    between atoms: OA_3  and  CB_4 
REMARK    3  A    between atoms: CB_4  and  CG_5 
REMARK    4  A    between atoms: CA_12  and  N_11 
REMARK    5  A    between atoms: P_13  and  CA_12 
REMARK    6  A    between atoms: CA_12  and  CB_16 
REMARK    7  A    between atoms: P_13  and  N_23 
REMARK    8  A    between atoms: CB_16  and  CG_17 
REMARK    9  A    between atoms: N_23  and  CA_24 
REMARK   10  A    between atoms: CA_24  and  CB_27 
REMARK   11  A    between atoms: CA_24  and  C_25 
REMARK       I    between atoms: C_25  and  N_31 
REMARK   12  A    between atoms: CB_27  and  CG_28 
REMARK   13  A    between atoms: CG_28  and  CD1_29 
REMARK   14  A    between atoms: CG_28  and  CD2_30 
REMARK   15  A    between atoms: N_31  and  CA_32 
REMARK   16  A    between atoms: CA_32  and  CB_35 
REMARK   17  A    between atoms: CA_32  and  C_33 
ROOT
ATOM      1  CA  MOL d          52.782  18.126  -3.520  0.00  0.00     0.112 C 
ATOM      2  H9  MOL d          53.520  18.932  -3.645  0.00  0.00     0.092 H 
ENDROOT
BRANCH   1   3
ATOM      3  N   MOL d          51.734  18.136  -4.579  0.00  0.00    -0.321 N 
ATOM      4  C   MOL d          51.949  18.713  -5.771  0.00  0.00     0.361 C 
ATOM      5  O   MOL d          52.991  19.369  -6.113  0.00  0.00    -0.238 OA
ATOM      6  H8  MOL d          50.852  17.703  -4.397  0.00  0.00     0.165 HD
BRANCH   4   7
ATOM      7  OA  MOL d          50.864  18.422  -6.571  0.00  0.00    -0.299 OA
BRANCH   7   8
ATOM      8  CB  MOL d          50.662  17.095  -7.083  0.00  0.00     0.054 C 
ATOM      9  H1  MOL d          50.783  16.338  -6.294  0.00  0.00     0.082 H 
ATOM     10  H2  MOL d          51.350  16.875  -7.912  0.00  0.00     0.082 H 
BRANCH   8  11
ATOM     11  CG  MOL d          49.253  17.166  -7.554  0.00  0.00    -0.034 A 
ATOM     12  CD1 MOL d          48.732  17.805  -8.684  0.00  0.00    -0.075 A 
ATOM     13  CE1 MOL d          47.362  17.757  -9.055  0.00  0.00    -0.082 A 
ATOM     14  H3  MOL d          49.413  18.370  -9.311  0.00  0.00     0.084 H 
ATOM     15  CZ  MOL d          46.460  17.059  -8.374  0.00  0.00    -0.083 A 
ATOM     16  H5  MOL d          47.040  18.311  -9.930  0.00  0.00     0.083 H 
ATOM     17  CE2 MOL d          47.030  16.492  -7.306  0.00  0.00    -0.082 A 
ATOM     18  H7  MOL d          45.414  16.963  -8.645  0.00  0.00     0.083 H 
ATOM     19  CD2 MOL d          48.359  16.468  -6.838  0.00  0.00    -0.075 A 
ATOM     20  H6  MOL d          46.335  15.946  -6.678  0.00  0.00     0.083 H 
ATOM     21  H4  MOL d          48.644  15.916  -5.949  0.00  0.00     0.084 H 
ENDBRANCH   8  11
ENDBRANCH   7   8
ENDBRANCH   4   7
ENDBRANCH   1   3
BRANCH   1  22
ATOM     22  P   MOL d          53.493  16.637  -3.599  0.00  0.00     0.229 P 
ATOM     23  OP1 MOL d          54.978  16.725  -4.121  0.00  0.00    -0.650 OA
ATOM     24  OP2 MOL d          53.380  15.835  -2.236  0.00  0.00    -0.650 OA
BRANCH  22  25
ATOM     25  N   MOL d          52.337  15.759  -4.823  0.00  0.00    -0.334 N 
ATOM     26  H17 MOL d          51.618  16.241  -5.322  0.00  0.00     0.164 HD
BRANCH  25  27
ATOM     27  CA  MOL d          52.577  14.318  -4.983  0.00  0.00     0.091 C 
ATOM     28  H18 MOL d          53.578  14.215  -5.426  0.00  0.00     0.087 H 
BRANCH  27  29
ATOM     29  CB  MOL d          52.563  13.565  -3.647  0.00  0.00    -0.035 C 
ATOM     30  H19 MOL d          51.641  12.967  -3.593  0.00  0.00     0.037 H 
ATOM     31  H20 MOL d          52.569  14.302  -2.831  0.00  0.00     0.037 H 
BRANCH  29  32
ATOM     32  CG  MOL d          53.743  12.640  -3.464  0.00  0.00    -0.059 C 
ATOM     33  H21 MOL d          53.533  11.629  -3.844  0.00  0.00     0.038 H 
BRANCH  32  34
ATOM     34  CD1 MOL d          54.980  13.200  -4.190  0.00  0.00    -0.073 C 
ATOM     35  H22 MOL d          54.903  12.985  -5.266  0.00  0.00     0.028 H 
ATOM     36  H23 MOL d          55.888  12.728  -3.786  0.00  0.00     0.028 H 
ATOM     37  H24 MOL d          55.034  14.288  -4.036  0.00  0.00     0.028 H 
ENDBRANCH  32  34
BRANCH  32  38
ATOM     38  CD2 MOL d          53.845  12.639  -1.954  0.00  0.00    -0.073 C 
ATOM     39  H25 MOL d          53.566  11.648  -1.568  0.00  0.00     0.028 H 
ATOM     40  H26 MOL d          53.165  13.398  -1.540  0.00  0.00     0.028 H 
ATOM     41  H27 MOL d          54.878  12.872  -1.656  0.00  0.00     0.028 H 
ENDBRANCH  32  38
ENDBRANCH  29  32
ENDBRANCH  27  29
BRANCH  27  42
ATOM     42  C   MOL d          51.583  13.584  -5.897  0.00  0.00     0.241 C 
ATOM     43  O   MOL d          50.683  12.873  -5.433  0.00  0.00    -0.271 OA
ATOM     44  N   MOL d          51.706  13.822  -7.188  0.00  0.00    -0.345 N 
ATOM     45  H28 MOL d          52.453  14.422  -7.475  0.00  0.00     0.163 HD
BRANCH  44  46
ATOM     46  CA  MOL d          50.831  13.275  -8.245  0.00  0.00     0.093 C 
ATOM     47  H29 MOL d          51.188  12.275  -8.527  0.00  0.00     0.089 H 
BRANCH  46  48
ATOM     48  CB  MOL d          49.423  13.163  -7.690  0.00  0.00    -0.048 C 
ATOM     49  H30 MOL d          48.697  13.406  -8.480  0.00  0.00     0.030 H 
ATOM     50  H31 MOL d          49.302  13.865  -6.852  0.00  0.00     0.030 H 
ATOM     51  H32 MOL d          49.249  12.136  -7.335  0.00  0.00     0.030 H 
ENDBRANCH  46  48
BRANCH  46  52
ATOM     52  C   MOL d          50.854  14.184  -9.500  0.00  0.00     0.196 C 
ATOM     53  O   MOL d          49.817  14.767  -9.881  0.00  0.00    -0.646 OA
ATOM     54  OXT MOL d          51.896  14.501 -10.180  0.00  0.00    -0.646 OA
ENDBRANCH  46  52
ENDBRANCH  44  46
ENDBRANCH  27  42
ENDBRANCH  25  27
ENDBRANCH  22  25
ENDBRANCH   1  22
BRANCH   1  55
ATOM     55  CB  MOL d          52.017  18.268  -2.247  0.00  0.00    -0.011 C 
ATOM     56  H10 MOL d          51.415  17.366  -2.061  0.00  0.00     0.044 H 
ATOM     57  H11 MOL d          51.357  19.146  -2.294  0.00  0.00     0.044 H 
BRANCH  55  58
ATOM     58  CG  MOL d          53.052  18.445  -1.155  0.00  0.00    -0.056 A 
ATOM     59  CD1 MOL d          54.173  19.221  -1.473  0.00  0.00    -0.077 A 
ATOM     60  CE1 MOL d          55.170  19.454  -0.517  0.00  0.00    -0.082 A 
ATOM     61  H12 MOL d          54.272  19.643  -2.467  0.00  0.00     0.084 H 
ATOM     62  CZ  MOL d          55.011  18.905   0.750  0.00  0.00    -0.083 A 
ATOM     63  H14 MOL d          56.043  20.048  -0.759  0.00  0.00     0.083 H 
ATOM     64  CE2 MOL d          53.853  18.140   1.072  0.00  0.00    -0.082 A 
ATOM     65  H16 MOL d          55.776  19.062   1.502  0.00  0.00     0.083 H 
ATOM     66  CD2 MOL d          52.863  17.927   0.102  0.00  0.00    -0.077 A 
ATOM     67  H15 MOL d          53.738  17.721   2.065  0.00  0.00     0.083 H 
ATOM     68  H13 MOL d          51.967  17.365   0.341  0.00  0.00     0.084 H 
ENDBRANCH  55  58
ENDBRANCH   1  55
TORSDOF 17
ENDMDL
