MODEL 1
REMARK VINA RESULT:      -5.7      0.000      0.000
REMARK  5 active torsions:
REMARK  status: ('A' for Active; 'I' for Inactive)
REMARK    1  A    between atoms: S1_9  and  N1_1 
REMARK    2  A    between atoms: C5_5  and  O3_15 
REMARK    3  A    between atoms: O3_15  and  C8_6 
REMARK    4  A    between atoms: C8_6  and  C9_16 
REMARK    5  A    between atoms: C1_10  and  S1_9 
ROOT
ATOM      1  C2  EZL d          -3.437   3.734  15.312  0.00  0.00     0.076 A 
ATOM      2  C3  EZL d          -4.644   4.397  15.087  0.00  0.00     0.039 A 
ATOM      3  C4  EZL d          -4.629   5.706  14.539  0.00  0.00    -0.032 A 
ATOM      4  C5  EZL d          -3.287   6.157  14.308  0.00  0.00     0.070 A 
ATOM      5  C1  EZL d          -4.935   2.228  15.971  0.00  0.00     0.214 A 
ATOM      6  N2  EZL d          -3.630   2.482  15.881  0.00  0.00    -0.227 NA
ATOM      7  S2  EZL d          -5.954   3.450  15.474  0.00  0.00    -0.054 SA
ATOM      8  C6  EZL d          -2.050   5.542  14.538  0.00  0.00    -0.049 A 
ATOM      9  C7  EZL d          -2.110   4.222  15.098  0.00  0.00    -0.051 A 
ATOM     10  H3  EZL d          -5.517   6.289  14.321  0.00  0.00     0.090 H 
ATOM     11  H6  EZL d          -1.109   6.030  14.308  0.00  0.00     0.087 H 
ATOM     12  H7  EZL d          -1.225   3.644  15.339  0.00  0.00     0.087 H 
ENDROOT
BRANCH   4  13
ATOM     13  O3  EZL d          -3.221   7.427  13.720  0.00  0.00    -0.351 OA
BRANCH  13  14
ATOM     14  C8  EZL d          -2.012   8.288  13.810  0.00  0.00     0.023 C 
ATOM     15  H4  EZL d          -1.975   8.953  12.935  0.00  0.00     0.074 H 
ATOM     16  H5  EZL d          -1.115   7.652  13.825  0.00  0.00     0.074 H 
BRANCH  14  17
ATOM     17  C9  EZL d          -2.049   9.139  15.089  0.00  0.00    -0.056 C 
ATOM     18  H8  EZL d          -1.449   8.651  15.872  0.00  0.00     0.030 H 
ATOM     19  H9  EZL d          -3.089   9.239  15.433  0.00  0.00     0.030 H 
ATOM     20  H10 EZL d          -1.635  10.136  14.879  0.00  0.00     0.030 H 
ENDBRANCH  14  17
ENDBRANCH  13  14
ENDBRANCH   4  13
BRANCH   5  21
ATOM     21  S1  EZL d          -5.584   0.691  16.621  0.00  0.00     0.281 S 
ATOM     22  O1  EZL d          -5.249   0.731  18.013  0.00  0.00    -0.199 OA
ATOM     23  O2  EZL d          -6.984   0.768  16.318  0.00  0.00    -0.199 OA
BRANCH  21  24
ATOM     24  N1  EZL d          -4.839  -0.470  15.861  0.00  0.00    -0.323 N 
ATOM     25  H1  EZL d          -3.981  -0.284  15.381  0.00  0.00     0.169 HD
ATOM     26  H2  EZL d          -5.224  -1.393  15.858  0.00  0.00     0.169 HD
ENDBRANCH  21  24
ENDBRANCH   5  21
TORSDOF 5
ENDMDL
MODEL 2
REMARK VINA RESULT:      -5.1      3.163      6.547
REMARK  5 active torsions:
REMARK  status: ('A' for Active; 'I' for Inactive)
REMARK    1  A    between atoms: S1_9  and  N1_1 
REMARK    2  A    between atoms: C5_5  and  O3_15 
REMARK    3  A    between atoms: O3_15  and  C8_6 
REMARK    4  A    between atoms: C8_6  and  C9_16 
REMARK    5  A    between atoms: C1_10  and  S1_9 
ROOT
ATOM      1  C2  EZL d          -4.600   5.301  14.804  0.00  0.00     0.076 A 
ATOM      2  C3  EZL d          -3.641   4.287  14.815  0.00  0.00     0.039 A 
ATOM      3  C4  EZL d          -4.037   2.957  15.115  0.00  0.00    -0.032 A 
ATOM      4  C5  EZL d          -5.444   2.883  15.386  0.00  0.00     0.070 A 
ATOM      5  C1  EZL d          -2.742   6.397  14.258  0.00  0.00     0.214 A 
ATOM      6  N2  EZL d          -4.039   6.542  14.525  0.00  0.00    -0.227 NA
ATOM      7  S2  EZL d          -2.135   4.850  14.395  0.00  0.00    -0.054 SA
ATOM      8  C6  EZL d          -6.437   3.870  15.410  0.00  0.00    -0.049 A 
ATOM      9  C7  EZL d          -5.992   5.201  15.107  0.00  0.00    -0.051 A 
ATOM     10  H3  EZL d          -3.364   2.108  15.136  0.00  0.00     0.090 H 
ATOM     11  H6  EZL d          -7.472   3.645  15.642  0.00  0.00     0.087 H 
ATOM     12  H7  EZL d          -6.657   6.058  15.107  0.00  0.00     0.087 H 
ENDROOT
BRANCH   4  13
ATOM     13  O3  EZL d          -5.893   1.580  15.640  0.00  0.00    -0.351 OA
BRANCH  13  14
ATOM     14  C8  EZL d          -5.516   0.828  16.866  0.00  0.00     0.023 C 
ATOM     15  H4  EZL d          -4.440   0.956  17.053  0.00  0.00     0.074 H 
ATOM     16  H5  EZL d          -5.738  -0.239  16.718  0.00  0.00     0.074 H 
BRANCH  14  17
ATOM     17  C9  EZL d          -6.304   1.345  18.079  0.00  0.00    -0.056 C 
ATOM     18  H8  EZL d          -6.708   2.343  17.856  0.00  0.00     0.030 H 
ATOM     19  H9  EZL d          -5.637   1.405  18.952  0.00  0.00     0.030 H 
ATOM     20  H10 EZL d          -7.133   0.656  18.299  0.00  0.00     0.030 H 
ENDBRANCH  14  17
ENDBRANCH  13  14
ENDBRANCH   4  13
BRANCH   5  21
ATOM     21  S1  EZL d          -1.681   7.770  13.816  0.00  0.00     0.281 S 
ATOM     22  O1  EZL d          -1.415   8.421  15.064  0.00  0.00    -0.199 OA
ATOM     23  O2  EZL d          -0.555   7.132  13.196  0.00  0.00    -0.199 OA
BRANCH  21  24
ATOM     24  N1  EZL d          -2.509   8.679  12.833  0.00  0.00    -0.323 N 
ATOM     25  H1  EZL d          -2.530   8.469  11.855  0.00  0.00     0.169 HD
ATOM     26  H2  EZL d          -3.013   9.467  13.186  0.00  0.00     0.169 HD
ENDBRANCH  21  24
ENDBRANCH   5  21
TORSDOF 5
ENDMDL
MODEL 3
REMARK VINA RESULT:      -5.1      1.743      2.221
REMARK  5 active torsions:
REMARK  status: ('A' for Active; 'I' for Inactive)
REMARK    1  A    between atoms: S1_9  and  N1_1 
REMARK    2  A    between atoms: C5_5  and  O3_15 
REMARK    3  A    between atoms: O3_15  and  C8_6 
REMARK    4  A    between atoms: C8_6  and  C9_16 
REMARK    5  A    between atoms: C1_10  and  S1_9 
ROOT
ATOM      1  C2  EZL d          -4.254   4.857  13.684  0.00  0.00     0.076 A 
ATOM      2  C3  EZL d          -3.014   5.001  14.309  0.00  0.00     0.039 A 
ATOM      3  C4  EZL d          -2.261   6.185  14.097  0.00  0.00    -0.032 A 
ATOM      4  C5  EZL d          -2.941   7.081  13.206  0.00  0.00     0.070 A 
ATOM      5  C1  EZL d          -4.083   2.967  14.845  0.00  0.00     0.214 A 
ATOM      6  N2  EZL d          -4.840   3.630  13.972  0.00  0.00    -0.227 NA
ATOM      7  S2  EZL d          -2.657   3.707  15.289  0.00  0.00    -0.054 SA
ATOM      8  C6  EZL d          -4.168   6.972  12.539  0.00  0.00    -0.049 A 
ATOM      9  C7  EZL d          -4.895   5.756  12.778  0.00  0.00    -0.051 A 
ATOM     10  H3  EZL d          -1.297   6.387  14.549  0.00  0.00     0.090 H 
ATOM     11  H6  EZL d          -4.544   7.751  11.887  0.00  0.00     0.087 H 
ATOM     12  H7  EZL d          -5.848   5.540  12.310  0.00  0.00     0.087 H 
ENDROOT
BRANCH   4  13
ATOM     13  O3  EZL d          -2.259   8.289  13.004  0.00  0.00    -0.351 OA
BRANCH  13  14
ATOM     14  C8  EZL d          -1.193   8.769  13.922  0.00  0.00     0.023 C 
ATOM     15  H4  EZL d          -0.496   9.410  13.363  0.00  0.00     0.074 H 
ATOM     16  H5  EZL d          -0.650   7.904  14.329  0.00  0.00     0.074 H 
BRANCH  14  17
ATOM     17  C9  EZL d          -1.802   9.575  15.080  0.00  0.00    -0.056 C 
ATOM     18  H8  EZL d          -2.258   8.886  15.806  0.00  0.00     0.030 H 
ATOM     19  H9  EZL d          -2.571  10.257  14.688  0.00  0.00     0.030 H 
ATOM     20  H10 EZL d          -1.012  10.158  15.575  0.00  0.00     0.030 H 
ENDBRANCH  14  17
ENDBRANCH  13  14
ENDBRANCH   4  13
BRANCH   5  21
ATOM     21  S1  EZL d          -4.527   1.356  15.489  0.00  0.00     0.281 S 
ATOM     22  O1  EZL d          -3.583   1.129  16.541  0.00  0.00    -0.199 OA
ATOM     23  O2  EZL d          -5.890   1.528  15.904  0.00  0.00    -0.199 OA
BRANCH  21  24
ATOM     24  N1  EZL d          -4.356   0.335  14.303  0.00  0.00    -0.323 N 
ATOM     25  H1  EZL d          -4.717   0.556  13.397  0.00  0.00     0.169 HD
ATOM     26  H2  EZL d          -3.886  -0.535  14.455  0.00  0.00     0.169 HD
ENDBRANCH  21  24
ENDBRANCH   5  21
TORSDOF 5
ENDMDL
MODEL 4
REMARK VINA RESULT:      -4.9      2.929      6.437
REMARK  5 active torsions:
REMARK  status: ('A' for Active; 'I' for Inactive)
REMARK    1  A    between atoms: S1_9  and  N1_1 
REMARK    2  A    between atoms: C5_5  and  O3_15 
REMARK    3  A    between atoms: O3_15  and  C8_6 
REMARK    4  A    between atoms: C8_6  and  C9_16 
REMARK    5  A    between atoms: C1_10  and  S1_9 
ROOT
ATOM      1  C2  EZL d          -4.048   2.976  13.466  0.00  0.00     0.076 A 
ATOM      2  C3  EZL d          -4.070   3.331  14.816  0.00  0.00     0.039 A 
ATOM      3  C4  EZL d          -4.374   2.344  15.790  0.00  0.00    -0.032 A 
ATOM      4  C5  EZL d          -4.637   1.074  15.178  0.00  0.00     0.070 A 
ATOM      5  C1  EZL d          -3.509   5.134  13.400  0.00  0.00     0.214 A 
ATOM      6  N2  EZL d          -3.768   4.065  12.649  0.00  0.00    -0.227 NA
ATOM      7  S2  EZL d          -3.657   4.924  15.048  0.00  0.00    -0.054 SA
ATOM      8  C6  EZL d          -4.650   0.676  13.835  0.00  0.00    -0.049 A 
ATOM      9  C7  EZL d          -4.343   1.706  12.883  0.00  0.00    -0.051 A 
ATOM     10  H3  EZL d          -4.403   2.527  16.858  0.00  0.00     0.090 H 
ATOM     11  H6  EZL d          -4.876  -0.341  13.535  0.00  0.00     0.087 H 
ATOM     12  H7  EZL d          -4.336   1.534  11.813  0.00  0.00     0.087 H 
ENDROOT
BRANCH   4  13
ATOM     13  O3  EZL d          -4.894   0.053  16.104  0.00  0.00    -0.351 OA
BRANCH  13  14
ATOM     14  C8  EZL d          -5.604   0.297  17.387  0.00  0.00     0.023 C 
ATOM     15  H4  EZL d          -5.052   1.050  17.969  0.00  0.00     0.074 H 
ATOM     16  H5  EZL d          -5.654  -0.642  17.957  0.00  0.00     0.074 H 
BRANCH  14  17
ATOM     17  C9  EZL d          -7.030   0.806  17.126  0.00  0.00    -0.056 C 
ATOM     18  H8  EZL d          -7.395   1.344  18.013  0.00  0.00     0.030 H 
ATOM     19  H9  EZL d          -7.691  -0.048  16.917  0.00  0.00     0.030 H 
ATOM     20  H10 EZL d          -7.025   1.486  16.262  0.00  0.00     0.030 H 
ENDBRANCH  14  17
ENDBRANCH  13  14
ENDBRANCH   4  13
BRANCH   5  21
ATOM     21  S1  EZL d          -3.068   6.725  12.708  0.00  0.00     0.281 S 
ATOM     22  O1  EZL d          -2.866   7.560  13.853  0.00  0.00    -0.199 OA
ATOM     23  O2  EZL d          -1.892   6.436  11.936  0.00  0.00    -0.199 OA
BRANCH  21  24
ATOM     24  N1  EZL d          -4.292   7.192  11.836  0.00  0.00    -0.323 N 
ATOM     25  H1  EZL d          -5.157   6.690  11.879  0.00  0.00     0.169 HD
ATOM     26  H2  EZL d          -4.206   7.990  11.239  0.00  0.00     0.169 HD
ENDBRANCH  21  24
ENDBRANCH   5  21
TORSDOF 5
ENDMDL
MODEL 5
REMARK VINA RESULT:      -4.8      1.979      2.365
REMARK  5 active torsions:
REMARK  status: ('A' for Active; 'I' for Inactive)
REMARK    1  A    between atoms: S1_9  and  N1_1 
REMARK    2  A    between atoms: C5_5  and  O3_15 
REMARK    3  A    between atoms: O3_15  and  C8_6 
REMARK    4  A    between atoms: C8_6  and  C9_16 
REMARK    5  A    between atoms: C1_10  and  S1_9 
ROOT
ATOM      1  C2  EZL d          -3.745   4.793  14.529  0.00  0.00     0.076 A 
ATOM      2  C3  EZL d          -4.007   4.426  13.209  0.00  0.00     0.039 A 
ATOM      3  C4  EZL d          -3.863   5.389  12.176  0.00  0.00    -0.032 A 
ATOM      4  C5  EZL d          -3.461   6.661  12.705  0.00  0.00     0.070 A 
ATOM      5  C1  EZL d          -4.284   2.644  14.732  0.00  0.00     0.214 A 
ATOM      6  N2  EZL d          -3.965   3.743  15.413  0.00  0.00    -0.227 NA
ATOM      7  S2  EZL d          -4.408   2.818  13.078  0.00  0.00    -0.054 SA
ATOM      8  C6  EZL d          -3.209   7.082  14.017  0.00  0.00    -0.049 A 
ATOM      9  C7  EZL d          -3.372   6.078  15.030  0.00  0.00    -0.051 A 
ATOM     10  H3  EZL d          -4.035   5.190  11.125  0.00  0.00     0.090 H 
ATOM     11  H6  EZL d          -2.912   8.098  14.252  0.00  0.00     0.087 H 
ATOM     12  H7  EZL d          -3.224   6.278  16.085  0.00  0.00     0.087 H 
ENDROOT
BRANCH   4  13
ATOM     13  O3  EZL d          -3.257   7.634  11.718  0.00  0.00    -0.351 OA
BRANCH  13  14
ATOM     14  C8  EZL d          -2.453   8.861  11.958  0.00  0.00     0.023 C 
ATOM     15  H4  EZL d          -2.593   9.188  12.998  0.00  0.00     0.074 H 
ATOM     16  H5  EZL d          -2.791   9.655  11.276  0.00  0.00     0.074 H 
BRANCH  14  17
ATOM     17  C9  EZL d          -0.961   8.585  11.712  0.00  0.00    -0.056 C 
ATOM     18  H8  EZL d          -0.416   8.639  12.666  0.00  0.00     0.030 H 
ATOM     19  H9  EZL d          -0.559   9.337  11.017  0.00  0.00     0.030 H 
ATOM     20  H10 EZL d          -0.840   7.583  11.277  0.00  0.00     0.030 H 
ENDBRANCH  14  17
ENDBRANCH  13  14
ENDBRANCH   4  13
BRANCH   5  21
ATOM     21  S1  EZL d          -4.608   1.070  15.521  0.00  0.00     0.281 S 
ATOM     22  O1  EZL d          -4.596   0.129  14.442  0.00  0.00    -0.199 OA
ATOM     23  O2  EZL d          -3.533   0.945  16.464  0.00  0.00    -0.199 OA
BRANCH  21  24
ATOM     24  N1  EZL d          -6.025   1.188  16.196  0.00  0.00    -0.323 N 
ATOM     25  H1  EZL d          -6.193   1.890  16.888  0.00  0.00     0.169 HD
ATOM     26  H2  EZL d          -6.758   0.561  15.931  0.00  0.00     0.169 HD
ENDBRANCH  21  24
ENDBRANCH   5  21
TORSDOF 5
ENDMDL
MODEL 6
REMARK VINA RESULT:      -4.5      3.084      6.313
REMARK  5 active torsions:
REMARK  status: ('A' for Active; 'I' for Inactive)
REMARK    1  A    between atoms: S1_9  and  N1_1 
REMARK    2  A    between atoms: C5_5  and  O3_15 
REMARK    3  A    between atoms: O3_15  and  C8_6 
REMARK    4  A    between atoms: C8_6  and  C9_16 
REMARK    5  A    between atoms: C1_10  and  S1_9 
ROOT
ATOM      1  C2  EZL d          -3.940   3.892  13.926  0.00  0.00     0.076 A 
ATOM      2  C3  EZL d          -4.536   4.841  14.758  0.00  0.00     0.039 A 
ATOM      3  C4  EZL d          -5.636   4.462  15.571  0.00  0.00    -0.032 A 
ATOM      4  C5  EZL d          -5.978   3.082  15.373  0.00  0.00     0.070 A 
ATOM      5  C1  EZL d          -2.710   5.704  13.537  0.00  0.00     0.214 A 
ATOM      6  N2  EZL d          -2.903   4.435  13.179  0.00  0.00    -0.227 NA
ATOM      7  S2  EZL d          -3.763   6.310  14.680  0.00  0.00    -0.054 SA
ATOM      8  C6  EZL d          -5.428   2.102  14.537  0.00  0.00    -0.049 A 
ATOM      9  C7  EZL d          -4.321   2.529  13.729  0.00  0.00    -0.051 A 
ATOM     10  H3  EZL d          -6.152   5.128  16.253  0.00  0.00     0.090 H 
ATOM     11  H6  EZL d          -5.813   1.089  14.502  0.00  0.00     0.087 H 
ATOM     12  H7  EZL d          -3.817   1.873  13.028  0.00  0.00     0.087 H 
ENDROOT
BRANCH   4  13
ATOM     13  O3  EZL d          -7.029   2.647  16.191  0.00  0.00    -0.351 OA
BRANCH  13  14
ATOM     14  C8  EZL d          -7.009   1.333  16.887  0.00  0.00     0.023 C 
ATOM     15  H4  EZL d          -6.758   0.544  16.164  0.00  0.00     0.074 H 
ATOM     16  H5  EZL d          -8.003   1.136  17.315  0.00  0.00     0.074 H 
BRANCH  14  17
ATOM     17  C9  EZL d          -5.965   1.336  18.014  0.00  0.00    -0.056 C 
ATOM     18  H8  EZL d          -5.284   2.189  17.881  0.00  0.00     0.030 H 
ATOM     19  H9  EZL d          -5.391   0.398  17.984  0.00  0.00     0.030 H 
ATOM     20  H10 EZL d          -6.474   1.422  18.985  0.00  0.00     0.030 H 
ENDBRANCH  14  17
ENDBRANCH  13  14
ENDBRANCH   4  13
BRANCH   5  21
ATOM     21  S1  EZL d          -1.433   6.734  12.821  0.00  0.00     0.281 S 
ATOM     22  O1  EZL d          -2.080   7.375  11.716  0.00  0.00    -0.199 OA
ATOM     23  O2  EZL d          -1.055   7.596  13.904  0.00  0.00    -0.199 OA
BRANCH  21  24
ATOM     24  N1  EZL d          -0.281   5.765  12.358  0.00  0.00    -0.323 N 
ATOM     25  H1  EZL d          -0.467   4.790  12.235  0.00  0.00     0.169 HD
ATOM     26  H2  EZL d           0.636   6.125  12.186  0.00  0.00     0.169 HD
ENDBRANCH  21  24
ENDBRANCH   5  21
TORSDOF 5
ENDMDL
MODEL 7
REMARK VINA RESULT:      -4.3      2.209      2.716
REMARK  5 active torsions:
REMARK  status: ('A' for Active; 'I' for Inactive)
REMARK    1  A    between atoms: S1_9  and  N1_1 
REMARK    2  A    between atoms: C5_5  and  O3_15 
REMARK    3  A    between atoms: O3_15  and  C8_6 
REMARK    4  A    between atoms: C8_6  and  C9_16 
REMARK    5  A    between atoms: C1_10  and  S1_9 
ROOT
ATOM      1  C2  EZL d          -2.198   4.752  13.119  0.00  0.00     0.076 A 
ATOM      2  C3  EZL d          -2.825   5.593  14.039  0.00  0.00     0.039 A 
ATOM      3  C4  EZL d          -2.393   6.940  14.158  0.00  0.00    -0.032 A 
ATOM      4  C5  EZL d          -1.305   7.217  13.264  0.00  0.00     0.070 A 
ATOM      5  C1  EZL d          -3.743   3.420  14.007  0.00  0.00     0.214 A 
ATOM      6  N2  EZL d          -2.719   3.464  13.156  0.00  0.00    -0.227 NA
ATOM      7  S2  EZL d          -4.072   4.832  14.830  0.00  0.00    -0.054 SA
ATOM      8  C6  EZL d          -0.630   6.404  12.344  0.00  0.00    -0.049 A 
ATOM      9  C7  EZL d          -1.096   5.049  12.260  0.00  0.00    -0.051 A 
ATOM     10  H3  EZL d          -2.828   7.666  14.836  0.00  0.00     0.090 H 
ATOM     11  H6  EZL d           0.188   6.773  11.737  0.00  0.00     0.087 H 
ATOM     12  H7  EZL d          -0.649   4.314  11.601  0.00  0.00     0.087 H 
ENDROOT
BRANCH   4  13
ATOM     13  O3  EZL d          -0.875   8.550  13.309  0.00  0.00    -0.351 OA
BRANCH  13  14
ATOM     14  C8  EZL d          -1.436   9.541  14.265  0.00  0.00     0.023 C 
ATOM     15  H4  EZL d          -2.471   9.262  14.509  0.00  0.00     0.074 H 
ATOM     16  H5  EZL d          -1.425  10.538  13.801  0.00  0.00     0.074 H 
BRANCH  14  17
ATOM     17  C9  EZL d          -0.604   9.575  15.556  0.00  0.00    -0.056 C 
ATOM     18  H8  EZL d           0.148  10.374  15.487  0.00  0.00     0.030 H 
ATOM     19  H9  EZL d          -0.100   8.607  15.694  0.00  0.00     0.030 H 
ATOM     20  H10 EZL d          -1.266   9.768  16.413  0.00  0.00     0.030 H 
ENDBRANCH  14  17
ENDBRANCH  13  14
ENDBRANCH   4  13
BRANCH   5  21
ATOM     21  S1  EZL d          -4.700   1.935  14.301  0.00  0.00     0.281 S 
ATOM     22  O1  EZL d          -5.958   2.420  14.784  0.00  0.00    -0.199 OA
ATOM     23  O2  EZL d          -4.732   1.301  13.013  0.00  0.00    -0.199 OA
BRANCH  21  24
ATOM     24  N1  EZL d          -3.921   1.106  15.389  0.00  0.00    -0.323 N 
ATOM     25  H1  EZL d          -2.943   0.929  15.278  0.00  0.00     0.169 HD
ATOM     26  H2  EZL d          -4.405   0.757  16.192  0.00  0.00     0.169 HD
ENDBRANCH  21  24
ENDBRANCH   5  21
TORSDOF 5
ENDMDL
MODEL 8
REMARK VINA RESULT:      -4.2      1.742      2.387
REMARK  5 active torsions:
REMARK  status: ('A' for Active; 'I' for Inactive)
REMARK    1  A    between atoms: S1_9  and  N1_1 
REMARK    2  A    between atoms: C5_5  and  O3_15 
REMARK    3  A    between atoms: O3_15  and  C8_6 
REMARK    4  A    between atoms: C8_6  and  C9_16 
REMARK    5  A    between atoms: C1_10  and  S1_9 
ROOT
ATOM      1  C2  EZL d          -5.213   4.327  14.584  0.00  0.00     0.076 A 
ATOM      2  C3  EZL d          -3.929   3.782  14.542  0.00  0.00     0.039 A 
ATOM      3  C4  EZL d          -2.925   4.421  13.769  0.00  0.00    -0.032 A 
ATOM      4  C5  EZL d          -3.442   5.585  13.107  0.00  0.00     0.070 A 
ATOM      5  C1  EZL d          -5.404   2.559  15.920  0.00  0.00     0.214 A 
ATOM      6  N2  EZL d          -6.077   3.561  15.357  0.00  0.00    -0.227 NA
ATOM      7  S2  EZL d          -3.792   2.438  15.510  0.00  0.00    -0.054 SA
ATOM      8  C6  EZL d          -4.721   6.156  13.099  0.00  0.00    -0.049 A 
ATOM      9  C7  EZL d          -5.707   5.474  13.890  0.00  0.00    -0.051 A 
ATOM     10  H3  EZL d          -1.901   4.076  13.688  0.00  0.00     0.090 H 
ATOM     11  H6  EZL d          -4.952   7.051  12.533  0.00  0.00     0.087 H 
ATOM     12  H7  EZL d          -6.738   5.803  13.956  0.00  0.00     0.087 H 
ENDROOT
BRANCH   4  13
ATOM     13  O3  EZL d          -2.475   6.281  12.369  0.00  0.00    -0.351 OA
BRANCH  13  14
ATOM     14  C8  EZL d          -1.206   6.767  12.971  0.00  0.00     0.023 C 
ATOM     15  H4  EZL d          -0.545   7.137  12.173  0.00  0.00     0.074 H 
ATOM     16  H5  EZL d          -0.714   5.937  13.498  0.00  0.00     0.074 H 
BRANCH  14  17
ATOM     17  C9  EZL d          -1.482   7.905  13.965  0.00  0.00    -0.056 C 
ATOM     18  H8  EZL d          -0.930   7.719  14.898  0.00  0.00     0.030 H 
ATOM     19  H9  EZL d          -2.560   7.951  14.180  0.00  0.00     0.030 H 
ATOM     20  H10 EZL d          -1.154   8.860  13.531  0.00  0.00     0.030 H 
ENDBRANCH  14  17
ENDBRANCH  13  14
ENDBRANCH   4  13
BRANCH   5  21
ATOM     21  S1  EZL d          -6.168   1.372  17.021  0.00  0.00     0.281 S 
ATOM     22  O1  EZL d          -7.009   0.592  16.165  0.00  0.00    -0.199 OA
ATOM     23  O2  EZL d          -5.048   0.677  17.590  0.00  0.00    -0.199 OA
BRANCH  21  24
ATOM     24  N1  EZL d          -6.993   2.202  18.075  0.00  0.00    -0.323 N 
ATOM     25  H1  EZL d          -7.898   2.553  17.837  0.00  0.00     0.169 HD
ATOM     26  H2  EZL d          -6.611   2.377  18.983  0.00  0.00     0.169 HD
ENDBRANCH  21  24
ENDBRANCH   5  21
TORSDOF 5
ENDMDL
MODEL 9
REMARK VINA RESULT:      -3.9      3.472      6.742
REMARK  5 active torsions:
REMARK  status: ('A' for Active; 'I' for Inactive)
REMARK    1  A    between atoms: S1_9  and  N1_1 
REMARK    2  A    between atoms: C5_5  and  O3_15 
REMARK    3  A    between atoms: O3_15  and  C8_6 
REMARK    4  A    between atoms: C8_6  and  C9_16 
REMARK    5  A    between atoms: C1_10  and  S1_9 
ROOT
ATOM      1  C2  EZL d          -2.866   5.297  14.354  0.00  0.00     0.076 A 
ATOM      2  C3  EZL d          -4.072   5.262  13.652  0.00  0.00     0.039 A 
ATOM      3  C4  EZL d          -4.976   4.190  13.874  0.00  0.00    -0.032 A 
ATOM      4  C5  EZL d          -4.454   3.260  14.833  0.00  0.00     0.070 A 
ATOM      5  C1  EZL d          -2.761   7.155  13.134  0.00  0.00     0.214 A 
ATOM      6  N2  EZL d          -2.089   6.391  13.994  0.00  0.00    -0.227 NA
ATOM      7  S2  EZL d          -4.261   6.590  12.671  0.00  0.00    -0.054 SA
ATOM      8  C6  EZL d          -3.246   3.240  15.543  0.00  0.00    -0.049 A 
ATOM      9  C7  EZL d          -2.359   4.339  15.284  0.00  0.00    -0.051 A 
ATOM     10  H3  EZL d          -5.937   4.088  13.383  0.00  0.00     0.090 H 
ATOM     11  H6  EZL d          -2.998   2.448  16.240  0.00  0.00     0.087 H 
ATOM     12  H7  EZL d          -1.387   4.433  15.755  0.00  0.00     0.087 H 
ENDROOT
BRANCH   4  13
ATOM     13  O3  EZL d          -5.333   2.208  15.124  0.00  0.00    -0.351 OA
BRANCH  13  14
ATOM     14  C8  EZL d          -4.924   1.020  15.919  0.00  0.00     0.023 C 
ATOM     15  H4  EZL d          -5.786   0.657  16.497  0.00  0.00     0.074 H 
ATOM     16  H5  EZL d          -4.115   1.307  16.607  0.00  0.00     0.074 H 
BRANCH  14  17
ATOM     17  C9  EZL d          -4.426  -0.102  14.995  0.00  0.00    -0.056 C 
ATOM     18  H8  EZL d          -3.619  -0.657  15.495  0.00  0.00     0.030 H 
ATOM     19  H9  EZL d          -4.048   0.334  14.059  0.00  0.00     0.030 H 
ATOM     20  H10 EZL d          -5.257  -0.787  14.770  0.00  0.00     0.030 H 
ENDBRANCH  14  17
ENDBRANCH  13  14
ENDBRANCH   4  13
BRANCH   5  21
ATOM     21  S1  EZL d          -2.102   8.680  12.467  0.00  0.00     0.281 S 
ATOM     22  O1  EZL d          -0.963   8.264  11.705  0.00  0.00    -0.199 OA
ATOM     23  O2  EZL d          -3.198   9.210  11.706  0.00  0.00    -0.199 OA
BRANCH  21  24
ATOM     24  N1  EZL d          -1.703   9.575  13.699  0.00  0.00    -0.323 N 
ATOM     25  H1  EZL d          -1.070   9.222  14.389  0.00  0.00     0.169 HD
ATOM     26  H2  EZL d          -2.081  10.496  13.791  0.00  0.00     0.169 HD
ENDBRANCH  21  24
ENDBRANCH   5  21
TORSDOF 5
ENDMDL
MODEL 10
REMARK VINA RESULT:      -2.8      3.879      6.738
REMARK  5 active torsions:
REMARK  status: ('A' for Active; 'I' for Inactive)
REMARK    1  A    between atoms: S1_9  and  N1_1 
REMARK    2  A    between atoms: C5_5  and  O3_15 
REMARK    3  A    between atoms: O3_15  and  C8_6 
REMARK    4  A    between atoms: C8_6  and  C9_16 
REMARK    5  A    between atoms: C1_10  and  S1_9 
ROOT
ATOM      1  C2  EZL d          -3.620   4.789  13.880  0.00  0.00     0.076 A 
ATOM      2  C3  EZL d          -2.654   4.384  12.959  0.00  0.00     0.039 A 
ATOM      3  C4  EZL d          -2.700   3.065  12.436  0.00  0.00    -0.032 A 
ATOM      4  C5  EZL d          -3.795   2.323  12.993  0.00  0.00     0.070 A 
ATOM      5  C1  EZL d          -2.382   6.623  13.651  0.00  0.00     0.214 A 
ATOM      6  N2  EZL d          -3.409   6.092  14.313  0.00  0.00    -0.227 NA
ATOM      7  S2  EZL d          -1.601   5.612  12.580  0.00  0.00    -0.054 SA
ATOM      8  C6  EZL d          -4.772   2.677  13.933  0.00  0.00    -0.049 A 
ATOM      9  C7  EZL d          -4.685   4.017  14.439  0.00  0.00    -0.051 A 
ATOM     10  H3  EZL d          -2.000   2.669  11.710  0.00  0.00     0.090 H 
ATOM     11  H6  EZL d          -5.541   1.985  14.256  0.00  0.00     0.087 H 
ATOM     12  H7  EZL d          -5.369   4.410  15.183  0.00  0.00     0.087 H 
ENDROOT
BRANCH   4  13
ATOM     13  O3  EZL d          -3.913   1.028  12.470  0.00  0.00    -0.351 OA
BRANCH  13  14
ATOM     14  C8  EZL d          -4.594  -0.071  13.203  0.00  0.00     0.023 C 
ATOM     15  H4  EZL d          -4.426  -1.019  12.671  0.00  0.00     0.074 H 
ATOM     16  H5  EZL d          -5.673   0.138  13.248  0.00  0.00     0.074 H 
BRANCH  14  17
ATOM     17  C9  EZL d          -4.042  -0.190  14.632  0.00  0.00    -0.056 C 
ATOM     18  H8  EZL d          -3.927  -1.252  14.894  0.00  0.00     0.030 H 
ATOM     19  H9  EZL d          -4.741   0.287  15.336  0.00  0.00     0.030 H 
ATOM     20  H10 EZL d          -3.065   0.309  14.691  0.00  0.00     0.030 H 
ENDBRANCH  14  17
ENDBRANCH  13  14
ENDBRANCH   4  13
BRANCH   5  21
ATOM     21  S1  EZL d          -1.826   8.306  13.905  0.00  0.00     0.281 S 
ATOM     22  O1  EZL d          -2.569   9.068  12.948  0.00  0.00    -0.199 OA
ATOM     23  O2  EZL d          -2.147   8.557  15.282  0.00  0.00    -0.199 OA
BRANCH  21  24
ATOM     24  N1  EZL d          -0.280   8.318  13.609  0.00  0.00    -0.323 N 
ATOM     25  H1  EZL d           0.071   7.910  12.766  0.00  0.00     0.169 HD
ATOM     26  H2  EZL d           0.351   8.735  14.263  0.00  0.00     0.169 HD
ENDBRANCH  21  24
ENDBRANCH   5  21
TORSDOF 5
ENDMDL
