MODEL 1
REMARK VINA RESULT:      -5.8      0.000      0.000
REMARK  5 active torsions:
REMARK  status: ('A' for Active; 'I' for Inactive)
REMARK    1  A    between atoms: C2_3  and  O1_2 
REMARK    2  A    between atoms: C4_7  and  O2_4 
REMARK    3  A    between atoms: C12_18  and  O5_10 
REMARK    4  A    between atoms: C13_19  and  O6_12 
REMARK    5  A    between atoms: C10_16  and  C9_15 
ROOT
ATOM      1  C1  LU2 d          20.508  40.761  41.489  0.00  0.00    -0.017 A 
ATOM      2  C2  LU2 d          21.008  41.078  42.728  0.00  0.00     0.071 A 
ATOM      3  C3  LU2 d          21.976  42.076  42.867  0.00  0.00    -0.018 A 
ATOM      4  O3  LU2 d          23.265  43.899  39.356  0.00  0.00    -0.287 OA
ATOM      5  C4  LU2 d          22.427  42.754  41.749  0.00  0.00     0.085 A 
ATOM      6  O4  LU2 d          20.450  41.082  39.213  0.00  0.00    -0.309 OA
ATOM      7  C5  LU2 d          21.923  42.434  40.485  0.00  0.00     0.081 A 
ATOM      8  C6  LU2 d          20.983  41.440  40.381  0.00  0.00     0.095 A 
ATOM      9  C7  LU2 d          22.361  43.064  39.344  0.00  0.00     0.190 A 
ATOM     10  C8  LU2 d          21.876  42.630  38.134  0.00  0.00    -0.000 A 
ATOM     11  C9  LU2 d          20.888  41.673  38.102  0.00  0.00     0.090 A 
ATOM     12  H1  LU2 d          19.752  39.991  41.380  0.00  0.00     0.092 H 
ATOM     13  H4  LU2 d          22.372  42.318  43.846  0.00  0.00     0.092 H 
ATOM     14  H7  LU2 d          22.270  43.041  37.206  0.00  0.00     0.094 H 
ENDROOT
BRANCH  11  15
ATOM     15  C10 LU2 d          20.359  41.227  36.935  0.00  0.00     0.001 A 
ATOM     16  C11 LU2 d          20.873  41.612  35.669  0.00  0.00    -0.036 A 
ATOM     17  C12 LU2 d          20.302  41.163  34.489  0.00  0.00     0.099 A 
ATOM     18  H8  LU2 d          21.731  42.272  35.625  0.00  0.00     0.089 H 
ATOM     19  C13 LU2 d          19.218  40.319  34.710  0.00  0.00     0.098 A 
ATOM     20  C14 LU2 d          18.701  39.932  35.935  0.00  0.00    -0.047 A 
ATOM     21  C15 LU2 d          19.271  40.390  37.073  0.00  0.00    -0.068 A 
ATOM     22  H9  LU2 d          17.846  39.267  35.982  0.00  0.00     0.087 H 
ATOM     23  H10 LU2 d          18.891  40.112  38.048  0.00  0.00     0.085 H 
BRANCH  17  24
ATOM     24  O5  LU2 d          20.709  41.503  33.150  0.00  0.00    -0.358 OA
ATOM     25  H5  LU2 d          20.731  42.449  33.058  0.00  0.00     0.217 HD
ENDBRANCH  17  24
BRANCH  19  26
ATOM     26  O6  LU2 d          18.604  39.830  33.651  0.00  0.00    -0.358 OA
ATOM     27  H6  LU2 d          17.743  40.225  33.576  0.00  0.00     0.217 HD
ENDBRANCH  19  26
ENDBRANCH  11  15
BRANCH   2  28
ATOM     28  O1  LU2 d          20.583  40.396  43.782  0.00  0.00    -0.361 OA
ATOM     29  H2  LU2 d          20.789  39.476  43.667  0.00  0.00     0.217 HD
ENDBRANCH   2  28
BRANCH   5  30
ATOM     30  O2  LU2 d          23.348  43.710  41.911  0.00  0.00    -0.360 OA
ATOM     31  H3  LU2 d          24.051  43.581  41.285  0.00  0.00     0.217 HD
ENDBRANCH   5  30
TORSDOF 5
ENDMDL
MODEL 2
REMARK VINA RESULT:      -3.9      1.974      3.730
REMARK  5 active torsions:
REMARK  status: ('A' for Active; 'I' for Inactive)
REMARK    1  A    between atoms: C2_3  and  O1_2 
REMARK    2  A    between atoms: C4_7  and  O2_4 
REMARK    3  A    between atoms: C12_18  and  O5_10 
REMARK    4  A    between atoms: C13_19  and  O6_12 
REMARK    5  A    between atoms: C10_16  and  C9_15 
ROOT
ATOM      1  C1  LU2 d          22.464  43.980  41.341  0.00  0.00    -0.017 A 
ATOM      2  C2  LU2 d          22.064  43.725  42.629  0.00  0.00     0.071 A 
ATOM      3  C3  LU2 d          21.185  42.674  42.904  0.00  0.00    -0.018 A 
ATOM      4  O3  LU2 d          19.832  40.496  39.626  0.00  0.00    -0.287 OA
ATOM      5  C4  LU2 d          20.721  41.881  41.870  0.00  0.00     0.085 A 
ATOM      6  O4  LU2 d          22.410  43.489  39.095  0.00  0.00    -0.309 OA
ATOM      7  C5  LU2 d          21.123  42.137  40.556  0.00  0.00     0.081 A 
ATOM      8  C6  LU2 d          21.977  43.185  40.319  0.00  0.00     0.095 A 
ATOM      9  C7  LU2 d          20.667  41.391  39.495  0.00  0.00     0.190 A 
ATOM     10  C8  LU2 d          21.045  41.763  38.227  0.00  0.00    -0.000 A 
ATOM     11  C9  LU2 d          21.953  42.783  38.061  0.00  0.00     0.090 A 
ATOM     12  H1  LU2 d          23.150  44.792  41.127  0.00  0.00     0.092 H 
ATOM     13  H4  LU2 d          20.868  42.480  43.922  0.00  0.00     0.092 H 
ATOM     14  H7  LU2 d          20.628  41.254  37.359  0.00  0.00     0.094 H 
ENDROOT
BRANCH  11  15
ATOM     15  C10 LU2 d          22.375  43.175  36.833  0.00  0.00     0.001 A 
ATOM     16  C11 LU2 d          21.836  42.639  35.635  0.00  0.00    -0.036 A 
ATOM     17  C12 LU2 d          22.299  43.036  34.390  0.00  0.00     0.099 A 
ATOM     18  H8  LU2 d          21.043  41.902  35.695  0.00  0.00     0.089 H 
ATOM     19  C13 LU2 d          23.307  43.990  34.478  0.00  0.00     0.098 A 
ATOM     20  C14 LU2 d          23.848  44.525  35.635  0.00  0.00    -0.047 A 
ATOM     21  C15 LU2 d          23.384  44.116  36.838  0.00  0.00    -0.068 A 
ATOM     22  H9  LU2 d          24.637  45.267  35.578  0.00  0.00     0.087 H 
ATOM     23  H10 LU2 d          23.786  44.509  37.764  0.00  0.00     0.085 H 
BRANCH  17  24
ATOM     24  O5  LU2 d          21.857  42.546  33.110  0.00  0.00    -0.358 OA
ATOM     25  H5  LU2 d          20.916  42.416  33.130  0.00  0.00     0.217 HD
ENDBRANCH  17  24
BRANCH  19  26
ATOM     26  O6  LU2 d          23.816  44.440  33.349  0.00  0.00    -0.358 OA
ATOM     27  H6  LU2 d          23.641  45.371  33.274  0.00  0.00     0.217 HD
ENDBRANCH  19  26
ENDBRANCH  11  15
BRANCH   2  28
ATOM     28  O1  LU2 d          22.497  44.515  43.601  0.00  0.00    -0.361 OA
ATOM     29  H2  LU2 d          21.849  45.189  43.773  0.00  0.00     0.217 HD
ENDBRANCH   2  28
BRANCH   5  30
ATOM     30  O2  LU2 d          19.888  40.876  42.161  0.00  0.00    -0.360 OA
ATOM     31  H3  LU2 d          20.356  40.210  42.650  0.00  0.00     0.217 HD
ENDBRANCH   5  30
TORSDOF 5
ENDMDL
MODEL 3
REMARK VINA RESULT:      -3.2      1.316      6.648
REMARK  5 active torsions:
REMARK  status: ('A' for Active; 'I' for Inactive)
REMARK    1  A    between atoms: C2_3  and  O1_2 
REMARK    2  A    between atoms: C4_7  and  O2_4 
REMARK    3  A    between atoms: C12_18  and  O5_10 
REMARK    4  A    between atoms: C13_19  and  O6_12 
REMARK    5  A    between atoms: C10_16  and  C9_15 
ROOT
ATOM      1  C1  LU2 d          19.685  40.502  36.386  0.00  0.00    -0.017 A 
ATOM      2  C2  LU2 d          19.537  40.446  35.022  0.00  0.00     0.071 A 
ATOM      3  C3  LU2 d          20.331  41.241  34.190  0.00  0.00    -0.018 A 
ATOM      4  O3  LU2 d          23.029  43.777  36.086  0.00  0.00    -0.287 OA
ATOM      5  C4  LU2 d          21.277  42.082  34.745  0.00  0.00     0.085 A 
ATOM      6  O4  LU2 d          20.717  41.360  38.253  0.00  0.00    -0.309 OA
ATOM      7  C5  LU2 d          21.431  42.144  36.133  0.00  0.00     0.081 A 
ATOM      8  C6  LU2 d          20.627  41.361  36.923  0.00  0.00     0.095 A 
ATOM      9  C7  LU2 d          22.341  42.985  36.729  0.00  0.00     0.190 A 
ATOM     10  C8  LU2 d          22.368  43.046  38.102  0.00  0.00    -0.000 A 
ATOM     11  C9  LU2 d          21.581  42.190  38.836  0.00  0.00     0.090 A 
ATOM     12  H1  LU2 d          19.073  39.882  37.032  0.00  0.00     0.092 H 
ATOM     13  H4  LU2 d          20.206  41.198  33.114  0.00  0.00     0.092 H 
ATOM     14  H7  LU2 d          23.009  43.768  38.606  0.00  0.00     0.094 H 
ENDROOT
BRANCH  11  15
ATOM     15  C10 LU2 d          21.587  42.195  40.192  0.00  0.00     0.001 A 
ATOM     16  C11 LU2 d          21.235  41.054  40.960  0.00  0.00    -0.036 A 
ATOM     17  C12 LU2 d          21.225  41.089  42.346  0.00  0.00     0.099 A 
ATOM     18  H8  LU2 d          20.969  40.135  40.451  0.00  0.00     0.089 H 
ATOM     19  C13 LU2 d          21.597  42.331  42.849  0.00  0.00     0.098 A 
ATOM     20  C14 LU2 d          21.943  43.455  42.119  0.00  0.00    -0.047 A 
ATOM     21  C15 LU2 d          21.938  43.398  40.768  0.00  0.00    -0.068 A 
ATOM     22  H9  LU2 d          22.216  44.374  42.626  0.00  0.00     0.087 H 
ATOM     23  H10 LU2 d          22.199  44.259  40.164  0.00  0.00     0.085 H 
BRANCH  17  24
ATOM     24  O5  LU2 d          20.859  40.014  43.232  0.00  0.00    -0.358 OA
ATOM     25  H5  LU2 d          20.386  40.367  43.977  0.00  0.00     0.217 HD
ENDBRANCH  17  24
BRANCH  19  26
ATOM     26  O6  LU2 d          21.625  42.470  44.159  0.00  0.00    -0.358 OA
ATOM     27  H6  LU2 d          21.973  43.327  44.378  0.00  0.00     0.217 HD
ENDBRANCH  19  26
ENDBRANCH  11  15
BRANCH   2  28
ATOM     28  O1  LU2 d          18.604  39.655  34.512  0.00  0.00    -0.361 OA
ATOM     29  H2  LU2 d          18.535  38.868  35.039  0.00  0.00     0.217 HD
ENDBRANCH   2  28
BRANCH   5  30
ATOM     30  O2  LU2 d          22.030  42.825  33.926  0.00  0.00    -0.360 OA
ATOM     31  H3  LU2 d          21.589  43.649  33.753  0.00  0.00     0.217 HD
ENDBRANCH   5  30
TORSDOF 5
ENDMDL
