MODEL 1
REMARK VINA RESULT:      -7.7      0.000      0.000
REMARK  17 active torsions:
REMARK  status: ('A' for Active; 'I' for Inactive)
REMARK    1  A    between atoms: CBD_3  and  OAI_4 
REMARK    2  A    between atoms: CBF_7  and  CAV_8 
REMARK    3  A    between atoms: CAV_8  and  CBI_9 
REMARK    4  A    between atoms: CBI_9  and  PBK_10 
REMARK    5  A    between atoms: CBI_9  and  NAY_14 
REMARK       I    between atoms: NAY_14  and  C_15 
REMARK    6  A    between atoms: C_15  and  CA_17 
REMARK    7  A    between atoms: CA_17  and  N_18 
REMARK    8  A    between atoms: CA_17  and  CB_30 
REMARK       I    between atoms: N_18  and  CBB_19 
REMARK    9  A    between atoms: CBB_19  and  CBJ_21 
REMARK   10  A    between atoms: CBJ_21  and  CBG_22 
REMARK   11  A    between atoms: CBJ_21  and  NAX_26 
REMARK   12  A    between atoms: CBG_22  and  CAC_23 
REMARK   13  A    between atoms: CBG_22  and  CAT_24 
REMARK   14  A    between atoms: CAT_24  and  CAA_25 
REMARK       I    between atoms: NAX_26  and  CAZ_27 
REMARK   15  A    between atoms: CAZ_27  and  CAB_28 
REMARK   16  A    between atoms: CB_30  and  CG_31 
REMARK   17  A    between atoms: CZ_34  and  OH_35 
ROOT
ATOM      1  CA  K26 d          -7.883  24.078 -12.069  0.00  0.00     0.093 C 
ATOM      2  H10 K26 d          -7.962  23.102 -12.571  0.00  0.00     0.088 H 
ENDROOT
BRANCH   1   3
ATOM      3  C   K26 d          -7.015  23.917 -10.819  0.00  0.00     0.241 C 
ATOM      4  NAY K26 d          -6.114  24.883 -10.622  0.00  0.00    -0.342 N 
ATOM      5  H9  K26 d          -6.113  25.674 -11.233  0.00  0.00     0.163 HD
ATOM      6  O   K26 d          -7.153  22.925 -10.102  0.00  0.00    -0.271 OA
BRANCH   4   7
ATOM      7  CBI K26 d          -5.121  24.823  -9.536  0.00  0.00     0.124 C 
ATOM      8  H8  K26 d          -5.130  23.813  -9.099  0.00  0.00     0.095 H 
BRANCH   7   9
ATOM      9  CAV K26 d          -3.727  25.082 -10.153  0.00  0.00    -0.010 C 
ATOM     10  H6  K26 d          -3.583  26.167 -10.264  0.00  0.00     0.044 H 
ATOM     11  H7  K26 d          -2.958  24.677  -9.479  0.00  0.00     0.044 H 
BRANCH   9  12
ATOM     12  CBF K26 d          -3.583  24.417 -11.531  0.00  0.00    -0.055 A 
ATOM     13  CAR K26 d          -3.813  23.049 -11.657  0.00  0.00    -0.074 A 
ATOM     14  CAN K26 d          -3.700  22.427 -12.898  0.00  0.00    -0.051 A 
ATOM     15  H1  K26 d          -4.082  22.465 -10.784  0.00  0.00     0.084 H 
ATOM     16  CBD K26 d          -3.356  23.176 -14.023  0.00  0.00     0.065 A 
ATOM     17  H2  K26 d          -3.880  21.361 -12.989  0.00  0.00     0.087 H 
ATOM     18  CAO K26 d          -3.132  24.552 -13.911  0.00  0.00    -0.051 A 
ATOM     19  CAS K26 d          -3.243  25.168 -12.664  0.00  0.00    -0.074 A 
ATOM     20  H4  K26 d          -2.873  25.136 -14.787  0.00  0.00     0.087 H 
ATOM     21  H5  K26 d          -3.065  26.233 -12.571  0.00  0.00     0.084 H 
BRANCH  16  22
ATOM     22  OAI K26 d          -3.248  22.554 -15.228  0.00  0.00    -0.361 OA
ATOM     23  H3  K26 d          -2.891  21.682 -15.102  0.00  0.00     0.217 HD
ENDBRANCH  16  22
ENDBRANCH   9  12
ENDBRANCH   7   9
BRANCH   7  24
ATOM     24  PBK K26 d          -5.533  26.027  -8.203  0.00  0.00     0.283 P 
ATOM     25  OAJ K26 d          -6.182  25.176  -7.037  0.00  0.00    -0.638 OA
ATOM     26  OAK K26 d          -4.071  26.545  -7.696  0.00  0.00    -0.638 OA
ATOM     27  OAG K26 d          -6.423  27.127  -8.659  0.00  0.00    -0.638 OA
ENDBRANCH   7  24
ENDBRANCH   4   7
ENDBRANCH   1   3
BRANCH   1  28
ATOM     28  N   K26 d          -9.231  24.525 -11.662  0.00  0.00    -0.346 N 
ATOM     29  CBB K26 d         -10.233  23.698 -11.339  0.00  0.00     0.241 C 
ATOM     30  OAF K26 d         -10.166  22.468 -11.367  0.00  0.00    -0.271 OA
ATOM     31  H11 K26 d          -9.406  25.508 -11.625  0.00  0.00     0.163 HD
BRANCH  29  32
ATOM     32  CBJ K26 d         -11.558  24.402 -10.996  0.00  0.00     0.092 C 
ATOM     33  H12 K26 d         -11.913  24.939 -11.888  0.00  0.00     0.088 H 
BRANCH  32  34
ATOM     34  CBG K26 d         -11.410  25.429  -9.867  0.00  0.00    -0.030 C 
ATOM     35  H13 K26 d         -10.740  26.232 -10.209  0.00  0.00     0.043 H 
BRANCH  34  36
ATOM     36  CAC K26 d         -12.776  26.038  -9.531  0.00  0.00    -0.071 C 
ATOM     37  H14 K26 d         -12.633  26.983  -8.985  0.00  0.00     0.028 H 
ATOM     38  H15 K26 d         -13.347  25.337  -8.905  0.00  0.00     0.028 H 
ATOM     39  H16 K26 d         -13.330  26.233 -10.461  0.00  0.00     0.028 H 
ENDBRANCH  34  36
BRANCH  34  40
ATOM     40  CAT K26 d         -10.796  24.783  -8.614  0.00  0.00    -0.063 C 
ATOM     41  H17 K26 d         -10.605  23.720  -8.823  0.00  0.00     0.033 H 
ATOM     42  H18 K26 d         -11.514  24.871  -7.785  0.00  0.00     0.033 H 
BRANCH  40  43
ATOM     43  CAA K26 d          -9.482  25.443  -8.196  0.00  0.00    -0.076 C 
ATOM     44  H19 K26 d          -9.296  26.322  -8.830  0.00  0.00     0.027 H 
ATOM     45  H20 K26 d          -8.658  24.725  -8.312  0.00  0.00     0.027 H 
ATOM     46  H21 K26 d          -9.549  25.757  -7.144  0.00  0.00     0.027 H 
ENDBRANCH  40  43
ENDBRANCH  34  40
ENDBRANCH  32  34
BRANCH  32  47
ATOM     47  NAX K26 d         -12.527  23.340 -10.662  0.00  0.00    -0.348 N 
ATOM     48  CAZ K26 d         -13.577  23.067 -11.440  0.00  0.00     0.214 C 
ATOM     49  OAD K26 d         -13.870  23.698 -12.454  0.00  0.00    -0.274 OA
ATOM     50  H22 K26 d         -12.394  22.807  -9.826  0.00  0.00     0.163 HD
BRANCH  48  51
ATOM     51  CAB K26 d         -14.456  21.906 -10.971  0.00  0.00    -0.003 C 
ATOM     52  H23 K26 d         -14.152  21.602  -9.959  0.00  0.00     0.040 H 
ATOM     53  H24 K26 d         -14.338  21.056 -11.660  0.00  0.00     0.040 H 
ATOM     54  H25 K26 d         -15.508  22.224 -10.958  0.00  0.00     0.040 H 
ENDBRANCH  48  51
ENDBRANCH  32  47
ENDBRANCH  29  32
ENDBRANCH   1  28
BRANCH   1  55
ATOM     55  CB  K26 d          -7.294  25.081 -13.052  0.00  0.00    -0.014 C 
ATOM     56  H26 K26 d          -6.261  25.321 -12.761  0.00  0.00     0.043 H 
ATOM     57  H27 K26 d          -7.898  26.001 -13.049  0.00  0.00     0.043 H 
BRANCH  55  58
ATOM     58  CG  K26 d          -7.303  24.462 -14.459  0.00  0.00    -0.056 A 
ATOM     59  CD1 K26 d          -8.286  23.537 -14.805  0.00  0.00    -0.074 A 
ATOM     60  CE1 K26 d          -8.309  22.984 -16.088  0.00  0.00    -0.051 A 
ATOM     61  H28 K26 d          -9.035  23.246 -14.077  0.00  0.00     0.084 H 
ATOM     62  CZ  K26 d          -7.349  23.357 -17.029  0.00  0.00     0.065 A 
ATOM     63  H29 K26 d          -9.074  22.263 -16.353  0.00  0.00     0.087 H 
ATOM     64  CE2 K26 d          -6.370  24.288 -16.684  0.00  0.00    -0.051 A 
ATOM     65  CD2 K26 d          -6.348  24.844 -15.403  0.00  0.00    -0.074 A 
ATOM     66  H31 K26 d          -5.622  24.580 -17.412  0.00  0.00     0.087 H 
ATOM     67  H32 K26 d          -5.589  25.574 -15.141  0.00  0.00     0.084 H 
BRANCH  62  68
ATOM     68  OH  K26 d          -7.368  22.805 -18.281  0.00  0.00    -0.361 OA
ATOM     69  H30 K26 d          -7.044  21.913 -18.237  0.00  0.00     0.217 HD
ENDBRANCH  62  68
ENDBRANCH  55  58
ENDBRANCH   1  55
TORSDOF 17
ENDMDL
MODEL 2
REMARK VINA RESULT:      -7.6      2.652      5.674
REMARK  17 active torsions:
REMARK  status: ('A' for Active; 'I' for Inactive)
REMARK    1  A    between atoms: CBD_3  and  OAI_4 
REMARK    2  A    between atoms: CBF_7  and  CAV_8 
REMARK    3  A    between atoms: CAV_8  and  CBI_9 
REMARK    4  A    between atoms: CBI_9  and  PBK_10 
REMARK    5  A    between atoms: CBI_9  and  NAY_14 
REMARK       I    between atoms: NAY_14  and  C_15 
REMARK    6  A    between atoms: C_15  and  CA_17 
REMARK    7  A    between atoms: CA_17  and  N_18 
REMARK    8  A    between atoms: CA_17  and  CB_30 
REMARK       I    between atoms: N_18  and  CBB_19 
REMARK    9  A    between atoms: CBB_19  and  CBJ_21 
REMARK   10  A    between atoms: CBJ_21  and  CBG_22 
REMARK   11  A    between atoms: CBJ_21  and  NAX_26 
REMARK   12  A    between atoms: CBG_22  and  CAC_23 
REMARK   13  A    between atoms: CBG_22  and  CAT_24 
REMARK   14  A    between atoms: CAT_24  and  CAA_25 
REMARK       I    between atoms: NAX_26  and  CAZ_27 
REMARK   15  A    between atoms: CAZ_27  and  CAB_28 
REMARK   16  A    between atoms: CB_30  and  CG_31 
REMARK   17  A    between atoms: CZ_34  and  OH_35 
ROOT
ATOM      1  CA  K26 d          -8.561  23.851 -13.688  0.00  0.00     0.093 C 
ATOM      2  H10 K26 d          -8.382  22.791 -13.457  0.00  0.00     0.088 H 
ENDROOT
BRANCH   1   3
ATOM      3  C   K26 d          -7.470  24.336 -14.645  0.00  0.00     0.241 C 
ATOM      4  NAY K26 d          -6.671  23.381 -15.129  0.00  0.00    -0.342 N 
ATOM      5  H9  K26 d          -6.875  22.426 -14.915  0.00  0.00     0.163 HD
ATOM      6  O   K26 d          -7.356  25.539 -14.885  0.00  0.00    -0.271 OA
BRANCH   4   7
ATOM      7  CBI K26 d          -5.499  23.686 -15.967  0.00  0.00     0.124 C 
ATOM      8  H8  K26 d          -5.226  24.743 -15.828  0.00  0.00     0.095 H 
BRANCH   7   9
ATOM      9  CAV K26 d          -4.326  22.804 -15.482  0.00  0.00    -0.010 C 
ATOM     10  H6  K26 d          -4.691  21.778 -15.330  0.00  0.00     0.044 H 
ATOM     11  H7  K26 d          -3.538  22.804 -16.250  0.00  0.00     0.044 H 
BRANCH   9  12
ATOM     12  CBF K26 d          -3.733  23.323 -14.162  0.00  0.00    -0.055 A 
ATOM     13  CAR K26 d          -4.154  22.765 -12.957  0.00  0.00    -0.074 A 
ATOM     14  CAN K26 d          -3.622  23.211 -11.750  0.00  0.00    -0.051 A 
ATOM     15  H1  K26 d          -4.900  21.978 -12.960  0.00  0.00     0.084 H 
ATOM     16  CBD K26 d          -2.661  24.222 -11.745  0.00  0.00     0.065 A 
ATOM     17  H2  K26 d          -3.954  22.773 -10.815  0.00  0.00     0.087 H 
ATOM     18  CAO K26 d          -2.223  24.785 -12.948  0.00  0.00    -0.051 A 
ATOM     19  CAS K26 d          -2.764  24.335 -14.153  0.00  0.00    -0.074 A 
ATOM     20  H4  K26 d          -1.470  25.564 -12.944  0.00  0.00     0.087 H 
ATOM     21  H5  K26 d          -2.432  24.771 -15.089  0.00  0.00     0.084 H 
BRANCH  16  22
ATOM     22  OAI K26 d          -2.152  24.649 -10.557  0.00  0.00    -0.361 OA
ATOM     23  H3  K26 d          -2.485  24.100  -9.856  0.00  0.00     0.217 HD
ENDBRANCH  16  22
ENDBRANCH   9  12
ENDBRANCH   7   9
BRANCH   7  24
ATOM     24  PBK K26 d          -5.882  23.425 -17.751  0.00  0.00     0.283 P 
ATOM     25  OAJ K26 d          -5.428  24.750 -18.489  0.00  0.00    -0.638 OA
ATOM     26  OAK K26 d          -4.861  22.229 -18.186  0.00  0.00    -0.638 OA
ATOM     27  OAG K26 d          -7.311  23.102 -18.004  0.00  0.00    -0.638 OA
ENDBRANCH   7  24
ENDBRANCH   4   7
ENDBRANCH   1   3
BRANCH   1  28
ATOM     28  N   K26 d          -8.487  24.638 -12.440  0.00  0.00    -0.346 N 
ATOM     29  CBB K26 d          -7.915  24.205 -11.309  0.00  0.00     0.241 C 
ATOM     30  OAF K26 d          -7.407  23.093 -11.160  0.00  0.00    -0.271 OA
ATOM     31  H11 K26 d          -8.890  25.553 -12.439  0.00  0.00     0.163 HD
BRANCH  29  32
ATOM     32  CBJ K26 d          -8.009  25.188 -10.129  0.00  0.00     0.092 C 
ATOM     33  H12 K26 d          -7.958  26.215 -10.520  0.00  0.00     0.088 H 
BRANCH  32  34
ATOM     34  CBG K26 d          -6.865  25.019  -9.122  0.00  0.00    -0.030 C 
ATOM     35  H13 K26 d          -6.190  24.230  -9.488  0.00  0.00     0.043 H 
BRANCH  34  36
ATOM     36  CAC K26 d          -6.074  26.327  -9.003  0.00  0.00    -0.071 C 
ATOM     37  H14 K26 d          -5.005  26.099  -8.873  0.00  0.00     0.028 H 
ATOM     38  H15 K26 d          -6.435  26.897  -8.135  0.00  0.00     0.028 H 
ATOM     39  H16 K26 d          -6.212  26.924  -9.917  0.00  0.00     0.028 H 
ENDBRANCH  34  36
BRANCH  34  40
ATOM     40  CAT K26 d          -7.403  24.599  -7.744  0.00  0.00    -0.063 C 
ATOM     41  H17 K26 d          -6.935  23.645  -7.459  0.00  0.00     0.033 H 
ATOM     42  H18 K26 d          -8.492  24.465  -7.818  0.00  0.00     0.033 H 
BRANCH  40  43
ATOM     43  CAA K26 d          -7.109  25.633  -6.658  0.00  0.00    -0.076 C 
ATOM     44  H19 K26 d          -6.061  25.538  -6.337  0.00  0.00     0.027 H 
ATOM     45  H20 K26 d          -7.773  25.461  -5.798  0.00  0.00     0.027 H 
ATOM     46  H21 K26 d          -7.281  26.643  -7.058  0.00  0.00     0.027 H 
ENDBRANCH  40  43
ENDBRANCH  34  40
ENDBRANCH  32  34
BRANCH  32  47
ATOM     47  NAX K26 d          -9.333  24.980  -9.510  0.00  0.00    -0.348 N 
ATOM     48  CAZ K26 d         -10.428  25.606  -9.947  0.00  0.00     0.214 C 
ATOM     49  OAD K26 d         -10.432  26.445 -10.846  0.00  0.00    -0.274 OA
ATOM     50  H22 K26 d          -9.413  24.350  -8.737  0.00  0.00     0.163 HD
BRANCH  48  51
ATOM     51  CAB K26 d         -11.725  25.241  -9.223  0.00  0.00    -0.003 C 
ATOM     52  H23 K26 d         -11.661  25.559  -8.172  0.00  0.00     0.040 H 
ATOM     53  H24 K26 d         -11.876  24.152  -9.268  0.00  0.00     0.040 H 
ATOM     54  H25 K26 d         -12.572  25.749  -9.709  0.00  0.00     0.040 H 
ENDBRANCH  48  51
ENDBRANCH  32  47
ENDBRANCH  29  32
ENDBRANCH   1  28
BRANCH   1  55
ATOM     55  CB  K26 d          -9.954  23.988 -14.289  0.00  0.00    -0.014 C 
ATOM     56  H26 K26 d          -9.995  23.457 -15.252  0.00  0.00     0.043 H 
ATOM     57  H27 K26 d         -10.186  25.051 -14.448  0.00  0.00     0.043 H 
BRANCH  55  58
ATOM     58  CG  K26 d         -10.976  23.376 -13.318  0.00  0.00    -0.056 A 
ATOM     59  CD1 K26 d         -10.709  22.152 -12.707  0.00  0.00    -0.074 A 
ATOM     60  CE1 K26 d         -11.628  21.600 -11.811  0.00  0.00    -0.051 A 
ATOM     61  H28 K26 d          -9.786  21.628 -12.928  0.00  0.00     0.084 H 
ATOM     62  CZ  K26 d         -12.816  22.272 -11.522  0.00  0.00     0.065 A 
ATOM     63  H29 K26 d         -11.417  20.647 -11.339  0.00  0.00     0.087 H 
ATOM     64  CE2 K26 d         -13.079  23.499 -12.129  0.00  0.00    -0.051 A 
ATOM     65  CD2 K26 d         -12.160  24.054 -13.022  0.00  0.00    -0.074 A 
ATOM     66  H31 K26 d         -14.001  24.024 -11.907  0.00  0.00     0.087 H 
ATOM     67  H32 K26 d         -12.366  25.013 -13.486  0.00  0.00     0.084 H 
BRANCH  62  68
ATOM     68  OH  K26 d         -13.718  21.722 -10.652  0.00  0.00    -0.361 OA
ATOM     69  H30 K26 d         -13.266  21.436  -9.868  0.00  0.00     0.217 HD
ENDBRANCH  62  68
ENDBRANCH  55  58
ENDBRANCH   1  55
TORSDOF 17
ENDMDL
MODEL 3
REMARK VINA RESULT:      -7.5      2.286      4.188
REMARK  17 active torsions:
REMARK  status: ('A' for Active; 'I' for Inactive)
REMARK    1  A    between atoms: CBD_3  and  OAI_4 
REMARK    2  A    between atoms: CBF_7  and  CAV_8 
REMARK    3  A    between atoms: CAV_8  and  CBI_9 
REMARK    4  A    between atoms: CBI_9  and  PBK_10 
REMARK    5  A    between atoms: CBI_9  and  NAY_14 
REMARK       I    between atoms: NAY_14  and  C_15 
REMARK    6  A    between atoms: C_15  and  CA_17 
REMARK    7  A    between atoms: CA_17  and  N_18 
REMARK    8  A    between atoms: CA_17  and  CB_30 
REMARK       I    between atoms: N_18  and  CBB_19 
REMARK    9  A    between atoms: CBB_19  and  CBJ_21 
REMARK   10  A    between atoms: CBJ_21  and  CBG_22 
REMARK   11  A    between atoms: CBJ_21  and  NAX_26 
REMARK   12  A    between atoms: CBG_22  and  CAC_23 
REMARK   13  A    between atoms: CBG_22  and  CAT_24 
REMARK   14  A    between atoms: CAT_24  and  CAA_25 
REMARK       I    between atoms: NAX_26  and  CAZ_27 
REMARK   15  A    between atoms: CAZ_27  and  CAB_28 
REMARK   16  A    between atoms: CB_30  and  CG_31 
REMARK   17  A    between atoms: CZ_34  and  OH_35 
ROOT
ATOM      1  CA  K26 d          -9.017  22.389 -13.778  0.00  0.00     0.093 C 
ATOM      2  H10 K26 d          -8.820  21.522 -13.130  0.00  0.00     0.088 H 
ENDROOT
BRANCH   1   3
ATOM      3  C   K26 d          -7.762  23.264 -13.821  0.00  0.00     0.241 C 
ATOM      4  NAY K26 d          -6.603  22.601 -13.766  0.00  0.00    -0.342 N 
ATOM      5  H9  K26 d          -6.617  21.602 -13.785  0.00  0.00     0.163 HD
ATOM      6  O   K26 d          -7.871  24.490 -13.862  0.00  0.00    -0.271 OA
BRANCH   4   7
ATOM      7  CBI K26 d          -5.306  23.292 -13.678  0.00  0.00     0.124 C 
ATOM      8  H8  K26 d          -5.481  24.354 -13.452  0.00  0.00     0.095 H 
BRANCH   7   9
ATOM      9  CAV K26 d          -4.511  22.663 -12.510  0.00  0.00    -0.010 C 
ATOM     10  H6  K26 d          -5.056  21.780 -12.143  0.00  0.00     0.044 H 
ATOM     11  H7  K26 d          -3.521  22.356 -12.877  0.00  0.00     0.044 H 
BRANCH   9  12
ATOM     12  CBF K26 d          -4.328  23.654 -11.349  0.00  0.00    -0.055 A 
ATOM     13  CAR K26 d          -5.399  23.917 -10.499  0.00  0.00    -0.074 A 
ATOM     14  CAN K26 d          -5.252  24.802  -9.434  0.00  0.00    -0.051 A 
ATOM     15  H1  K26 d          -6.353  23.430 -10.667  0.00  0.00     0.084 H 
ATOM     16  CBD K26 d          -4.025  25.428  -9.214  0.00  0.00     0.065 A 
ATOM     17  H2  K26 d          -6.090  25.003  -8.776  0.00  0.00     0.087 H 
ATOM     18  CAO K26 d          -2.939  25.165 -10.055  0.00  0.00    -0.051 A 
ATOM     19  CAS K26 d          -3.095  24.281 -11.122  0.00  0.00    -0.074 A 
ATOM     20  H4  K26 d          -1.983  25.645  -9.878  0.00  0.00     0.087 H 
ATOM     21  H5  K26 d          -2.257  24.077 -11.781  0.00  0.00     0.084 H 
BRANCH  16  22
ATOM     22  OAI K26 d          -3.898  26.292  -8.170  0.00  0.00    -0.361 OA
ATOM     23  H3  K26 d          -3.496  27.097  -8.474  0.00  0.00     0.217 HD
ENDBRANCH  16  22
ENDBRANCH   9  12
ENDBRANCH   7   9
BRANCH   7  24
ATOM     24  PBK K26 d          -4.398  23.191 -15.278  0.00  0.00     0.283 P 
ATOM     25  OAJ K26 d          -4.349  24.669 -15.843  0.00  0.00    -0.638 OA
ATOM     26  OAK K26 d          -2.886  22.771 -14.830  0.00  0.00    -0.638 OA
ATOM     27  OAG K26 d          -5.012  22.241 -16.244  0.00  0.00    -0.638 OA
ENDBRANCH   7  24
ENDBRANCH   4   7
ENDBRANCH   1   3
BRANCH   1  28
ATOM     28  N   K26 d         -10.130  23.177 -13.208  0.00  0.00    -0.346 N 
ATOM     29  CBB K26 d         -10.442  23.207 -11.906  0.00  0.00     0.241 C 
ATOM     30  OAF K26 d          -9.863  22.565 -11.029  0.00  0.00    -0.271 OA
ATOM     31  H11 K26 d         -10.685  23.723 -13.835  0.00  0.00     0.163 HD
BRANCH  29  32
ATOM     32  CBJ K26 d         -11.675  24.062 -11.565  0.00  0.00     0.092 C 
ATOM     33  H12 K26 d         -12.104  24.451 -12.500  0.00  0.00     0.088 H 
BRANCH  32  34
ATOM     34  CBG K26 d         -11.336  25.265 -10.676  0.00  0.00    -0.030 C 
ATOM     35  H13 K26 d         -10.836  24.898  -9.767  0.00  0.00     0.043 H 
BRANCH  34  36
ATOM     36  CAC K26 d         -10.382  26.211 -11.415  0.00  0.00    -0.071 C 
ATOM     37  H14 K26 d         -10.937  27.097 -11.757  0.00  0.00     0.028 H 
ATOM     38  H15 K26 d          -9.950  25.691 -12.283  0.00  0.00     0.028 H 
ATOM     39  H16 K26 d          -9.575  26.522 -10.736  0.00  0.00     0.028 H 
ENDBRANCH  34  36
BRANCH  34  40
ATOM     40  CAT K26 d         -12.611  26.018 -10.260  0.00  0.00    -0.063 C 
ATOM     41  H17 K26 d         -13.469  25.576 -10.788  0.00  0.00     0.033 H 
ATOM     42  H18 K26 d         -12.506  27.073 -10.550  0.00  0.00     0.033 H 
BRANCH  40  43
ATOM     43  CAA K26 d         -12.872  25.946  -8.756  0.00  0.00    -0.076 C 
ATOM     44  H19 K26 d         -13.426  25.026  -8.524  0.00  0.00     0.027 H 
ATOM     45  H20 K26 d         -13.464  26.819  -8.445  0.00  0.00     0.027 H 
ATOM     46  H21 K26 d         -11.912  25.943  -8.217  0.00  0.00     0.027 H 
ENDBRANCH  40  43
ENDBRANCH  34  40
ENDBRANCH  32  34
BRANCH  32  47
ATOM     47  NAX K26 d         -12.655  23.158 -10.932  0.00  0.00    -0.348 N 
ATOM     48  CAZ K26 d         -13.868  22.950 -11.450  0.00  0.00     0.214 C 
ATOM     49  OAD K26 d         -14.302  23.525 -12.446  0.00  0.00    -0.274 OA
ATOM     50  H22 K26 d         -12.403  22.685 -10.087  0.00  0.00     0.163 HD
BRANCH  48  51
ATOM     51  CAB K26 d         -14.741  21.947 -10.692  0.00  0.00    -0.003 C 
ATOM     52  H23 K26 d         -14.366  21.838  -9.664  0.00  0.00     0.040 H 
ATOM     53  H24 K26 d         -14.705  20.973 -11.201  0.00  0.00     0.040 H 
ATOM     54  H25 K26 d         -15.779  22.311 -10.668  0.00  0.00     0.040 H 
ENDBRANCH  48  51
ENDBRANCH  32  47
ENDBRANCH  29  32
ENDBRANCH   1  28
BRANCH   1  55
ATOM     55  CB  K26 d          -9.412  21.883 -15.159  0.00  0.00    -0.014 C 
ATOM     56  H26 K26 d         -10.309  21.252 -15.079  0.00  0.00     0.043 H 
ATOM     57  H27 K26 d          -8.587  21.294 -15.587  0.00  0.00     0.043 H 
BRANCH  55  58
ATOM     58  CG  K26 d          -9.708  23.090 -16.064  0.00  0.00    -0.056 A 
ATOM     59  CD1 K26 d         -10.905  23.788 -15.921  0.00  0.00    -0.074 A 
ATOM     60  CE1 K26 d         -11.172  24.896 -16.729  0.00  0.00    -0.051 A 
ATOM     61  H28 K26 d         -11.631  23.472 -15.180  0.00  0.00     0.084 H 
ATOM     62  CZ  K26 d         -10.240  25.309 -17.683  0.00  0.00     0.065 A 
ATOM     63  H29 K26 d         -12.105  25.436 -16.617  0.00  0.00     0.087 H 
ATOM     64  CE2 K26 d          -9.040  24.612 -17.821  0.00  0.00    -0.051 A 
ATOM     65  CD2 K26 d          -8.770  23.507 -17.010  0.00  0.00    -0.074 A 
ATOM     66  H31 K26 d          -8.314  24.930 -18.560  0.00  0.00     0.087 H 
ATOM     67  H32 K26 d          -7.832  22.973 -17.115  0.00  0.00     0.084 H 
BRANCH  62  68
ATOM     68  OH  K26 d         -10.510  26.387 -18.481  0.00  0.00    -0.361 OA
ATOM     69  H30 K26 d          -9.805  27.019 -18.406  0.00  0.00     0.217 HD
ENDBRANCH  62  68
ENDBRANCH  55  58
ENDBRANCH   1  55
TORSDOF 17
ENDMDL
MODEL 4
REMARK VINA RESULT:      -7.5      2.781      7.106
REMARK  17 active torsions:
REMARK  status: ('A' for Active; 'I' for Inactive)
REMARK    1  A    between atoms: CBD_3  and  OAI_4 
REMARK    2  A    between atoms: CBF_7  and  CAV_8 
REMARK    3  A    between atoms: CAV_8  and  CBI_9 
REMARK    4  A    between atoms: CBI_9  and  PBK_10 
REMARK    5  A    between atoms: CBI_9  and  NAY_14 
REMARK       I    between atoms: NAY_14  and  C_15 
REMARK    6  A    between atoms: C_15  and  CA_17 
REMARK    7  A    between atoms: CA_17  and  N_18 
REMARK    8  A    between atoms: CA_17  and  CB_30 
REMARK       I    between atoms: N_18  and  CBB_19 
REMARK    9  A    between atoms: CBB_19  and  CBJ_21 
REMARK   10  A    between atoms: CBJ_21  and  CBG_22 
REMARK   11  A    between atoms: CBJ_21  and  NAX_26 
REMARK   12  A    between atoms: CBG_22  and  CAC_23 
REMARK   13  A    between atoms: CBG_22  and  CAT_24 
REMARK   14  A    between atoms: CAT_24  and  CAA_25 
REMARK       I    between atoms: NAX_26  and  CAZ_27 
REMARK   15  A    between atoms: CAZ_27  and  CAB_28 
REMARK   16  A    between atoms: CB_30  and  CG_31 
REMARK   17  A    between atoms: CZ_34  and  OH_35 
ROOT
ATOM      1  CA  K26 d          -8.020  23.791 -12.891  0.00  0.00     0.093 C 
ATOM      2  H10 K26 d          -8.319  22.843 -12.420  0.00  0.00     0.088 H 
ENDROOT
BRANCH   1   3
ATOM      3  C   K26 d          -7.034  23.487 -14.021  0.00  0.00     0.241 C 
ATOM      4  NAY K26 d          -7.306  24.074 -15.190  0.00  0.00    -0.342 N 
ATOM      5  H9  K26 d          -8.064  24.724 -15.238  0.00  0.00     0.163 HD
ATOM      6  O   K26 d          -6.094  22.715 -13.822  0.00  0.00    -0.271 OA
BRANCH   4   7
ATOM      7  CBI K26 d          -6.530  23.796 -16.409  0.00  0.00     0.124 C 
ATOM      8  H8  K26 d          -5.769  23.033 -16.183  0.00  0.00     0.095 H 
BRANCH   7   9
ATOM      9  CAV K26 d          -7.499  23.227 -17.470  0.00  0.00    -0.010 C 
ATOM     10  H6  K26 d          -7.060  23.372 -18.468  0.00  0.00     0.044 H 
ATOM     11  H7  K26 d          -7.642  22.152 -17.285  0.00  0.00     0.044 H 
BRANCH   9  12
ATOM     12  CBF K26 d          -8.867  23.926 -17.422  0.00  0.00    -0.055 A 
ATOM     13  CAR K26 d          -9.079  25.071 -18.187  0.00  0.00    -0.074 A 
ATOM     14  CAN K26 d         -10.314  25.713 -18.168  0.00  0.00    -0.051 A 
ATOM     15  H1  K26 d          -8.276  25.463 -18.802  0.00  0.00     0.084 H 
ATOM     16  CBD K26 d         -11.348  25.209 -17.379  0.00  0.00     0.065 A 
ATOM     17  H2  K26 d         -10.472  26.604 -18.765  0.00  0.00     0.087 H 
ATOM     18  CAO K26 d         -11.152  24.055 -16.613  0.00  0.00    -0.051 A 
ATOM     19  CAS K26 d          -9.911  23.419 -16.634  0.00  0.00    -0.074 A 
ATOM     20  H4  K26 d         -11.959  23.659 -16.007  0.00  0.00     0.087 H 
ATOM     21  H5  K26 d          -9.751  22.527 -16.039  0.00  0.00     0.084 H 
BRANCH  16  22
ATOM     22  OAI K26 d         -12.549  25.850 -17.369  0.00  0.00    -0.361 OA
ATOM     23  H3  K26 d         -12.669  26.281 -16.531  0.00  0.00     0.217 HD
ENDBRANCH  16  22
ENDBRANCH   9  12
ENDBRANCH   7   9
BRANCH   7  24
ATOM     24  PBK K26 d          -5.661  25.312 -16.994  0.00  0.00     0.283 P 
ATOM     25  OAJ K26 d          -6.441  26.532 -16.354  0.00  0.00    -0.638 OA
ATOM     26  OAK K26 d          -4.200  25.213 -16.276  0.00  0.00    -0.638 OA
ATOM     27  OAG K26 d          -5.584  25.410 -18.477  0.00  0.00    -0.638 OA
ENDBRANCH   7  24
ENDBRANCH   4   7
ENDBRANCH   1   3
BRANCH   1  28
ATOM     28  N   K26 d          -7.350  24.642 -11.887  0.00  0.00    -0.346 N 
ATOM     29  CBB K26 d          -6.695  24.173 -10.817  0.00  0.00     0.241 C 
ATOM     30  OAF K26 d          -6.594  22.981 -10.523  0.00  0.00    -0.271 OA
ATOM     31  H11 K26 d          -7.388  25.634 -12.014  0.00  0.00     0.163 HD
BRANCH  29  32
ATOM     32  CBJ K26 d          -6.124  25.260  -9.890  0.00  0.00     0.092 C 
ATOM     33  H12 K26 d          -6.650  26.205 -10.089  0.00  0.00     0.088 H 
BRANCH  32  34
ATOM     34  CBG K26 d          -4.627  25.506 -10.114  0.00  0.00    -0.030 C 
ATOM     35  H13 K26 d          -4.511  26.369 -10.787  0.00  0.00     0.043 H 
BRANCH  34  36
ATOM     36  CAC K26 d          -3.944  25.828  -8.780  0.00  0.00    -0.071 C 
ATOM     37  H14 K26 d          -3.465  26.817  -8.842  0.00  0.00     0.028 H 
ATOM     38  H15 K26 d          -3.182  25.065  -8.564  0.00  0.00     0.028 H 
ATOM     39  H16 K26 d          -4.694  25.834  -7.975  0.00  0.00     0.028 H 
ENDBRANCH  34  36
BRANCH  34  40
ATOM     40  CAT K26 d          -3.962  24.284 -10.769  0.00  0.00    -0.063 C 
ATOM     41  H17 K26 d          -4.602  23.934 -11.592  0.00  0.00     0.033 H 
ATOM     42  H18 K26 d          -3.866  23.490 -10.014  0.00  0.00     0.033 H 
BRANCH  40  43
ATOM     43  CAA K26 d          -2.574  24.599 -11.327  0.00  0.00    -0.076 C 
ATOM     44  H19 K26 d          -2.668  25.305 -12.164  0.00  0.00     0.027 H 
ATOM     45  H20 K26 d          -2.102  23.671 -11.681  0.00  0.00     0.027 H 
ATOM     46  H21 K26 d          -1.954  25.047 -10.536  0.00  0.00     0.027 H 
ENDBRANCH  40  43
ENDBRANCH  34  40
ENDBRANCH  32  34
BRANCH  32  47
ATOM     47  NAX K26 d          -6.419  24.834  -8.507  0.00  0.00    -0.348 N 
ATOM     48  CAZ K26 d          -7.574  25.125  -7.906  0.00  0.00     0.214 C 
ATOM     49  OAD K26 d          -8.461  25.814  -8.407  0.00  0.00    -0.274 OA
ATOM     50  H22 K26 d          -5.731  24.310  -8.005  0.00  0.00     0.163 HD
BRANCH  48  51
ATOM     51  CAB K26 d          -7.735  24.568  -6.490  0.00  0.00    -0.003 C 
ATOM     52  H23 K26 d          -6.744  24.450  -6.028  0.00  0.00     0.040 H 
ATOM     53  H24 K26 d          -8.237  23.590  -6.536  0.00  0.00     0.040 H 
ATOM     54  H25 K26 d          -8.340  25.263  -5.889  0.00  0.00     0.040 H 
ENDBRANCH  48  51
ENDBRANCH  32  47
ENDBRANCH  29  32
ENDBRANCH   1  28
BRANCH   1  55
ATOM     55  CB  K26 d          -9.272  24.496 -13.396  0.00  0.00    -0.014 C 
ATOM     56  H26 K26 d          -9.289  24.476 -14.496  0.00  0.00     0.043 H 
ATOM     57  H27 K26 d          -9.275  25.540 -13.049  0.00  0.00     0.043 H 
BRANCH  55  58
ATOM     58  CG  K26 d         -10.509  23.766 -12.847  0.00  0.00    -0.056 A 
ATOM     59  CD1 K26 d         -11.767  24.356 -12.950  0.00  0.00    -0.074 A 
ATOM     60  CE1 K26 d         -12.896  23.690 -12.467  0.00  0.00    -0.051 A 
ATOM     61  H28 K26 d         -11.870  25.335 -13.405  0.00  0.00     0.084 H 
ATOM     62  CZ  K26 d         -12.769  22.429 -11.881  0.00  0.00     0.065 A 
ATOM     63  H29 K26 d         -13.873  24.153 -12.546  0.00  0.00     0.087 H 
ATOM     64  CE2 K26 d         -11.510  21.838 -11.785  0.00  0.00    -0.051 A 
ATOM     65  CD2 K26 d         -10.381  22.501 -12.271  0.00  0.00    -0.074 A 
ATOM     66  H31 K26 d         -11.407  20.859 -11.331  0.00  0.00     0.087 H 
ATOM     67  H32 K26 d          -9.405  22.033 -12.201  0.00  0.00     0.084 H 
BRANCH  62  68
ATOM     68  OH  K26 d         -13.875  21.785 -11.399  0.00  0.00    -0.361 OA
ATOM     69  H30 K26 d         -14.657  22.207 -11.733  0.00  0.00     0.217 HD
ENDBRANCH  62  68
ENDBRANCH  55  58
ENDBRANCH   1  55
TORSDOF 17
ENDMDL
MODEL 5
REMARK VINA RESULT:      -7.1      1.844      5.626
REMARK  17 active torsions:
REMARK  status: ('A' for Active; 'I' for Inactive)
REMARK    1  A    between atoms: CBD_3  and  OAI_4 
REMARK    2  A    between atoms: CBF_7  and  CAV_8 
REMARK    3  A    between atoms: CAV_8  and  CBI_9 
REMARK    4  A    between atoms: CBI_9  and  PBK_10 
REMARK    5  A    between atoms: CBI_9  and  NAY_14 
REMARK       I    between atoms: NAY_14  and  C_15 
REMARK    6  A    between atoms: C_15  and  CA_17 
REMARK    7  A    between atoms: CA_17  and  N_18 
REMARK    8  A    between atoms: CA_17  and  CB_30 
REMARK       I    between atoms: N_18  and  CBB_19 
REMARK    9  A    between atoms: CBB_19  and  CBJ_21 
REMARK   10  A    between atoms: CBJ_21  and  CBG_22 
REMARK   11  A    between atoms: CBJ_21  and  NAX_26 
REMARK   12  A    between atoms: CBG_22  and  CAC_23 
REMARK   13  A    between atoms: CBG_22  and  CAT_24 
REMARK   14  A    between atoms: CAT_24  and  CAA_25 
REMARK       I    between atoms: NAX_26  and  CAZ_27 
REMARK   15  A    between atoms: CAZ_27  and  CAB_28 
REMARK   16  A    between atoms: CB_30  and  CG_31 
REMARK   17  A    between atoms: CZ_34  and  OH_35 
ROOT
ATOM      1  CA  K26 d          -9.086  23.427 -11.610  0.00  0.00     0.093 C 
ATOM      2  H10 K26 d          -9.678  24.354 -11.620  0.00  0.00     0.088 H 
ENDROOT
BRANCH   1   3
ATOM      3  C   K26 d          -8.045  23.523 -10.491  0.00  0.00     0.241 C 
ATOM      4  NAY K26 d          -7.558  24.747 -10.269  0.00  0.00    -0.342 N 
ATOM      5  H9  K26 d          -7.947  25.520 -10.769  0.00  0.00     0.163 HD
ATOM      6  O   K26 d          -7.690  22.505  -9.897  0.00  0.00    -0.271 OA
BRANCH   4   7
ATOM      7  CBI K26 d          -6.467  24.997  -9.313  0.00  0.00     0.124 C 
ATOM      8  H8  K26 d          -5.962  24.045  -9.089  0.00  0.00     0.095 H 
BRANCH   7   9
ATOM      9  CAV K26 d          -5.452  25.948  -9.988  0.00  0.00    -0.010 C 
ATOM     10  H6  K26 d          -6.003  26.725 -10.538  0.00  0.00     0.044 H 
ATOM     11  H7  K26 d          -4.831  26.418  -9.212  0.00  0.00     0.044 H 
BRANCH   9  12
ATOM     12  CBF K26 d          -4.538  25.197 -10.970  0.00  0.00    -0.055 A 
ATOM     13  CAR K26 d          -4.564  23.804 -11.001  0.00  0.00    -0.074 A 
ATOM     14  CAN K26 d          -3.753  23.104 -11.890  0.00  0.00    -0.051 A 
ATOM     15  H1  K26 d          -5.219  23.263 -10.328  0.00  0.00     0.084 H 
ATOM     16  CBD K26 d          -2.910  23.798 -12.758  0.00  0.00     0.065 A 
ATOM     17  H2  K26 d          -3.777  22.020 -11.908  0.00  0.00     0.087 H 
ATOM     18  CAO K26 d          -2.882  25.196 -12.744  0.00  0.00    -0.051 A 
ATOM     19  CAS K26 d          -3.693  25.891 -11.847  0.00  0.00    -0.074 A 
ATOM     20  H4  K26 d          -2.233  25.736 -13.424  0.00  0.00     0.087 H 
ATOM     21  H5  K26 d          -3.671  26.976 -11.828  0.00  0.00     0.084 H 
BRANCH  16  22
ATOM     22  OAI K26 d          -2.123  23.099 -13.620  0.00  0.00    -0.361 OA
ATOM     23  H3  K26 d          -2.316  22.172 -13.542  0.00  0.00     0.217 HD
ENDBRANCH  16  22
ENDBRANCH   9  12
ENDBRANCH   7   9
BRANCH   7  24
ATOM     24  PBK K26 d          -7.123  25.681  -7.732  0.00  0.00     0.283 P 
ATOM     25  OAJ K26 d          -7.522  24.428  -6.851  0.00  0.00    -0.638 OA
ATOM     26  OAK K26 d          -5.816  26.382  -7.052  0.00  0.00    -0.638 OA
ATOM     27  OAG K26 d          -8.261  26.619  -7.925  0.00  0.00    -0.638 OA
ENDBRANCH   7  24
ENDBRANCH   4   7
ENDBRANCH   1   3
BRANCH   1  28
ATOM     28  N   K26 d          -8.386  23.284 -12.903  0.00  0.00    -0.346 N 
ATOM     29  CBB K26 d          -7.962  24.313 -13.648  0.00  0.00     0.241 C 
ATOM     30  OAF K26 d          -8.125  25.500 -13.364  0.00  0.00    -0.271 OA
ATOM     31  H11 K26 d          -8.218  22.360 -13.244  0.00  0.00     0.163 HD
BRANCH  29  32
ATOM     32  CBJ K26 d          -7.304  23.909 -14.979  0.00  0.00     0.092 C 
ATOM     33  H12 K26 d          -7.422  22.824 -15.116  0.00  0.00     0.088 H 
BRANCH  32  34
ATOM     34  CBG K26 d          -5.803  24.221 -15.019  0.00  0.00    -0.030 C 
ATOM     35  H13 K26 d          -5.427  24.266 -13.986  0.00  0.00     0.043 H 
BRANCH  34  36
ATOM     36  CAC K26 d          -5.057  23.108 -15.765  0.00  0.00    -0.071 C 
ATOM     37  H14 K26 d          -5.326  23.137 -16.832  0.00  0.00     0.028 H 
ATOM     38  H15 K26 d          -5.336  22.132 -15.343  0.00  0.00     0.028 H 
ATOM     39  H16 K26 d          -3.972  23.257 -15.657  0.00  0.00     0.028 H 
ENDBRANCH  34  36
BRANCH  34  40
ATOM     40  CAT K26 d          -5.541  25.578 -15.693  0.00  0.00    -0.063 C 
ATOM     41  H17 K26 d          -5.765  26.378 -14.972  0.00  0.00     0.033 H 
ATOM     42  H18 K26 d          -6.207  25.672 -16.564  0.00  0.00     0.033 H 
BRANCH  40  43
ATOM     43  CAA K26 d          -4.095  25.731 -16.163  0.00  0.00    -0.076 C 
ATOM     44  H19 K26 d          -3.559  26.410 -15.483  0.00  0.00     0.027 H 
ATOM     45  H20 K26 d          -4.083  26.148 -17.181  0.00  0.00     0.027 H 
ATOM     46  H21 K26 d          -3.603  24.748 -16.164  0.00  0.00     0.027 H 
ENDBRANCH  40  43
ENDBRANCH  34  40
ENDBRANCH  32  34
BRANCH  32  47
ATOM     47  NAX K26 d          -8.048  24.607 -16.047  0.00  0.00    -0.348 N 
ATOM     48  CAZ K26 d          -9.068  24.036 -16.690  0.00  0.00     0.214 C 
ATOM     49  OAD K26 d          -9.441  22.879 -16.508  0.00  0.00    -0.274 OA
ATOM     50  H22 K26 d          -7.779  25.538 -16.296  0.00  0.00     0.163 HD
BRANCH  48  51
ATOM     51  CAB K26 d          -9.758  24.916 -17.736  0.00  0.00    -0.003 C 
ATOM     52  H23 K26 d         -10.470  24.309 -18.314  0.00  0.00     0.040 H 
ATOM     53  H24 K26 d          -9.002  25.340 -18.413  0.00  0.00     0.040 H 
ATOM     54  H25 K26 d         -10.297  25.731 -17.231  0.00  0.00     0.040 H 
ENDBRANCH  48  51
ENDBRANCH  32  47
ENDBRANCH  29  32
ENDBRANCH   1  28
BRANCH   1  55
ATOM     55  CB  K26 d         -10.032  22.250 -11.414  0.00  0.00    -0.014 C 
ATOM     56  H26 K26 d          -9.640  21.587 -10.629  0.00  0.00     0.043 H 
ATOM     57  H27 K26 d         -10.123  21.688 -12.356  0.00  0.00     0.043 H 
BRANCH  55  58
ATOM     58  CG  K26 d         -11.411  22.785 -10.997  0.00  0.00    -0.056 A 
ATOM     59  CD1 K26 d         -11.504  23.809 -10.057  0.00  0.00    -0.074 A 
ATOM     60  CE1 K26 d         -12.754  24.311  -9.687  0.00  0.00    -0.051 A 
ATOM     61  H28 K26 d         -10.604  24.218  -9.612  0.00  0.00     0.084 H 
ATOM     62  CZ  K26 d         -13.916  23.790 -10.259  0.00  0.00     0.065 A 
ATOM     63  H29 K26 d         -12.823  25.106  -8.954  0.00  0.00     0.087 H 
ATOM     64  CE2 K26 d         -13.821  22.769 -11.204  0.00  0.00    -0.051 A 
ATOM     65  CD2 K26 d         -12.571  22.269 -11.578  0.00  0.00    -0.074 A 
ATOM     66  H31 K26 d         -14.721  22.362 -11.651  0.00  0.00     0.087 H 
ATOM     67  H32 K26 d         -12.502  21.481 -12.320  0.00  0.00     0.084 H 
BRANCH  62  68
ATOM     68  OH  K26 d         -15.139  24.275  -9.886  0.00  0.00    -0.361 OA
ATOM     69  H30 K26 d         -15.340  25.050 -10.396  0.00  0.00     0.217 HD
ENDBRANCH  62  68
ENDBRANCH  55  58
ENDBRANCH   1  55
TORSDOF 17
ENDMDL
MODEL 6
REMARK VINA RESULT:      -7.1      2.670      6.513
REMARK  17 active torsions:
REMARK  status: ('A' for Active; 'I' for Inactive)
REMARK    1  A    between atoms: CBD_3  and  OAI_4 
REMARK    2  A    between atoms: CBF_7  and  CAV_8 
REMARK    3  A    between atoms: CAV_8  and  CBI_9 
REMARK    4  A    between atoms: CBI_9  and  PBK_10 
REMARK    5  A    between atoms: CBI_9  and  NAY_14 
REMARK       I    between atoms: NAY_14  and  C_15 
REMARK    6  A    between atoms: C_15  and  CA_17 
REMARK    7  A    between atoms: CA_17  and  N_18 
REMARK    8  A    between atoms: CA_17  and  CB_30 
REMARK       I    between atoms: N_18  and  CBB_19 
REMARK    9  A    between atoms: CBB_19  and  CBJ_21 
REMARK   10  A    between atoms: CBJ_21  and  CBG_22 
REMARK   11  A    between atoms: CBJ_21  and  NAX_26 
REMARK   12  A    between atoms: CBG_22  and  CAC_23 
REMARK   13  A    between atoms: CBG_22  and  CAT_24 
REMARK   14  A    between atoms: CAT_24  and  CAA_25 
REMARK       I    between atoms: NAX_26  and  CAZ_27 
REMARK   15  A    between atoms: CAZ_27  and  CAB_28 
REMARK   16  A    between atoms: CB_30  and  CG_31 
REMARK   17  A    between atoms: CZ_34  and  OH_35 
ROOT
ATOM      1  CA  K26 d          -7.731  23.832 -12.445  0.00  0.00     0.093 C 
ATOM      2  H10 K26 d          -8.283  22.900 -12.249  0.00  0.00     0.088 H 
ENDROOT
BRANCH   1   3
ATOM      3  C   K26 d          -6.553  23.519 -13.371  0.00  0.00     0.241 C 
ATOM      4  NAY K26 d          -6.641  24.035 -14.600  0.00  0.00    -0.342 N 
ATOM      5  H9  K26 d          -7.402  24.648 -14.813  0.00  0.00     0.163 HD
ATOM      6  O   K26 d          -5.635  22.801 -12.972  0.00  0.00    -0.271 OA
BRANCH   4   7
ATOM      7  CBI K26 d          -5.655  23.735 -15.652  0.00  0.00     0.124 C 
ATOM      8  H8  K26 d          -4.940  22.992 -15.268  0.00  0.00     0.095 H 
BRANCH   7   9
ATOM      9  CAV K26 d          -6.413  23.119 -16.850  0.00  0.00    -0.010 C 
ATOM     10  H6  K26 d          -5.934  23.450 -17.783  0.00  0.00     0.044 H 
ATOM     11  H7  K26 d          -6.360  22.022 -16.780  0.00  0.00     0.044 H 
BRANCH   9  12
ATOM     12  CBF K26 d          -7.889  23.546 -16.869  0.00  0.00    -0.055 A 
ATOM     13  CAR K26 d          -8.847  22.726 -16.275  0.00  0.00    -0.074 A 
ATOM     14  CAN K26 d         -10.188  23.100 -16.269  0.00  0.00    -0.051 A 
ATOM     15  H1  K26 d          -8.545  21.793 -15.815  0.00  0.00     0.084 H 
ATOM     16  CBD K26 d         -10.578  24.302 -16.860  0.00  0.00     0.065 A 
ATOM     17  H2  K26 d         -10.928  22.457 -15.807  0.00  0.00     0.087 H 
ATOM     18  CAO K26 d          -9.626  25.138 -17.451  0.00  0.00    -0.051 A 
ATOM     19  CAS K26 d          -8.284  24.756 -17.456  0.00  0.00    -0.074 A 
ATOM     20  H4  K26 d          -9.929  26.077 -17.902  0.00  0.00     0.087 H 
ATOM     21  H5  K26 d          -7.542  25.399 -17.918  0.00  0.00     0.084 H 
BRANCH  16  22
ATOM     22  OAI K26 d         -11.893  24.652 -16.848  0.00  0.00    -0.361 OA
ATOM     23  H3  K26 d         -12.288  24.423 -17.681  0.00  0.00     0.217 HD
ENDBRANCH  16  22
ENDBRANCH   9  12
ENDBRANCH   7   9
BRANCH   7  24
ATOM     24  PBK K26 d          -4.713  25.248 -16.121  0.00  0.00     0.283 P 
ATOM     25  OAJ K26 d          -5.325  26.424 -15.256  0.00  0.00    -0.638 OA
ATOM     26  OAK K26 d          -3.209  24.943 -15.567  0.00  0.00    -0.638 OA
ATOM     27  OAG K26 d          -4.758  25.540 -17.578  0.00  0.00    -0.638 OA
ENDBRANCH   7  24
ENDBRANCH   4   7
ENDBRANCH   1   3
BRANCH   1  28
ATOM     28  N   K26 d          -7.209  24.363 -11.170  0.00  0.00    -0.346 N 
ATOM     29  CBB K26 d          -7.111  23.650 -10.040  0.00  0.00     0.241 C 
ATOM     30  OAF K26 d          -7.467  22.478  -9.916  0.00  0.00    -0.271 OA
ATOM     31  H11 K26 d          -6.909  25.317 -11.148  0.00  0.00     0.163 HD
BRANCH  29  32
ATOM     32  CBJ K26 d          -6.582  24.441  -8.830  0.00  0.00     0.092 C 
ATOM     33  H12 K26 d          -5.776  23.863  -8.356  0.00  0.00     0.088 H 
BRANCH  32  34
ATOM     34  CBG K26 d          -7.659  24.690  -7.767  0.00  0.00    -0.030 C 
ATOM     35  H13 K26 d          -8.144  23.731  -7.529  0.00  0.00     0.043 H 
BRANCH  34  36
ATOM     36  CAC K26 d          -7.016  25.246  -6.490  0.00  0.00    -0.071 C 
ATOM     37  H14 K26 d          -7.608  24.934  -5.616  0.00  0.00     0.028 H 
ATOM     38  H15 K26 d          -6.989  26.344  -6.542  0.00  0.00     0.028 H 
ATOM     39  H16 K26 d          -5.991  24.858  -6.397  0.00  0.00     0.028 H 
ENDBRANCH  34  36
BRANCH  34  40
ATOM     40  CAT K26 d          -8.731  25.662  -8.287  0.00  0.00    -0.063 C 
ATOM     41  H17 K26 d          -8.416  26.038  -9.271  0.00  0.00     0.033 H 
ATOM     42  H18 K26 d          -8.815  26.502  -7.583  0.00  0.00     0.033 H 
BRANCH  40  43
ATOM     43  CAA K26 d         -10.103  25.003  -8.430  0.00  0.00    -0.076 C 
ATOM     44  H19 K26 d         -10.151  24.461  -9.385  0.00  0.00     0.027 H 
ATOM     45  H20 K26 d         -10.885  25.777  -8.407  0.00  0.00     0.027 H 
ATOM     46  H21 K26 d         -10.260  24.300  -7.599  0.00  0.00     0.027 H 
ENDBRANCH  40  43
ENDBRANCH  34  40
ENDBRANCH  32  34
BRANCH  32  47
ATOM     47  NAX K26 d          -6.019  25.698  -9.360  0.00  0.00    -0.348 N 
ATOM     48  CAZ K26 d          -4.806  25.756  -9.912  0.00  0.00     0.214 C 
ATOM     49  OAD K26 d          -4.029  24.805  -9.976  0.00  0.00    -0.274 OA
ATOM     50  H22 K26 d          -6.565  26.535  -9.303  0.00  0.00     0.163 HD
BRANCH  48  51
ATOM     51  CAB K26 d          -4.395  27.127 -10.452  0.00  0.00    -0.003 C 
ATOM     52  H23 K26 d          -3.471  27.029 -11.039  0.00  0.00     0.040 H 
ATOM     53  H24 K26 d          -4.225  27.816  -9.611  0.00  0.00     0.040 H 
ATOM     54  H25 K26 d          -5.197  27.524 -11.093  0.00  0.00     0.040 H 
ENDBRANCH  48  51
ENDBRANCH  32  47
ENDBRANCH  29  32
ENDBRANCH   1  28
BRANCH   1  55
ATOM     55  CB  K26 d          -8.691  24.843 -13.059  0.00  0.00    -0.014 C 
ATOM     56  H26 K26 d          -8.516  24.908 -14.142  0.00  0.00     0.043 H 
ATOM     57  H27 K26 d          -8.530  25.831 -12.601  0.00  0.00     0.043 H 
BRANCH  55  58
ATOM     58  CG  K26 d         -10.133  24.381 -12.795  0.00  0.00    -0.056 A 
ATOM     59  CD1 K26 d         -10.399  23.036 -12.549  0.00  0.00    -0.074 A 
ATOM     60  CE1 K26 d         -11.706  22.613 -12.293  0.00  0.00    -0.051 A 
ATOM     61  H28 K26 d          -9.589  22.315 -12.557  0.00  0.00     0.084 H 
ATOM     62  CZ  K26 d         -12.751  23.538 -12.280  0.00  0.00     0.065 A 
ATOM     63  H29 K26 d         -11.909  21.566 -12.104  0.00  0.00     0.087 H 
ATOM     64  CE2 K26 d         -12.483  24.885 -12.520  0.00  0.00    -0.051 A 
ATOM     65  CD2 K26 d         -11.176  25.309 -12.773  0.00  0.00    -0.074 A 
ATOM     66  H31 K26 d         -13.292  25.606 -12.511  0.00  0.00     0.087 H 
ATOM     67  H32 K26 d         -10.972  26.359 -12.950  0.00  0.00     0.084 H 
BRANCH  62  68
ATOM     68  OH  K26 d         -14.031  23.119 -12.040  0.00  0.00    -0.361 OA
ATOM     69  H30 K26 d         -14.170  22.276 -12.454  0.00  0.00     0.217 HD
ENDBRANCH  62  68
ENDBRANCH  55  58
ENDBRANCH   1  55
TORSDOF 17
ENDMDL
MODEL 7
REMARK VINA RESULT:      -6.9      2.598      7.513
REMARK  17 active torsions:
REMARK  status: ('A' for Active; 'I' for Inactive)
REMARK    1  A    between atoms: CBD_3  and  OAI_4 
REMARK    2  A    between atoms: CBF_7  and  CAV_8 
REMARK    3  A    between atoms: CAV_8  and  CBI_9 
REMARK    4  A    between atoms: CBI_9  and  PBK_10 
REMARK    5  A    between atoms: CBI_9  and  NAY_14 
REMARK       I    between atoms: NAY_14  and  C_15 
REMARK    6  A    between atoms: C_15  and  CA_17 
REMARK    7  A    between atoms: CA_17  and  N_18 
REMARK    8  A    between atoms: CA_17  and  CB_30 
REMARK       I    between atoms: N_18  and  CBB_19 
REMARK    9  A    between atoms: CBB_19  and  CBJ_21 
REMARK   10  A    between atoms: CBJ_21  and  CBG_22 
REMARK   11  A    between atoms: CBJ_21  and  NAX_26 
REMARK   12  A    between atoms: CBG_22  and  CAC_23 
REMARK   13  A    between atoms: CBG_22  and  CAT_24 
REMARK   14  A    between atoms: CAT_24  and  CAA_25 
REMARK       I    between atoms: NAX_26  and  CAZ_27 
REMARK   15  A    between atoms: CAZ_27  and  CAB_28 
REMARK   16  A    between atoms: CB_30  and  CG_31 
REMARK   17  A    between atoms: CZ_34  and  OH_35 
ROOT
ATOM      1  CA  K26 d          -7.990  25.610 -11.177  0.00  0.00     0.093 C 
ATOM      2  H10 K26 d          -7.859  24.914 -10.335  0.00  0.00     0.088 H 
ENDROOT
BRANCH   1   3
ATOM      3  C   K26 d          -9.479  25.678 -11.529  0.00  0.00     0.241 C 
ATOM      4  NAY K26 d         -10.232  24.702 -11.015  0.00  0.00    -0.342 N 
ATOM      5  H9  K26 d          -9.813  24.052 -10.382  0.00  0.00     0.163 HD
ATOM      6  O   K26 d          -9.891  26.570 -12.272  0.00  0.00    -0.271 OA
BRANCH   4   7
ATOM      7  CBI K26 d         -11.658  24.550 -11.350  0.00  0.00     0.124 C 
ATOM      8  H8  K26 d         -11.927  25.297 -12.112  0.00  0.00     0.095 H 
BRANCH   7   9
ATOM      9  CAV K26 d         -11.857  23.139 -11.948  0.00  0.00    -0.010 C 
ATOM     10  H6  K26 d         -11.440  22.395 -11.253  0.00  0.00     0.044 H 
ATOM     11  H7  K26 d         -12.934  22.955 -12.078  0.00  0.00     0.044 H 
BRANCH   9  12
ATOM     12  CBF K26 d         -11.159  22.995 -13.310  0.00  0.00    -0.055 A 
ATOM     13  CAR K26 d         -11.393  23.945 -14.302  0.00  0.00    -0.074 A 
ATOM     14  CAN K26 d         -10.762  23.841 -15.539  0.00  0.00    -0.051 A 
ATOM     15  H1  K26 d         -12.070  24.769 -14.109  0.00  0.00     0.084 H 
ATOM     16  CBD K26 d          -9.888  22.782 -15.788  0.00  0.00     0.065 A 
ATOM     17  H2  K26 d         -10.949  24.583 -16.307  0.00  0.00     0.087 H 
ATOM     18  CAO K26 d          -9.638  21.828 -14.797  0.00  0.00    -0.051 A 
ATOM     19  CAS K26 d         -10.277  21.935 -13.561  0.00  0.00    -0.074 A 
ATOM     20  H4  K26 d          -8.952  21.010 -14.988  0.00  0.00     0.087 H 
ATOM     21  H5  K26 d         -10.090  21.195 -12.791  0.00  0.00     0.084 H 
BRANCH  16  22
ATOM     22  OAI K26 d          -9.281  22.694 -17.002  0.00  0.00    -0.361 OA
ATOM     23  H3  K26 d          -8.575  23.327 -17.049  0.00  0.00     0.217 HD
ENDBRANCH  16  22
ENDBRANCH   9  12
ENDBRANCH   7   9
BRANCH   7  24
ATOM     24  PBK K26 d         -12.714  24.839  -9.868  0.00  0.00     0.283 P 
ATOM     25  OAJ K26 d         -14.093  24.124 -10.172  0.00  0.00    -0.638 OA
ATOM     26  OAK K26 d         -11.957  23.998  -8.693  0.00  0.00    -0.638 OA
ATOM     27  OAG K26 d         -12.889  26.280  -9.542  0.00  0.00    -0.638 OA
ENDBRANCH   7  24
ENDBRANCH   4   7
ENDBRANCH   1   3
BRANCH   1  28
ATOM     28  N   K26 d          -7.245  25.101 -12.347  0.00  0.00    -0.346 N 
ATOM     29  CBB K26 d          -6.534  23.966 -12.353  0.00  0.00     0.241 C 
ATOM     30  OAF K26 d          -6.391  23.222 -11.382  0.00  0.00    -0.271 OA
ATOM     31  H11 K26 d          -7.273  25.639 -13.189  0.00  0.00     0.163 HD
BRANCH  29  32
ATOM     32  CBJ K26 d          -5.805  23.676 -13.676  0.00  0.00     0.092 C 
ATOM     33  H12 K26 d          -6.253  22.783 -14.137  0.00  0.00     0.088 H 
BRANCH  32  34
ATOM     34  CBG K26 d          -4.310  23.396 -13.482  0.00  0.00    -0.030 C 
ATOM     35  H13 K26 d          -4.191  22.705 -12.634  0.00  0.00     0.043 H 
BRANCH  34  36
ATOM     36  CAC K26 d          -3.734  22.734 -14.740  0.00  0.00    -0.071 C 
ATOM     37  H14 K26 d          -3.776  23.443 -15.580  0.00  0.00     0.028 H 
ATOM     38  H15 K26 d          -4.322  21.839 -14.986  0.00  0.00     0.028 H 
ATOM     39  H16 K26 d          -2.688  22.445 -14.556  0.00  0.00     0.028 H 
ENDBRANCH  34  36
BRANCH  34  40
ATOM     40  CAT K26 d          -3.545  24.691 -13.167  0.00  0.00    -0.063 C 
ATOM     41  H17 K26 d          -4.270  25.470 -12.889  0.00  0.00     0.033 H 
ATOM     42  H18 K26 d          -2.998  25.005 -14.069  0.00  0.00     0.033 H 
BRANCH  40  43
ATOM     43  CAA K26 d          -2.545  24.521 -12.024  0.00  0.00    -0.076 C 
ATOM     44  H19 K26 d          -1.728  23.860 -12.347  0.00  0.00     0.027 H 
ATOM     45  H20 K26 d          -3.054  24.076 -11.155  0.00  0.00     0.027 H 
ATOM     46  H21 K26 d          -2.136  25.503 -11.745  0.00  0.00     0.027 H 
ENDBRANCH  40  43
ENDBRANCH  34  40
ENDBRANCH  32  34
BRANCH  32  47
ATOM     47  NAX K26 d          -6.046  24.837 -14.555  0.00  0.00    -0.348 N 
ATOM     48  CAZ K26 d          -6.497  24.701 -15.804  0.00  0.00     0.214 C 
ATOM     49  OAD K26 d          -6.692  23.619 -16.355  0.00  0.00    -0.274 OA
ATOM     50  H22 K26 d          -5.866  25.757 -14.204  0.00  0.00     0.163 HD
BRANCH  48  51
ATOM     51  CAB K26 d          -6.736  26.009 -16.561  0.00  0.00    -0.003 C 
ATOM     52  H23 K26 d          -7.807  26.260 -16.532  0.00  0.00     0.040 H 
ATOM     53  H24 K26 d          -6.415  25.891 -17.607  0.00  0.00     0.040 H 
ATOM     54  H25 K26 d          -6.158  26.817 -16.089  0.00  0.00     0.040 H 
ENDBRANCH  48  51
ENDBRANCH  32  47
ENDBRANCH  29  32
ENDBRANCH   1  28
BRANCH   1  55
ATOM     55  CB  K26 d          -7.433  26.969 -10.774  0.00  0.00    -0.014 C 
ATOM     56  H26 K26 d          -8.254  27.624 -10.449  0.00  0.00     0.043 H 
ATOM     57  H27 K26 d          -6.917  27.426 -11.632  0.00  0.00     0.043 H 
BRANCH  55  58
ATOM     58  CG  K26 d          -6.439  26.774  -9.618  0.00  0.00    -0.056 A 
ATOM     59  CD1 K26 d          -5.128  26.385  -9.886  0.00  0.00    -0.074 A 
ATOM     60  CE1 K26 d          -4.216  26.223  -8.839  0.00  0.00    -0.051 A 
ATOM     61  H28 K26 d          -4.814  26.209 -10.908  0.00  0.00     0.084 H 
ATOM     62  CZ  K26 d          -4.614  26.451  -7.521  0.00  0.00     0.065 A 
ATOM     63  H29 K26 d          -3.198  25.919  -9.051  0.00  0.00     0.087 H 
ATOM     64  CE2 K26 d          -5.925  26.846  -7.255  0.00  0.00    -0.051 A 
ATOM     65  CD2 K26 d          -6.836  27.013  -8.301  0.00  0.00    -0.074 A 
ATOM     66  H31 K26 d          -6.238  27.025  -6.233  0.00  0.00     0.087 H 
ATOM     67  H32 K26 d          -7.852  27.328  -8.090  0.00  0.00     0.084 H 
BRANCH  62  68
ATOM     68  OH  K26 d          -3.722  26.280  -6.498  0.00  0.00    -0.361 OA
ATOM     69  H30 K26 d          -3.350  27.121  -6.260  0.00  0.00     0.217 HD
ENDBRANCH  62  68
ENDBRANCH  55  58
ENDBRANCH   1  55
TORSDOF 17
ENDMDL
MODEL 8
REMARK VINA RESULT:      -6.8      2.635      7.800
REMARK  17 active torsions:
REMARK  status: ('A' for Active; 'I' for Inactive)
REMARK    1  A    between atoms: CBD_3  and  OAI_4 
REMARK    2  A    between atoms: CBF_7  and  CAV_8 
REMARK    3  A    between atoms: CAV_8  and  CBI_9 
REMARK    4  A    between atoms: CBI_9  and  PBK_10 
REMARK    5  A    between atoms: CBI_9  and  NAY_14 
REMARK       I    between atoms: NAY_14  and  C_15 
REMARK    6  A    between atoms: C_15  and  CA_17 
REMARK    7  A    between atoms: CA_17  and  N_18 
REMARK    8  A    between atoms: CA_17  and  CB_30 
REMARK       I    between atoms: N_18  and  CBB_19 
REMARK    9  A    between atoms: CBB_19  and  CBJ_21 
REMARK   10  A    between atoms: CBJ_21  and  CBG_22 
REMARK   11  A    between atoms: CBJ_21  and  NAX_26 
REMARK   12  A    between atoms: CBG_22  and  CAC_23 
REMARK   13  A    between atoms: CBG_22  and  CAT_24 
REMARK   14  A    between atoms: CAT_24  and  CAA_25 
REMARK       I    between atoms: NAX_26  and  CAZ_27 
REMARK   15  A    between atoms: CAZ_27  and  CAB_28 
REMARK   16  A    between atoms: CB_30  and  CG_31 
REMARK   17  A    between atoms: CZ_34  and  OH_35 
ROOT
ATOM      1  CA  K26 d          -8.451  25.825 -10.971  0.00  0.00     0.093 C 
ATOM      2  H10 K26 d          -8.266  24.911 -10.388  0.00  0.00     0.088 H 
ENDROOT
BRANCH   1   3
ATOM      3  C   K26 d          -9.819  25.707 -11.648  0.00  0.00     0.241 C 
ATOM      4  NAY K26 d         -10.358  24.485 -11.635  0.00  0.00    -0.342 N 
ATOM      5  H9  K26 d          -9.895  23.759 -11.128  0.00  0.00     0.163 HD
ATOM      6  O   K26 d         -10.323  26.694 -12.186  0.00  0.00    -0.271 OA
BRANCH   4   7
ATOM      7  CBI K26 d         -11.611  24.171 -12.342  0.00  0.00     0.124 C 
ATOM      8  H8  K26 d         -11.836  24.984 -13.048  0.00  0.00     0.095 H 
BRANCH   7   9
ATOM      9  CAV K26 d         -11.390  22.868 -13.143  0.00  0.00    -0.010 C 
ATOM     10  H6  K26 d         -10.825  22.158 -12.520  0.00  0.00     0.044 H 
ATOM     11  H7  K26 d         -12.368  22.435 -13.398  0.00  0.00     0.044 H 
BRANCH   9  12
ATOM     12  CBF K26 d         -10.606  23.125 -14.440  0.00  0.00    -0.055 A 
ATOM     13  CAR K26 d          -9.624  22.220 -14.837  0.00  0.00    -0.074 A 
ATOM     14  CAN K26 d          -8.910  22.427 -16.014  0.00  0.00    -0.051 A 
ATOM     15  H1  K26 d          -9.414  21.350 -14.225  0.00  0.00     0.084 H 
ATOM     16  CBD K26 d          -9.180  23.544 -16.804  0.00  0.00     0.065 A 
ATOM     17  H2  K26 d          -8.146  21.720 -16.317  0.00  0.00     0.087 H 
ATOM     18  CAO K26 d         -10.170  24.455 -16.422  0.00  0.00    -0.051 A 
ATOM     19  CAS K26 d         -10.878  24.244 -15.239  0.00  0.00    -0.074 A 
ATOM     20  H4  K26 d         -10.385  25.319 -17.041  0.00  0.00     0.087 H 
ATOM     21  H5  K26 d         -11.644  24.949 -14.935  0.00  0.00     0.084 H 
BRANCH  16  22
ATOM     22  OAI K26 d          -8.472  23.733 -17.951  0.00  0.00    -0.361 OA
ATOM     23  H3  K26 d          -8.935  23.332 -18.677  0.00  0.00     0.217 HD
ENDBRANCH  16  22
ENDBRANCH   9  12
ENDBRANCH   7   9
BRANCH   7  24
ATOM     24  PBK K26 d         -13.017  24.036 -11.158  0.00  0.00     0.283 P 
ATOM     25  OAJ K26 d         -14.201  23.366 -11.967  0.00  0.00    -0.638 OA
ATOM     26  OAK K26 d         -12.482  22.958 -10.057  0.00  0.00    -0.638 OA
ATOM     27  OAG K26 d         -13.411  25.341 -10.562  0.00  0.00    -0.638 OA
ENDBRANCH   7  24
ENDBRANCH   4   7
ENDBRANCH   1   3
BRANCH   1  28
ATOM     28  N   K26 d          -7.411  25.953 -12.013  0.00  0.00    -0.346 N 
ATOM     29  CBB K26 d          -6.943  24.931 -12.740  0.00  0.00     0.241 C 
ATOM     30  OAF K26 d          -7.297  23.758 -12.613  0.00  0.00    -0.271 OA
ATOM     31  H11 K26 d          -7.033  26.862 -12.188  0.00  0.00     0.163 HD
BRANCH  29  32
ATOM     32  CBJ K26 d          -5.825  25.309 -13.728  0.00  0.00     0.092 C 
ATOM     33  H12 K26 d          -5.746  26.405 -13.769  0.00  0.00     0.088 H 
BRANCH  32  34
ATOM     34  CBG K26 d          -6.099  24.810 -15.153  0.00  0.00    -0.030 C 
ATOM     35  H13 K26 d          -6.928  24.088 -15.118  0.00  0.00     0.043 H 
BRANCH  34  36
ATOM     36  CAC K26 d          -6.508  25.986 -16.049  0.00  0.00    -0.071 C 
ATOM     37  H14 K26 d          -5.670  26.694 -16.130  0.00  0.00     0.028 H 
ATOM     38  H15 K26 d          -7.378  26.495 -15.611  0.00  0.00     0.028 H 
ATOM     39  H16 K26 d          -6.769  25.610 -17.049  0.00  0.00     0.028 H 
ENDBRANCH  34  36
BRANCH  34  40
ATOM     40  CAT K26 d          -4.862  24.106 -15.735  0.00  0.00    -0.063 C 
ATOM     41  H17 K26 d          -4.132  23.951 -14.927  0.00  0.00     0.033 H 
ATOM     42  H18 K26 d          -4.421  24.752 -16.508  0.00  0.00     0.033 H 
BRANCH  40  43
ATOM     43  CAA K26 d          -5.197  22.752 -16.360  0.00  0.00    -0.076 C 
ATOM     44  H19 K26 d          -5.084  21.962 -15.604  0.00  0.00     0.027 H 
ATOM     45  H20 K26 d          -4.513  22.557 -17.200  0.00  0.00     0.027 H 
ATOM     46  H21 K26 d          -6.234  22.765 -16.728  0.00  0.00     0.027 H 
ENDBRANCH  40  43
ENDBRANCH  34  40
ENDBRANCH  32  34
BRANCH  32  47
ATOM     47  NAX K26 d          -4.570  24.761 -13.176  0.00  0.00    -0.348 N 
ATOM     48  CAZ K26 d          -3.707  25.515 -12.493  0.00  0.00     0.214 C 
ATOM     49  OAD K26 d          -3.836  26.725 -12.313  0.00  0.00    -0.274 OA
ATOM     50  H22 K26 d          -4.359  23.794 -13.319  0.00  0.00     0.163 HD
BRANCH  48  51
ATOM     51  CAB K26 d          -2.479  24.779 -11.952  0.00  0.00    -0.003 C 
ATOM     52  H23 K26 d          -2.802  23.977 -11.273  0.00  0.00     0.040 H 
ATOM     53  H24 K26 d          -1.839  25.487 -11.404  0.00  0.00     0.040 H 
ATOM     54  H25 K26 d          -1.913  24.346 -12.789  0.00  0.00     0.040 H 
ENDBRANCH  48  51
ENDBRANCH  32  47
ENDBRANCH  29  32
ENDBRANCH   1  28
BRANCH   1  55
ATOM     55  CB  K26 d          -8.376  27.023 -10.033  0.00  0.00    -0.014 C 
ATOM     56  H26 K26 d          -9.307  27.097  -9.453  0.00  0.00     0.043 H 
ATOM     57  H27 K26 d          -8.234  27.943 -10.618  0.00  0.00     0.043 H 
BRANCH  55  58
ATOM     58  CG  K26 d          -7.187  26.831  -9.078  0.00  0.00    -0.056 A 
ATOM     59  CD1 K26 d          -7.401  26.343  -7.790  0.00  0.00    -0.074 A 
ATOM     60  CE1 K26 d          -6.321  26.151  -6.924  0.00  0.00    -0.051 A 
ATOM     61  H28 K26 d          -8.407  26.112  -7.460  0.00  0.00     0.084 H 
ATOM     62  CZ  K26 d          -5.024  26.445  -7.345  0.00  0.00     0.065 A 
ATOM     63  H29 K26 d          -6.492  25.774  -5.922  0.00  0.00     0.087 H 
ATOM     64  CE2 K26 d          -4.810  26.927  -8.636  0.00  0.00    -0.051 A 
ATOM     65  CD2 K26 d          -5.888  27.116  -9.504  0.00  0.00    -0.074 A 
ATOM     66  H31 K26 d          -3.804  27.157  -8.967  0.00  0.00     0.087 H 
ATOM     67  H32 K26 d          -5.716  27.483 -10.510  0.00  0.00     0.084 H 
BRANCH  62  68
ATOM     68  OH  K26 d          -3.971  26.267  -6.490  0.00  0.00    -0.361 OA
ATOM     69  H30 K26 d          -3.998  25.387  -6.136  0.00  0.00     0.217 HD
ENDBRANCH  62  68
ENDBRANCH  55  58
ENDBRANCH   1  55
TORSDOF 17
ENDMDL
MODEL 9
REMARK VINA RESULT:      -6.7      2.832      8.433
REMARK  17 active torsions:
REMARK  status: ('A' for Active; 'I' for Inactive)
REMARK    1  A    between atoms: CBD_3  and  OAI_4 
REMARK    2  A    between atoms: CBF_7  and  CAV_8 
REMARK    3  A    between atoms: CAV_8  and  CBI_9 
REMARK    4  A    between atoms: CBI_9  and  PBK_10 
REMARK    5  A    between atoms: CBI_9  and  NAY_14 
REMARK       I    between atoms: NAY_14  and  C_15 
REMARK    6  A    between atoms: C_15  and  CA_17 
REMARK    7  A    between atoms: CA_17  and  N_18 
REMARK    8  A    between atoms: CA_17  and  CB_30 
REMARK       I    between atoms: N_18  and  CBB_19 
REMARK    9  A    between atoms: CBB_19  and  CBJ_21 
REMARK   10  A    between atoms: CBJ_21  and  CBG_22 
REMARK   11  A    between atoms: CBJ_21  and  NAX_26 
REMARK   12  A    between atoms: CBG_22  and  CAC_23 
REMARK   13  A    between atoms: CBG_22  and  CAT_24 
REMARK   14  A    between atoms: CAT_24  and  CAA_25 
REMARK       I    between atoms: NAX_26  and  CAZ_27 
REMARK   15  A    between atoms: CAZ_27  and  CAB_28 
REMARK   16  A    between atoms: CB_30  and  CG_31 
REMARK   17  A    between atoms: CZ_34  and  OH_35 
ROOT
ATOM      1  CA  K26 d          -6.782  23.920 -12.419  0.00  0.00     0.093 C 
ATOM      2  H10 K26 d          -6.539  23.074 -11.760  0.00  0.00     0.088 H 
ENDROOT
BRANCH   1   3
ATOM      3  C   K26 d          -8.214  23.746 -12.933  0.00  0.00     0.241 C 
ATOM      4  NAY K26 d          -8.597  24.626 -13.862  0.00  0.00    -0.342 N 
ATOM      5  H9  K26 d          -7.925  25.274 -14.220  0.00  0.00     0.163 HD
ATOM      6  O   K26 d          -8.931  22.864 -12.459  0.00  0.00    -0.271 OA
BRANCH   4   7
ATOM      7  CBI K26 d          -9.976  24.676 -14.377  0.00  0.00     0.124 C 
ATOM      8  H8  K26 d         -10.436  23.683 -14.261  0.00  0.00     0.095 H 
BRANCH   7   9
ATOM      9  CAV K26 d         -10.766  25.691 -13.519  0.00  0.00    -0.010 C 
ATOM     10  H6  K26 d         -10.054  26.316 -12.961  0.00  0.00     0.044 H 
ATOM     11  H7  K26 d         -11.370  26.327 -14.184  0.00  0.00     0.044 H 
BRANCH   9  12
ATOM     12  CBF K26 d         -11.700  24.986 -12.522  0.00  0.00    -0.055 A 
ATOM     13  CAR K26 d         -12.237  23.743 -12.849  0.00  0.00    -0.074 A 
ATOM     14  CAN K26 d         -13.075  23.081 -11.955  0.00  0.00    -0.051 A 
ATOM     15  H1  K26 d         -12.000  23.289 -13.804  0.00  0.00     0.084 H 
ATOM     16  CBD K26 d         -13.379  23.663 -10.725  0.00  0.00     0.065 A 
ATOM     17  H2  K26 d         -13.490  22.114 -12.216  0.00  0.00     0.087 H 
ATOM     18  CAO K26 d         -12.839  24.906 -10.381  0.00  0.00    -0.051 A 
ATOM     19  CAS K26 d         -12.003  25.566 -11.282  0.00  0.00    -0.074 A 
ATOM     20  H4  K26 d         -13.069  25.354  -9.421  0.00  0.00     0.087 H 
ATOM     21  H5  K26 d         -11.585  26.533 -11.023  0.00  0.00     0.084 H 
BRANCH  16  22
ATOM     22  OAI K26 d         -14.201  23.004  -9.864  0.00  0.00    -0.361 OA
ATOM     23  H3  K26 d         -13.855  22.135  -9.700  0.00  0.00     0.217 HD
ENDBRANCH  16  22
ENDBRANCH   9  12
ENDBRANCH   7   9
BRANCH   7  24
ATOM     24  PBK K26 d          -9.993  25.108 -16.168  0.00  0.00     0.283 P 
ATOM     25  OAJ K26 d         -11.519  25.250 -16.565  0.00  0.00    -0.638 OA
ATOM     26  OAK K26 d          -9.320  26.594 -16.205  0.00  0.00    -0.638 OA
ATOM     27  OAG K26 d          -9.281  24.117 -17.019  0.00  0.00    -0.638 OA
ENDBRANCH   7  24
ENDBRANCH   4   7
ENDBRANCH   1   3
BRANCH   1  28
ATOM     28  N   K26 d          -5.857  23.919 -13.571  0.00  0.00    -0.346 N 
ATOM     29  CBB K26 d          -5.022  22.914 -13.866  0.00  0.00     0.241 C 
ATOM     30  OAF K26 d          -4.902  21.883 -13.203  0.00  0.00    -0.271 OA
ATOM     31  H11 K26 d          -5.853  24.720 -14.169  0.00  0.00     0.163 HD
BRANCH  29  32
ATOM     32  CBJ K26 d          -4.121  23.170 -15.087  0.00  0.00     0.092 C 
ATOM     33  H12 K26 d          -3.795  22.202 -15.494  0.00  0.00     0.088 H 
BRANCH  32  34
ATOM     34  CBG K26 d          -2.862  23.973 -14.738  0.00  0.00    -0.030 C 
ATOM     35  H13 K26 d          -2.028  23.601 -15.354  0.00  0.00     0.043 H 
BRANCH  34  36
ATOM     36  CAC K26 d          -3.083  25.457 -15.055  0.00  0.00    -0.071 C 
ATOM     37  H14 K26 d          -3.716  25.908 -14.275  0.00  0.00     0.028 H 
ATOM     38  H15 K26 d          -3.579  25.554 -16.031  0.00  0.00     0.028 H 
ATOM     39  H16 K26 d          -2.113  25.974 -15.084  0.00  0.00     0.028 H 
ENDBRANCH  34  36
BRANCH  34  40
ATOM     40  CAT K26 d          -2.490  23.797 -13.257  0.00  0.00    -0.063 C 
ATOM     41  H17 K26 d          -1.533  23.259 -13.196  0.00  0.00     0.033 H 
ATOM     42  H18 K26 d          -3.276  23.205 -12.765  0.00  0.00     0.033 H 
BRANCH  40  43
ATOM     43  CAA K26 d          -2.350  25.131 -12.524  0.00  0.00    -0.076 C 
ATOM     44  H19 K26 d          -1.837  24.969 -11.565  0.00  0.00     0.027 H 
ATOM     45  H20 K26 d          -3.348  25.554 -12.338  0.00  0.00     0.027 H 
ATOM     46  H21 K26 d          -1.765  25.829 -13.141  0.00  0.00     0.027 H 
ENDBRANCH  40  43
ENDBRANCH  34  40
ENDBRANCH  32  34
BRANCH  32  47
ATOM     47  NAX K26 d          -4.958  23.852 -16.094  0.00  0.00    -0.348 N 
ATOM     48  CAZ K26 d          -5.214  23.312 -17.287  0.00  0.00     0.214 C 
ATOM     49  OAD K26 d          -4.740  22.249 -17.682  0.00  0.00    -0.274 OA
ATOM     50  H22 K26 d          -5.345  24.749 -15.875  0.00  0.00     0.163 HD
BRANCH  48  51
ATOM     51  CAB K26 d          -6.137  24.132 -18.192  0.00  0.00    -0.003 C 
ATOM     52  H23 K26 d          -5.887  23.935 -19.245  0.00  0.00     0.040 H 
ATOM     53  H24 K26 d          -6.004  25.203 -17.978  0.00  0.00     0.040 H 
ATOM     54  H25 K26 d          -7.182  23.848 -18.004  0.00  0.00     0.040 H 
ENDBRANCH  48  51
ENDBRANCH  32  47
ENDBRANCH  29  32
ENDBRANCH   1  28
BRANCH   1  55
ATOM     55  CB  K26 d          -6.608  25.212 -11.632  0.00  0.00    -0.014 C 
ATOM     56  H26 K26 d          -7.064  26.046 -12.185  0.00  0.00     0.043 H 
ATOM     57  H27 K26 d          -5.536  25.414 -11.484  0.00  0.00     0.043 H 
BRANCH  55  58
ATOM     58  CG  K26 d          -7.298  25.059 -10.267  0.00  0.00    -0.056 A 
ATOM     59  CD1 K26 d          -8.507  25.706 -10.023  0.00  0.00    -0.074 A 
ATOM     60  CE1 K26 d          -9.147  25.557  -8.790  0.00  0.00    -0.051 A 
ATOM     61  H28 K26 d          -8.954  26.327 -10.792  0.00  0.00     0.084 H 
ATOM     62  CZ  K26 d          -8.579  24.756  -7.798  0.00  0.00     0.065 A 
ATOM     63  H29 K26 d         -10.087  26.063  -8.603  0.00  0.00     0.087 H 
ATOM     64  CE2 K26 d          -7.371  24.104  -8.046  0.00  0.00    -0.051 A 
ATOM     65  CD2 K26 d          -6.733  24.250  -9.280  0.00  0.00    -0.074 A 
ATOM     66  H31 K26 d          -6.926  23.482  -7.278  0.00  0.00     0.087 H 
ATOM     67  H32 K26 d          -5.798  23.734  -9.471  0.00  0.00     0.084 H 
BRANCH  62  68
ATOM     68  OH  K26 d          -9.202  24.621  -6.587  0.00  0.00    -0.361 OA
ATOM     69  H30 K26 d          -9.812  25.339  -6.465  0.00  0.00     0.217 HD
ENDBRANCH  62  68
ENDBRANCH  55  58
ENDBRANCH   1  55
TORSDOF 17
ENDMDL
MODEL 10
REMARK VINA RESULT:      -6.4      2.746      7.303
REMARK  17 active torsions:
REMARK  status: ('A' for Active; 'I' for Inactive)
REMARK    1  A    between atoms: CBD_3  and  OAI_4 
REMARK    2  A    between atoms: CBF_7  and  CAV_8 
REMARK    3  A    between atoms: CAV_8  and  CBI_9 
REMARK    4  A    between atoms: CBI_9  and  PBK_10 
REMARK    5  A    between atoms: CBI_9  and  NAY_14 
REMARK       I    between atoms: NAY_14  and  C_15 
REMARK    6  A    between atoms: C_15  and  CA_17 
REMARK    7  A    between atoms: CA_17  and  N_18 
REMARK    8  A    between atoms: CA_17  and  CB_30 
REMARK       I    between atoms: N_18  and  CBB_19 
REMARK    9  A    between atoms: CBB_19  and  CBJ_21 
REMARK   10  A    between atoms: CBJ_21  and  CBG_22 
REMARK   11  A    between atoms: CBJ_21  and  NAX_26 
REMARK   12  A    between atoms: CBG_22  and  CAC_23 
REMARK   13  A    between atoms: CBG_22  and  CAT_24 
REMARK   14  A    between atoms: CAT_24  and  CAA_25 
REMARK       I    between atoms: NAX_26  and  CAZ_27 
REMARK   15  A    between atoms: CAZ_27  and  CAB_28 
REMARK   16  A    between atoms: CB_30  and  CG_31 
REMARK   17  A    between atoms: CZ_34  and  OH_35 
ROOT
ATOM      1  CA  K26 d          -7.712  25.598 -12.162  0.00  0.00     0.093 C 
ATOM      2  H10 K26 d          -7.402  24.719 -11.577  0.00  0.00     0.088 H 
ENDROOT
BRANCH   1   3
ATOM      3  C   K26 d          -9.200  25.856 -11.905  0.00  0.00     0.241 C 
ATOM      4  NAY K26 d          -9.798  24.980 -11.093  0.00  0.00    -0.342 N 
ATOM      5  H9  K26 d          -9.244  24.280 -10.645  0.00  0.00     0.163 HD
ATOM      6  O   K26 d          -9.763  26.796 -12.468  0.00  0.00    -0.271 OA
BRANCH   4   7
ATOM      7  CBI K26 d         -11.248  25.011 -10.835  0.00  0.00     0.124 C 
ATOM      8  H8  K26 d         -11.701  25.811 -11.440  0.00  0.00     0.095 H 
BRANCH   7   9
ATOM      9  CAV K26 d         -11.839  23.656 -11.286  0.00  0.00    -0.010 C 
ATOM     10  H6  K26 d         -11.615  22.897 -10.522  0.00  0.00     0.044 H 
ATOM     11  H7  K26 d         -12.929  23.759 -11.392  0.00  0.00     0.044 H 
BRANCH   9  12
ATOM     12  CBF K26 d         -11.250  23.198 -12.630  0.00  0.00    -0.055 A 
ATOM     13  CAR K26 d         -10.527  22.009 -12.690  0.00  0.00    -0.074 A 
ATOM     14  CAN K26 d          -9.994  21.569 -13.899  0.00  0.00    -0.051 A 
ATOM     15  H1  K26 d         -10.379  21.423 -11.791  0.00  0.00     0.084 H 
ATOM     16  CBD K26 d         -10.186  22.321 -15.059  0.00  0.00     0.065 A 
ATOM     17  H2  K26 d          -9.432  20.643 -13.940  0.00  0.00     0.087 H 
ATOM     18  CAO K26 d         -10.918  23.512 -15.013  0.00  0.00    -0.051 A 
ATOM     19  CAS K26 d         -11.445  23.949 -13.798  0.00  0.00    -0.074 A 
ATOM     20  H4  K26 d         -11.073  24.091 -15.916  0.00  0.00     0.087 H 
ATOM     21  H5  K26 d         -12.009  24.874 -13.756  0.00  0.00     0.084 H 
BRANCH  16  22
ATOM     22  OAI K26 d          -9.657  21.878 -16.232  0.00  0.00    -0.361 OA
ATOM     23  H3  K26 d          -9.821  20.947 -16.321  0.00  0.00     0.217 HD
ENDBRANCH  16  22
ENDBRANCH   9  12
ENDBRANCH   7   9
BRANCH   7  24
ATOM     24  PBK K26 d         -11.591  25.371  -9.061  0.00  0.00     0.283 P 
ATOM     25  OAJ K26 d         -10.447  26.357  -8.589  0.00  0.00    -0.638 OA
ATOM     26  OAK K26 d         -12.992  26.207  -9.109  0.00  0.00    -0.638 OA
ATOM     27  OAG K26 d         -11.663  24.148  -8.217  0.00  0.00    -0.638 OA
ENDBRANCH   7  24
ENDBRANCH   4   7
ENDBRANCH   1   3
BRANCH   1  28
ATOM     28  N   K26 d          -7.516  25.319 -13.599  0.00  0.00    -0.346 N 
ATOM     29  CBB K26 d          -7.101  24.144 -14.089  0.00  0.00     0.241 C 
ATOM     30  OAF K26 d          -6.807  23.163 -13.405  0.00  0.00    -0.271 OA
ATOM     31  H11 K26 d          -7.704  26.056 -14.248  0.00  0.00     0.163 HD
BRANCH  29  32
ATOM     32  CBJ K26 d          -6.924  24.116 -15.617  0.00  0.00     0.092 C 
ATOM     33  H12 K26 d          -7.388  23.199 -16.009  0.00  0.00     0.088 H 
BRANCH  32  34
ATOM     34  CBG K26 d          -5.451  24.109 -16.044  0.00  0.00    -0.030 C 
ATOM     35  H13 K26 d          -4.824  24.163 -15.142  0.00  0.00     0.043 H 
BRANCH  34  36
ATOM     36  CAC K26 d          -5.128  22.808 -16.790  0.00  0.00    -0.071 C 
ATOM     37  H14 K26 d          -5.733  22.752 -17.708  0.00  0.00     0.028 H 
ATOM     38  H15 K26 d          -5.361  21.948 -16.146  0.00  0.00     0.028 H 
ATOM     39  H16 K26 d          -4.060  22.791 -17.053  0.00  0.00     0.028 H 
ENDBRANCH  34  36
BRANCH  34  40
ATOM     40  CAT K26 d          -5.131  25.322 -16.933  0.00  0.00    -0.063 C 
ATOM     41  H17 K26 d          -6.061  25.880 -17.115  0.00  0.00     0.033 H 
ATOM     42  H18 K26 d          -4.727  24.960 -17.890  0.00  0.00     0.033 H 
BRANCH  40  43
ATOM     43  CAA K26 d          -4.111  26.265 -16.296  0.00  0.00    -0.076 C 
ATOM     44  H19 K26 d          -3.403  25.682 -15.689  0.00  0.00     0.027 H 
ATOM     45  H20 K26 d          -4.632  26.991 -15.655  0.00  0.00     0.027 H 
ATOM     46  H21 K26 d          -3.563  26.800 -17.086  0.00  0.00     0.027 H 
ENDBRANCH  40  43
ENDBRANCH  34  40
ENDBRANCH  32  34
BRANCH  32  47
ATOM     47  NAX K26 d          -7.654  25.283 -16.149  0.00  0.00    -0.348 N 
ATOM     48  CAZ K26 d          -8.533  25.176 -17.147  0.00  0.00     0.214 C 
ATOM     49  OAD K26 d          -8.770  24.132 -17.752  0.00  0.00    -0.274 OA
ATOM     50  H22 K26 d          -7.485  26.185 -15.748  0.00  0.00     0.163 HD
BRANCH  48  51
ATOM     51  CAB K26 d          -9.235  26.477 -17.545  0.00  0.00    -0.003 C 
ATOM     52  H23 K26 d          -9.174  27.195 -16.714  0.00  0.00     0.040 H 
ATOM     53  H24 K26 d         -10.291  26.268 -17.774  0.00  0.00     0.040 H 
ATOM     54  H25 K26 d          -8.745  26.901 -18.433  0.00  0.00     0.040 H 
ENDBRANCH  48  51
ENDBRANCH  32  47
ENDBRANCH  29  32
ENDBRANCH   1  28
BRANCH   1  55
ATOM     55  CB  K26 d          -6.846  26.782 -11.753  0.00  0.00    -0.014 C 
ATOM     56  H26 K26 d          -7.447  27.703 -11.770  0.00  0.00     0.043 H 
ATOM     57  H27 K26 d          -6.003  26.883 -12.453  0.00  0.00     0.043 H 
BRANCH  55  58
ATOM     58  CG  K26 d          -6.312  26.540 -10.332  0.00  0.00    -0.056 A 
ATOM     59  CD1 K26 d          -5.126  25.834 -10.147  0.00  0.00    -0.074 A 
ATOM     60  CE1 K26 d          -4.627  25.625  -8.858  0.00  0.00    -0.051 A 
ATOM     61  H28 K26 d          -4.587  25.447 -11.004  0.00  0.00     0.084 H 
ATOM     62  CZ  K26 d          -5.315  26.125  -7.751  0.00  0.00     0.065 A 
ATOM     63  H29 K26 d          -3.704  25.074  -8.717  0.00  0.00     0.087 H 
ATOM     64  CE2 K26 d          -6.500  26.836  -7.939  0.00  0.00    -0.051 A 
ATOM     65  CD2 K26 d          -6.997  27.049  -9.227  0.00  0.00    -0.074 A 
ATOM     66  H31 K26 d          -7.037  27.225  -7.082  0.00  0.00     0.087 H 
ATOM     67  H32 K26 d          -7.914  27.610  -9.368  0.00  0.00     0.084 H 
BRANCH  62  68
ATOM     68  OH  K26 d          -4.830  25.908  -6.490  0.00  0.00    -0.361 OA
ATOM     69  H30 K26 d          -3.932  26.211  -6.442  0.00  0.00     0.217 HD
ENDBRANCH  62  68
ENDBRANCH  55  58
ENDBRANCH   1  55
TORSDOF 17
ENDMDL
