MODEL 1
REMARK VINA RESULT:      -5.8      0.000      0.000
REMARK  2 active torsions:
REMARK  status: ('A' for Active; 'I' for Inactive)
REMARK    1  A    between atoms: C4_4  and  S_7 
REMARK    2  A    between atoms: S_7  and  N2_8 
ROOT
ATOM      1  C1  FBV d          14.924   6.843  15.424  0.00  0.00    -0.080 A 
ATOM      2  C2  FBV d          14.317   5.865  16.206  0.00  0.00    -0.081 A 
ATOM      3  C3  FBV d          14.848   4.569  16.317  0.00  0.00    -0.057 A 
ATOM      4  C4  FBV d          16.018   4.233  15.575  0.00  0.00     0.117 A 
ATOM      5  C5  FBV d          16.580   5.305  14.802  0.00  0.00     0.139 A 
ATOM      6  C6  FBV d          16.061   6.567  14.724  0.00  0.00    -0.044 A 
ATOM      7  F   FBV d          17.726   5.001  14.154  0.00  0.00    -0.204 F 
ATOM      8  H1  FBV d          14.488   7.834  15.371  0.00  0.00     0.083 H 
ATOM      9  H2  FBV d          13.409   6.110  16.745  0.00  0.00     0.083 H 
ATOM     10  H3  FBV d          14.374   3.833  16.957  0.00  0.00     0.086 H 
ATOM     11  H4  FBV d          16.542   7.330  14.122  0.00  0.00     0.088 H 
ENDROOT
BRANCH   4  12
ATOM     12  S   FBV d          16.747   2.633  15.649  0.00  0.00     0.259 S 
ATOM     13  O1  FBV d          18.100   2.863  16.189  0.00  0.00    -0.201 OA
ATOM     14  O2  FBV d          15.821   1.854  16.398  0.00  0.00    -0.201 OA
BRANCH  12  15
ATOM     15  N2  FBV d          16.822   2.067  14.152  0.00  0.00    -0.324 N 
ATOM     16  H5  FBV d          17.318   2.576  13.449  0.00  0.00     0.169 HD
ATOM     17  H6  FBV d          16.373   1.204  13.921  0.00  0.00     0.169 HD
ENDBRANCH  12  15
ENDBRANCH   4  12
TORSDOF 2
ENDMDL
MODEL 2
REMARK VINA RESULT:      -5.7      1.705      2.265
REMARK  2 active torsions:
REMARK  status: ('A' for Active; 'I' for Inactive)
REMARK    1  A    between atoms: C4_4  and  S_7 
REMARK    2  A    between atoms: S_7  and  N2_8 
ROOT
ATOM      1  C1  FBV d          14.007   5.902  16.717  0.00  0.00    -0.080 A 
ATOM      2  C2  FBV d          14.692   6.117  15.525  0.00  0.00    -0.081 A 
ATOM      3  C3  FBV d          15.654   5.210  15.048  0.00  0.00    -0.057 A 
ATOM      4  C4  FBV d          15.966   4.058  15.826  0.00  0.00     0.117 A 
ATOM      5  C5  FBV d          15.205   3.913  17.036  0.00  0.00     0.139 A 
ATOM      6  C6  FBV d          14.257   4.795  17.473  0.00  0.00    -0.044 A 
ATOM      7  F   FBV d          15.457   2.784  17.736  0.00  0.00    -0.204 F 
ATOM      8  H1  FBV d          13.267   6.621  17.048  0.00  0.00     0.083 H 
ATOM      9  H2  FBV d          14.478   7.010  14.949  0.00  0.00     0.083 H 
ATOM     10  H3  FBV d          16.152   5.385  14.102  0.00  0.00     0.086 H 
ATOM     11  H4  FBV d          13.718   4.620  18.397  0.00  0.00     0.088 H 
ENDROOT
BRANCH   4  12
ATOM     12  S   FBV d          17.159   2.873  15.308  0.00  0.00     0.259 S 
ATOM     13  O1  FBV d          18.318   3.099  16.193  0.00  0.00    -0.201 OA
ATOM     14  O2  FBV d          16.472   1.629  15.363  0.00  0.00    -0.201 OA
BRANCH  12  15
ATOM     15  N2  FBV d          17.536   3.201  13.785  0.00  0.00    -0.324 N 
ATOM     16  H5  FBV d          17.757   2.457  13.155  0.00  0.00     0.169 HD
ATOM     17  H6  FBV d          17.549   4.148  13.466  0.00  0.00     0.169 HD
ENDBRANCH  12  15
ENDBRANCH   4  12
TORSDOF 2
ENDMDL
MODEL 3
REMARK VINA RESULT:      -5.6      1.765      2.424
REMARK  2 active torsions:
REMARK  status: ('A' for Active; 'I' for Inactive)
REMARK    1  A    between atoms: C4_4  and  S_7 
REMARK    2  A    between atoms: S_7  and  N2_8 
ROOT
ATOM      1  C1  FBV d          15.756   7.005  14.736  0.00  0.00    -0.080 A 
ATOM      2  C2  FBV d          17.062   6.535  14.637  0.00  0.00    -0.081 A 
ATOM      3  C3  FBV d          17.401   5.211  14.963  0.00  0.00    -0.057 A 
ATOM      4  C4  FBV d          16.386   4.334  15.446  0.00  0.00     0.117 A 
ATOM      5  C5  FBV d          15.068   4.901  15.508  0.00  0.00     0.139 A 
ATOM      6  C6  FBV d          14.754   6.187  15.166  0.00  0.00    -0.044 A 
ATOM      7  F   FBV d          14.098   4.047  15.903  0.00  0.00    -0.204 F 
ATOM      8  H1  FBV d          15.533   8.031  14.468  0.00  0.00     0.083 H 
ATOM      9  H2  FBV d          17.840   7.210  14.300  0.00  0.00     0.083 H 
ATOM     10  H3  FBV d          18.420   4.861  14.848  0.00  0.00     0.086 H 
ATOM     11  H4  FBV d          13.733   6.547  15.235  0.00  0.00     0.088 H 
ENDROOT
BRANCH   4  12
ATOM     12  S   FBV d          16.722   2.664  15.882  0.00  0.00     0.259 S 
ATOM     13  O1  FBV d          16.366   1.884  14.682  0.00  0.00    -0.201 OA
ATOM     14  O2  FBV d          18.072   2.677  16.330  0.00  0.00    -0.201 OA
BRANCH  12  15
ATOM     15  N2  FBV d          15.765   2.283  17.110  0.00  0.00    -0.324 N 
ATOM     16  H5  FBV d          14.783   2.168  16.961  0.00  0.00     0.169 HD
ATOM     17  H6  FBV d          16.149   2.161  18.025  0.00  0.00     0.169 HD
ENDBRANCH  12  15
ENDBRANCH   4  12
TORSDOF 2
ENDMDL
MODEL 4
REMARK VINA RESULT:      -5.5      2.479      3.051
REMARK  2 active torsions:
REMARK  status: ('A' for Active; 'I' for Inactive)
REMARK    1  A    between atoms: C4_4  and  S_7 
REMARK    2  A    between atoms: S_7  and  N2_8 
ROOT
ATOM      1  C1  FBV d          14.424   3.528  17.360  0.00  0.00    -0.080 A 
ATOM      2  C2  FBV d          14.249   4.686  16.608  0.00  0.00    -0.081 A 
ATOM      3  C3  FBV d          15.203   5.112  15.669  0.00  0.00    -0.057 A 
ATOM      4  C4  FBV d          16.404   4.360  15.510  0.00  0.00     0.117 A 
ATOM      5  C5  FBV d          16.495   3.178  16.321  0.00  0.00     0.139 A 
ATOM      6  C6  FBV d          15.545   2.767  17.214  0.00  0.00    -0.044 A 
ATOM      7  F   FBV d          17.604   2.432  16.118  0.00  0.00    -0.204 F 
ATOM      8  H1  FBV d          13.661   3.229  18.069  0.00  0.00     0.083 H 
ATOM      9  H2  FBV d          13.351   5.276  16.751  0.00  0.00     0.083 H 
ATOM     10  H3  FBV d          15.030   6.001  15.074  0.00  0.00     0.086 H 
ATOM     11  H4  FBV d          15.680   1.859  17.791  0.00  0.00     0.088 H 
ENDROOT
BRANCH   4  12
ATOM     12  S   FBV d          17.654   4.823  14.363  0.00  0.00     0.259 S 
ATOM     13  O1  FBV d          18.821   5.166  15.198  0.00  0.00    -0.201 OA
ATOM     14  O2  FBV d          17.739   3.722  13.465  0.00  0.00    -0.201 OA
BRANCH  12  15
ATOM     15  N2  FBV d          17.128   6.110  13.567  0.00  0.00    -0.324 N 
ATOM     16  H5  FBV d          16.798   6.909  14.071  0.00  0.00     0.169 HD
ATOM     17  H6  FBV d          17.129   6.116  12.568  0.00  0.00     0.169 HD
ENDBRANCH  12  15
ENDBRANCH   4  12
TORSDOF 2
ENDMDL
MODEL 5
REMARK VINA RESULT:      -5.4      2.641      3.451
REMARK  2 active torsions:
REMARK  status: ('A' for Active; 'I' for Inactive)
REMARK    1  A    between atoms: C4_4  and  S_7 
REMARK    2  A    between atoms: S_7  and  N2_8 
ROOT
ATOM      1  C1  FBV d          14.308   2.813  17.361  0.00  0.00    -0.080 A 
ATOM      2  C2  FBV d          15.454   2.207  16.853  0.00  0.00    -0.081 A 
ATOM      3  C3  FBV d          16.292   2.860  15.933  0.00  0.00    -0.057 A 
ATOM      4  C4  FBV d          15.938   4.162  15.476  0.00  0.00     0.117 A 
ATOM      5  C5  FBV d          14.746   4.711  16.059  0.00  0.00     0.139 A 
ATOM      6  C6  FBV d          13.954   4.069  16.970  0.00  0.00    -0.044 A 
ATOM      7  F   FBV d          14.451   5.973  15.673  0.00  0.00    -0.204 F 
ATOM      8  H1  FBV d          13.692   2.279  18.075  0.00  0.00     0.083 H 
ATOM      9  H2  FBV d          15.706   1.203  17.176  0.00  0.00     0.083 H 
ATOM     10  H3  FBV d          17.195   2.379  15.576  0.00  0.00     0.086 H 
ATOM     11  H4  FBV d          13.068   4.547  17.372  0.00  0.00     0.088 H 
ENDROOT
BRANCH   4  12
ATOM     12  S   FBV d          16.926   5.050  14.322  0.00  0.00     0.259 S 
ATOM     13  O1  FBV d          15.996   5.414  13.236  0.00  0.00    -0.201 OA
ATOM     14  O2  FBV d          17.535   6.079  15.093  0.00  0.00    -0.201 OA
BRANCH  12  15
ATOM     15  N2  FBV d          18.060   4.052  13.788  0.00  0.00    -0.324 N 
ATOM     16  H5  FBV d          18.040   3.735  12.839  0.00  0.00     0.169 HD
ATOM     17  H6  FBV d          18.787   3.746  14.402  0.00  0.00     0.169 HD
ENDBRANCH  12  15
ENDBRANCH   4  12
TORSDOF 2
ENDMDL
MODEL 6
REMARK VINA RESULT:      -5.3      1.711      2.348
REMARK  2 active torsions:
REMARK  status: ('A' for Active; 'I' for Inactive)
REMARK    1  A    between atoms: C4_4  and  S_7 
REMARK    2  A    between atoms: S_7  and  N2_8 
ROOT
ATOM      1  C1  FBV d          14.209   6.327  16.187  0.00  0.00    -0.080 A 
ATOM      2  C2  FBV d          15.093   6.534  15.133  0.00  0.00    -0.081 A 
ATOM      3  C3  FBV d          16.067   5.583  14.784  0.00  0.00    -0.057 A 
ATOM      4  C4  FBV d          16.178   4.390  15.556  0.00  0.00     0.117 A 
ATOM      5  C5  FBV d          15.221   4.258  16.618  0.00  0.00     0.139 A 
ATOM      6  C6  FBV d          14.266   5.185  16.929  0.00  0.00    -0.044 A 
ATOM      7  F   FBV d          15.286   3.095  17.305  0.00  0.00    -0.204 F 
ATOM      8  H1  FBV d          13.467   7.082  16.420  0.00  0.00     0.083 H 
ATOM      9  H2  FBV d          15.030   7.456  14.565  0.00  0.00     0.083 H 
ATOM     10  H3  FBV d          16.724   5.754  13.940  0.00  0.00     0.086 H 
ATOM     11  H4  FBV d          13.571   5.017  17.744  0.00  0.00     0.088 H 
ENDROOT
BRANCH   4  12
ATOM     12  S   FBV d          17.371   3.148  15.194  0.00  0.00     0.259 S 
ATOM     13  O1  FBV d          17.811   3.441  13.817  0.00  0.00    -0.201 OA
ATOM     14  O2  FBV d          18.310   3.235  16.260  0.00  0.00    -0.201 OA
BRANCH  12  15
ATOM     15  N2  FBV d          16.628   1.730  15.263  0.00  0.00    -0.324 N 
ATOM     16  H5  FBV d          16.553   1.246  16.135  0.00  0.00     0.169 HD
ATOM     17  H6  FBV d          16.238   1.328  14.434  0.00  0.00     0.169 HD
ENDBRANCH  12  15
ENDBRANCH   4  12
TORSDOF 2
ENDMDL
MODEL 7
REMARK VINA RESULT:      -5.2      1.876      2.330
REMARK  2 active torsions:
REMARK  status: ('A' for Active; 'I' for Inactive)
REMARK    1  A    between atoms: C4_4  and  S_7 
REMARK    2  A    between atoms: S_7  and  N2_8 
ROOT
ATOM      1  C1  FBV d          17.585   6.698  14.315  0.00  0.00    -0.080 A 
ATOM      2  C2  FBV d          16.208   6.710  14.516  0.00  0.00    -0.081 A 
ATOM      3  C3  FBV d          15.544   5.656  15.166  0.00  0.00    -0.057 A 
ATOM      4  C4  FBV d          16.295   4.525  15.598  0.00  0.00     0.117 A 
ATOM      5  C5  FBV d          17.708   4.602  15.356  0.00  0.00     0.139 A 
ATOM      6  C6  FBV d          18.340   5.646  14.741  0.00  0.00    -0.044 A 
ATOM      7  F   FBV d          18.425   3.557  15.827  0.00  0.00    -0.204 F 
ATOM      8  H1  FBV d          18.062   7.533  13.816  0.00  0.00     0.083 H 
ATOM      9  H2  FBV d          15.631   7.556  14.159  0.00  0.00     0.083 H 
ATOM     10  H3  FBV d          14.475   5.704  15.337  0.00  0.00     0.086 H 
ATOM     11  H4  FBV d          19.415   5.639  14.595  0.00  0.00     0.088 H 
ENDROOT
BRANCH   4  12
ATOM     12  S   FBV d          15.545   3.159  16.415  0.00  0.00     0.259 S 
ATOM     13  O1  FBV d          15.844   1.998  15.555  0.00  0.00    -0.201 OA
ATOM     14  O2  FBV d          16.072   3.202  17.736  0.00  0.00    -0.201 OA
BRANCH  12  15
ATOM     15  N2  FBV d          13.967   3.435  16.468  0.00  0.00    -0.324 N 
ATOM     16  H5  FBV d          13.479   3.708  15.639  0.00  0.00     0.169 HD
ATOM     17  H6  FBV d          13.471   3.334  17.330  0.00  0.00     0.169 HD
ENDBRANCH  12  15
ENDBRANCH   4  12
TORSDOF 2
ENDMDL
MODEL 8
REMARK VINA RESULT:      -4.9      1.514      1.806
REMARK  2 active torsions:
REMARK  status: ('A' for Active; 'I' for Inactive)
REMARK    1  A    between atoms: C4_4  and  S_7 
REMARK    2  A    between atoms: S_7  and  N2_8 
ROOT
ATOM      1  C1  FBV d          13.848   5.945  16.587  0.00  0.00    -0.080 A 
ATOM      2  C2  FBV d          14.115   4.759  17.264  0.00  0.00    -0.081 A 
ATOM      3  C3  FBV d          15.238   3.970  16.963  0.00  0.00    -0.057 A 
ATOM      4  C4  FBV d          16.106   4.373  15.908  0.00  0.00     0.117 A 
ATOM      5  C5  FBV d          15.758   5.611  15.270  0.00  0.00     0.139 A 
ATOM      6  C6  FBV d          14.672   6.378  15.591  0.00  0.00    -0.044 A 
ATOM      7  F   FBV d          16.621   6.024  14.315  0.00  0.00    -0.204 F 
ATOM      8  H1  FBV d          12.975   6.530  16.853  0.00  0.00     0.083 H 
ATOM      9  H2  FBV d          13.437   4.435  18.046  0.00  0.00     0.083 H 
ATOM     10  H3  FBV d          15.441   3.066  17.526  0.00  0.00     0.086 H 
ATOM     11  H4  FBV d          14.472   7.306  15.068  0.00  0.00     0.088 H 
ENDROOT
BRANCH   4  12
ATOM     12  S   FBV d          17.531   3.443  15.459  0.00  0.00     0.259 S 
ATOM     13  O1  FBV d          17.557   2.316  16.410  0.00  0.00    -0.201 OA
ATOM     14  O2  FBV d          17.362   3.181  14.071  0.00  0.00    -0.201 OA
BRANCH  12  15
ATOM     15  N2  FBV d          18.809   4.388  15.665  0.00  0.00    -0.324 N 
ATOM     16  H5  FBV d          19.654   4.200  15.166  0.00  0.00     0.169 HD
ATOM     17  H6  FBV d          18.761   5.165  16.293  0.00  0.00     0.169 HD
ENDBRANCH  12  15
ENDBRANCH   4  12
TORSDOF 2
ENDMDL
MODEL 9
REMARK VINA RESULT:      -3.4      2.514      3.102
REMARK  2 active torsions:
REMARK  status: ('A' for Active; 'I' for Inactive)
REMARK    1  A    between atoms: C4_4  and  S_7 
REMARK    2  A    between atoms: S_7  and  N2_8 
ROOT
ATOM      1  C1  FBV d          18.101   5.992  14.263  0.00  0.00    -0.080 A 
ATOM      2  C2  FBV d          18.213   4.667  14.675  0.00  0.00    -0.081 A 
ATOM      3  C3  FBV d          17.198   4.030  15.408  0.00  0.00    -0.057 A 
ATOM      4  C4  FBV d          16.037   4.772  15.775  0.00  0.00     0.117 A 
ATOM      5  C5  FBV d          16.004   6.127  15.301  0.00  0.00     0.139 A 
ATOM      6  C6  FBV d          16.993   6.724  14.569  0.00  0.00    -0.044 A 
ATOM      7  F   FBV d          14.873   6.806  15.593  0.00  0.00    -0.204 F 
ATOM      8  H1  FBV d          18.903   6.445  13.692  0.00  0.00     0.083 H 
ATOM      9  H2  FBV d          19.110   4.111  14.424  0.00  0.00     0.083 H 
ATOM     10  H3  FBV d          17.296   2.989  15.691  0.00  0.00     0.086 H 
ATOM     11  H4  FBV d          16.898   7.753  14.240  0.00  0.00     0.088 H 
ENDROOT
BRANCH   4  12
ATOM     12  S   FBV d          14.721   4.057  16.696  0.00  0.00     0.259 S 
ATOM     13  O1  FBV d          14.100   5.191  17.406  0.00  0.00    -0.201 OA
ATOM     14  O2  FBV d          13.961   3.338  15.731  0.00  0.00    -0.201 OA
BRANCH  12  15
ATOM     15  N2  FBV d          15.365   3.021  17.736  0.00  0.00    -0.324 N 
ATOM     16  H5  FBV d          16.326   3.109  17.998  0.00  0.00     0.169 HD
ATOM     17  H6  FBV d          14.806   2.288  18.123  0.00  0.00     0.169 HD
ENDBRANCH  12  15
ENDBRANCH   4  12
TORSDOF 2
ENDMDL
MODEL 10
REMARK VINA RESULT:      -3.1      2.181      2.906
REMARK  2 active torsions:
REMARK  status: ('A' for Active; 'I' for Inactive)
REMARK    1  A    between atoms: C4_4  and  S_7 
REMARK    2  A    between atoms: S_7  and  N2_8 
ROOT
ATOM      1  C1  FBV d          18.202   6.063  13.977  0.00  0.00    -0.080 A 
ATOM      2  C2  FBV d          18.513   4.719  14.155  0.00  0.00    -0.081 A 
ATOM      3  C3  FBV d          17.675   3.853  14.878  0.00  0.00    -0.057 A 
ATOM      4  C4  FBV d          16.494   4.375  15.482  0.00  0.00     0.117 A 
ATOM      5  C5  FBV d          16.250   5.769  15.240  0.00  0.00     0.139 A 
ATOM      6  C6  FBV d          17.066   6.591  14.514  0.00  0.00    -0.044 A 
ATOM      7  F   FBV d          15.095   6.244  15.758  0.00  0.00    -0.204 F 
ATOM      8  H1  FBV d          18.870   6.697  13.406  0.00  0.00     0.083 H 
ATOM      9  H2  FBV d          19.427   4.328  13.723  0.00  0.00     0.083 H 
ATOM     10  H3  FBV d          17.924   2.803  14.977  0.00  0.00     0.086 H 
ATOM     11  H4  FBV d          16.816   7.637  14.369  0.00  0.00     0.088 H 
ENDROOT
BRANCH   4  12
ATOM     12  S   FBV d          15.392   3.365  16.410  0.00  0.00     0.259 S 
ATOM     13  O1  FBV d          15.343   2.088  15.673  0.00  0.00    -0.201 OA
ATOM     14  O2  FBV d          15.916   3.388  17.732  0.00  0.00    -0.201 OA
BRANCH  12  15
ATOM     15  N2  FBV d          13.958   4.081  16.400  0.00  0.00    -0.324 N 
ATOM     16  H5  FBV d          13.558   4.388  15.537  0.00  0.00     0.169 HD
ATOM     17  H6  FBV d          13.463   4.220  17.258  0.00  0.00     0.169 HD
ENDBRANCH  12  15
ENDBRANCH   4  12
TORSDOF 2
ENDMDL
