MODEL 1
REMARK VINA RESULT:      -9.7      0.000      0.000
REMARK  3 active torsions:
REMARK  status: ('A' for Active; 'I' for Inactive)
REMARK    1  A    between atoms: C1_1  and  O1_2 
REMARK    2  A    between atoms: C10_11  and  C11_12 
REMARK    3  A    between atoms: C14_15  and  C15_16 
ROOT
ATOM      1  C1  MOL d          23.257   7.021  10.995  0.00  0.00     0.066 A 
ATOM      2  C2  MOL d          23.182   5.647  10.746  0.00  0.00    -0.049 A 
ATOM      3  C3  MOL d          23.007   4.737  11.789  0.00  0.00    -0.054 A 
ATOM      4  C4  MOL d          22.907   5.219  13.093  0.00  0.00     0.044 A 
ATOM      5  C5  MOL d          22.984   6.580  13.322  0.00  0.00     0.006 A 
ATOM      6  C6  MOL d          23.157   7.508  12.299  0.00  0.00    -0.038 A 
ATOM      7  N7  MOL d          22.737   4.633  14.321  0.00  0.00    -0.354 N 
ATOM      8  C8  MOL d          22.696   5.549  15.345  0.00  0.00     0.051 A 
ATOM      9  C9  MOL d          22.849   6.795  14.767  0.00  0.00     0.011 A 
ATOM     10  C10 MOL d          22.541   5.451  16.724  0.00  0.00    -0.023 A 
ATOM     11  C12 MOL d          22.545   6.618  17.501  0.00  0.00    -0.011 A 
ATOM     12  C13 MOL d          22.704   7.888  16.904  0.00  0.00     0.036 A 
ATOM     13  C14 MOL d          22.859   7.984  15.505  0.00  0.00    -0.033 A 
ATOM     14  C16 MOL d          22.396   6.529  18.888  0.00  0.00    -0.057 A 
ATOM     15  C17 MOL d          22.400   7.685  19.665  0.00  0.00    -0.020 A 
ATOM     16  N18 MOL d          22.548   8.887  19.081  0.00  0.00    -0.344 N 
ATOM     17  C19 MOL d          22.699   9.017  17.749  0.00  0.00     0.190 A 
ATOM     18  O19 MOL d          22.842  10.278  17.248  0.00  0.00    -0.171 OA
ATOM     19  H2  MOL d          23.261   5.284   9.727  0.00  0.00     0.087 H 
ATOM     20  H3  MOL d          22.950   3.674  11.588  0.00  0.00     0.087 H 
ATOM     21  H4  MOL d          23.211   8.571  12.506  0.00  0.00     0.089 H 
ATOM     22  H5  MOL d          22.649   3.616  14.462  0.00  0.00     0.166 HD
ATOM     23  H12 MOL d          22.275   5.555  19.361  0.00  0.00     0.086 H 
ATOM     24  H13 MOL d          22.283   7.615  20.746  0.00  0.00     0.111 H 
ATOM     25  H14 MOL d          22.547   9.708  19.652  0.00  0.00     0.167 HD
ENDROOT
BRANCH  10  26
ATOM     26  C11 MOL d          22.375   4.086  17.354  0.00  0.00    -0.048 C 
ATOM     27  H6  MOL d          23.352   3.725  17.708  0.00  0.00     0.033 H 
ATOM     28  H7  MOL d          21.974   3.384  16.608  0.00  0.00     0.033 H 
ATOM     29  H8  MOL d          21.680   4.156  18.204  0.00  0.00     0.033 H 
ENDBRANCH  10  26
BRANCH  13  30
ATOM     30  C15 MOL d          23.036   9.313  14.800  0.00  0.00    -0.049 C 
ATOM     31  H9  MOL d          23.417  10.060  15.513  0.00  0.00     0.033 H 
ATOM     32  H10 MOL d          22.067   9.648  14.401  0.00  0.00     0.033 H 
ATOM     33  H11 MOL d          23.752   9.197  13.973  0.00  0.00     0.033 H 
ENDBRANCH  13  30
BRANCH   1  34
ATOM     34  O1  MOL d          23.426   7.889   9.955  0.00  0.00    -0.361 OA
ATOM     35  H1  MOL d          22.891   8.660  10.098  0.00  0.00     0.217 HD
ENDBRANCH   1  34
TORSDOF 3
ENDMDL
MODEL 2
REMARK VINA RESULT:      -9.5      2.261      6.508
REMARK  3 active torsions:
REMARK  status: ('A' for Active; 'I' for Inactive)
REMARK    1  A    between atoms: C1_1  and  O1_2 
REMARK    2  A    between atoms: C10_11  and  C11_12 
REMARK    3  A    between atoms: C14_15  and  C15_16 
ROOT
ATOM      1  C1  MOL d          22.154   4.914  18.788  0.00  0.00     0.066 A 
ATOM      2  C2  MOL d          22.220   6.131  19.475  0.00  0.00    -0.049 A 
ATOM      3  C3  MOL d          22.427   7.330  18.792  0.00  0.00    -0.054 A 
ATOM      4  C4  MOL d          22.569   7.300  17.406  0.00  0.00     0.044 A 
ATOM      5  C5  MOL d          22.502   6.089  16.742  0.00  0.00     0.006 A 
ATOM      6  C6  MOL d          22.295   4.879  17.400  0.00  0.00    -0.038 A 
ATOM      7  N7  MOL d          22.778   8.254  16.443  0.00  0.00    -0.354 N 
ATOM      8  C8  MOL d          22.849   7.722  15.177  0.00  0.00     0.051 A 
ATOM      9  C9  MOL d          22.682   6.357  15.311  0.00  0.00     0.011 A 
ATOM     10  C10 MOL d          23.038   8.265  13.910  0.00  0.00    -0.023 A 
ATOM     11  C12 MOL d          23.059   7.416  12.795  0.00  0.00    -0.011 A 
ATOM     12  C13 MOL d          22.890   6.022  12.939  0.00  0.00     0.036 A 
ATOM     13  C14 MOL d          22.696   5.475  14.225  0.00  0.00    -0.033 A 
ATOM     14  C16 MOL d          23.254   7.952  11.518  0.00  0.00    -0.057 A 
ATOM     15  C17 MOL d          23.276   7.113  10.407  0.00  0.00    -0.020 A 
ATOM     16  N18 MOL d          23.110   5.788  10.560  0.00  0.00    -0.344 N 
ATOM     17  C19 MOL d          22.923   5.230  11.772  0.00  0.00     0.190 A 
ATOM     18  O19 MOL d          22.763   3.877  11.828  0.00  0.00    -0.171 OA
ATOM     19  H2  MOL d          22.107   6.142  20.553  0.00  0.00     0.087 H 
ATOM     20  H3  MOL d          22.476   8.269  19.331  0.00  0.00     0.087 H 
ATOM     21  H4  MOL d          22.245   3.943  16.854  0.00  0.00     0.089 H 
ATOM     22  H5  MOL d          22.872   9.259  16.645  0.00  0.00     0.166 HD
ATOM     23  H12 MOL d          23.389   9.026  11.394  0.00  0.00     0.086 H 
ATOM     24  H13 MOL d          23.428   7.532   9.412  0.00  0.00     0.111 H 
ATOM     25  H14 MOL d          23.126   5.199   9.752  0.00  0.00     0.167 HD
ENDROOT
BRANCH  10  26
ATOM     26  C11 MOL d          23.222   9.759  13.766  0.00  0.00    -0.048 C 
ATOM     27  H6  MOL d          22.822  10.265  14.657  0.00  0.00     0.033 H 
ATOM     28  H7  MOL d          22.684  10.111  12.873  0.00  0.00     0.033 H 
ATOM     29  H8  MOL d          24.293   9.989  13.663  0.00  0.00     0.033 H 
ENDBRANCH  10  26
BRANCH  13  30
ATOM     30  C15 MOL d          22.510   3.988  14.452  0.00  0.00    -0.049 C 
ATOM     31  H9  MOL d          23.311   3.435  13.939  0.00  0.00     0.033 H 
ATOM     32  H10 MOL d          21.535   3.675  14.053  0.00  0.00     0.033 H 
ATOM     33  H11 MOL d          22.551   3.775  15.531  0.00  0.00     0.033 H 
ENDBRANCH  13  30
BRANCH   1  34
ATOM     34  O1  MOL d          21.949   3.757  19.481  0.00  0.00    -0.361 OA
ATOM     35  H1  MOL d          21.680   3.073  18.879  0.00  0.00     0.217 HD
ENDBRANCH   1  34
TORSDOF 3
ENDMDL
MODEL 3
REMARK VINA RESULT:      -9.4      1.554      5.832
REMARK  3 active torsions:
REMARK  status: ('A' for Active; 'I' for Inactive)
REMARK    1  A    between atoms: C1_1  and  O1_2 
REMARK    2  A    between atoms: C10_11  and  C11_12 
REMARK    3  A    between atoms: C14_15  and  C15_16 
ROOT
ATOM      1  C1  MOL d          22.598   9.613  18.262  0.00  0.00     0.066 A 
ATOM      2  C2  MOL d          22.496   8.521  19.129  0.00  0.00    -0.049 A 
ATOM      3  C3  MOL d          22.519   7.214  18.643  0.00  0.00    -0.054 A 
ATOM      4  C4  MOL d          22.646   7.008  17.270  0.00  0.00     0.044 A 
ATOM      5  C5  MOL d          22.746   8.099  16.426  0.00  0.00     0.006 A 
ATOM      6  C6  MOL d          22.727   9.412  16.887  0.00  0.00    -0.038 A 
ATOM      7  N7  MOL d          22.703   5.896  16.469  0.00  0.00    -0.354 N 
ATOM      8  C8  MOL d          22.838   6.210  15.137  0.00  0.00     0.051 A 
ATOM      9  C9  MOL d          22.869   7.589  15.056  0.00  0.00     0.011 A 
ATOM     10  C10 MOL d          22.940   5.455  13.972  0.00  0.00    -0.023 A 
ATOM     11  C12 MOL d          23.070   6.109  12.739  0.00  0.00    -0.011 A 
ATOM     12  C13 MOL d          23.099   7.519  12.663  0.00  0.00     0.036 A 
ATOM     13  C14 MOL d          22.997   8.281  13.846  0.00  0.00    -0.033 A 
ATOM     14  C16 MOL d          23.169   5.360  11.563  0.00  0.00    -0.057 A 
ATOM     15  C17 MOL d          23.297   6.004  10.335  0.00  0.00    -0.020 A 
ATOM     16  N18 MOL d          23.327   7.348  10.280  0.00  0.00    -0.344 N 
ATOM     17  C19 MOL d          23.231   8.107  11.388  0.00  0.00     0.190 A 
ATOM     18  O19 MOL d          23.272   9.462  11.233  0.00  0.00    -0.171 OA
ATOM     19  H2  MOL d          22.397   8.693  20.195  0.00  0.00     0.087 H 
ATOM     20  H3  MOL d          22.440   6.372  19.321  0.00  0.00     0.087 H 
ATOM     21  H4  MOL d          22.809  10.250  16.203  0.00  0.00     0.089 H 
ATOM     22  H5  MOL d          22.650   4.932  16.825  0.00  0.00     0.166 HD
ATOM     23  H12 MOL d          23.145   4.272  11.608  0.00  0.00     0.086 H 
ATOM     24  H13 MOL d          23.374   5.420   9.419  0.00  0.00     0.111 H 
ATOM     25  H14 MOL d          23.422   7.795   9.391  0.00  0.00     0.167 HD
ENDROOT
BRANCH  10  26
ATOM     26  C11 MOL d          22.905   3.946  14.064  0.00  0.00    -0.048 C 
ATOM     27  H6  MOL d          21.868   3.597  13.948  0.00  0.00     0.033 H 
ATOM     28  H7  MOL d          23.292   3.629  15.043  0.00  0.00     0.033 H 
ATOM     29  H8  MOL d          23.528   3.515  13.266  0.00  0.00     0.033 H 
ENDBRANCH  10  26
BRANCH  13  30
ATOM     30  C15 MOL d          23.019   9.796  13.838  0.00  0.00    -0.049 C 
ATOM     31  H9  MOL d          23.966  10.152  14.271  0.00  0.00     0.033 H 
ATOM     32  H10 MOL d          22.177  10.178  14.434  0.00  0.00     0.033 H 
ATOM     33  H11 MOL d          22.930  10.158  12.803  0.00  0.00     0.033 H 
ENDBRANCH  13  30
BRANCH   1  34
ATOM     34  O1  MOL d          22.575  10.881  18.765  0.00  0.00    -0.361 OA
ATOM     35  H1  MOL d          22.856  11.492  18.094  0.00  0.00     0.217 HD
ENDBRANCH   1  34
TORSDOF 3
ENDMDL
MODEL 4
REMARK VINA RESULT:      -9.3      2.094      5.556
REMARK  3 active torsions:
REMARK  status: ('A' for Active; 'I' for Inactive)
REMARK    1  A    between atoms: C1_1  and  O1_2 
REMARK    2  A    between atoms: C10_11  and  C11_12 
REMARK    3  A    between atoms: C14_15  and  C15_16 
ROOT
ATOM      1  C1  MOL d          22.349   5.735  18.750  0.00  0.00     0.066 A 
ATOM      2  C2  MOL d          22.349   4.344  18.603  0.00  0.00    -0.049 A 
ATOM      3  C3  MOL d          22.459   3.757  17.342  0.00  0.00    -0.054 A 
ATOM      4  C4  MOL d          22.569   4.579  16.222  0.00  0.00     0.044 A 
ATOM      5  C5  MOL d          22.567   5.952  16.385  0.00  0.00     0.006 A 
ATOM      6  C6  MOL d          22.460   6.563  17.632  0.00  0.00    -0.038 A 
ATOM      7  N7  MOL d          22.690   4.354  14.875  0.00  0.00    -0.354 N 
ATOM      8  C8  MOL d          22.770   5.517  14.147  0.00  0.00     0.051 A 
ATOM      9  C9  MOL d          22.696   6.557  15.055  0.00  0.00     0.011 A 
ATOM     10  C10 MOL d          22.902   5.803  12.792  0.00  0.00    -0.023 A 
ATOM     11  C12 MOL d          22.954   7.140  12.373  0.00  0.00    -0.011 A 
ATOM     12  C13 MOL d          22.875   8.197  13.305  0.00  0.00     0.036 A 
ATOM     13  C14 MOL d          22.744   7.904  14.679  0.00  0.00    -0.033 A 
ATOM     14  C16 MOL d          23.081   7.436  11.013  0.00  0.00    -0.057 A 
ATOM     15  C17 MOL d          23.132   8.762  10.591  0.00  0.00    -0.020 A 
ATOM     16  N18 MOL d          23.060   9.759  11.492  0.00  0.00    -0.344 N 
ATOM     17  C19 MOL d          22.933   9.517  12.811  0.00  0.00     0.190 A 
ATOM     18  O19 MOL d          22.869  10.591  13.648  0.00  0.00    -0.171 OA
ATOM     19  H2  MOL d          22.263   3.714  19.481  0.00  0.00     0.087 H 
ATOM     20  H3  MOL d          22.458   2.678  17.235  0.00  0.00     0.087 H 
ATOM     21  H4  MOL d          22.464   7.643  17.732  0.00  0.00     0.089 H 
ATOM     22  H5  MOL d          22.718   3.414  14.453  0.00  0.00     0.166 HD
ATOM     23  H12 MOL d          23.139   6.630  10.284  0.00  0.00     0.086 H 
ATOM     24  H13 MOL d          23.231   8.993   9.531  0.00  0.00     0.111 H 
ATOM     25  H14 MOL d          23.100  10.705  11.173  0.00  0.00     0.167 HD
ENDROOT
BRANCH  10  26
ATOM     26  C11 MOL d          22.982   4.663  11.801  0.00  0.00    -0.048 C 
ATOM     27  H6  MOL d          22.170   3.948  12.000  0.00  0.00     0.033 H 
ATOM     28  H7  MOL d          23.952   4.155  11.904  0.00  0.00     0.033 H 
ATOM     29  H8  MOL d          22.881   5.058  10.779  0.00  0.00     0.033 H 
ENDBRANCH  10  26
BRANCH  13  30
ATOM     30  C15 MOL d          22.652   8.989  15.733  0.00  0.00    -0.049 C 
ATOM     31  H9  MOL d          23.583   9.012  16.319  0.00  0.00     0.033 H 
ATOM     32  H10 MOL d          21.804   8.780  16.401  0.00  0.00     0.033 H 
ATOM     33  H11 MOL d          22.502   9.963  15.245  0.00  0.00     0.033 H 
ENDBRANCH  13  30
BRANCH   1  34
ATOM     34  O1  MOL d          22.242   6.283  19.995  0.00  0.00    -0.361 OA
ATOM     35  H1  MOL d          21.487   5.915  20.438  0.00  0.00     0.217 HD
ENDBRANCH   1  34
TORSDOF 3
ENDMDL
MODEL 5
REMARK VINA RESULT:      -9.2      1.144      1.327
REMARK  3 active torsions:
REMARK  status: ('A' for Active; 'I' for Inactive)
REMARK    1  A    between atoms: C1_1  and  O1_2 
REMARK    2  A    between atoms: C10_11  and  C11_12 
REMARK    3  A    between atoms: C14_15  and  C15_16 
ROOT
ATOM      1  C1  MOL d          23.190   8.933  11.332  0.00  0.00     0.066 A 
ATOM      2  C2  MOL d          23.192   7.756  10.577  0.00  0.00    -0.049 A 
ATOM      3  C3  MOL d          23.067   6.509  11.193  0.00  0.00    -0.054 A 
ATOM      4  C4  MOL d          22.941   6.452  12.579  0.00  0.00     0.044 A 
ATOM      5  C5  MOL d          22.940   7.626  13.311  0.00  0.00     0.006 A 
ATOM      6  C6  MOL d          23.062   8.881  12.720  0.00  0.00    -0.038 A 
ATOM      7  N7  MOL d          22.803   5.434  13.488  0.00  0.00    -0.354 N 
ATOM      8  C8  MOL d          22.710   5.889  14.783  0.00  0.00     0.051 A 
ATOM      9  C9  MOL d          22.793   7.267  14.725  0.00  0.00     0.011 A 
ATOM     10  C10 MOL d          22.561   5.265  16.017  0.00  0.00    -0.023 A 
ATOM     11  C12 MOL d          22.500   6.047  17.179  0.00  0.00    -0.011 A 
ATOM     12  C13 MOL d          22.587   7.454  17.114  0.00  0.00     0.036 A 
ATOM     13  C14 MOL d          22.737   8.084  15.860  0.00  0.00    -0.033 A 
ATOM     14  C16 MOL d          22.355   5.428  18.424  0.00  0.00    -0.057 A 
ATOM     15  C17 MOL d          22.294   6.200  19.582  0.00  0.00    -0.020 A 
ATOM     16  N18 MOL d          22.375   7.540  19.503  0.00  0.00    -0.344 N 
ATOM     17  C19 MOL d          22.519   8.175  18.324  0.00  0.00     0.190 A 
ATOM     18  O19 MOL d          22.591   9.537  18.343  0.00  0.00    -0.171 OA
ATOM     19  H2  MOL d          23.291   7.812   9.499  0.00  0.00     0.087 H 
ATOM     20  H3  MOL d          23.070   5.601  10.602  0.00  0.00     0.087 H 
ATOM     21  H4  MOL d          23.056   9.786  13.318  0.00  0.00     0.089 H 
ATOM     22  H5  MOL d          22.772   4.438  13.230  0.00  0.00     0.166 HD
ATOM     23  H12 MOL d          22.289   4.343  18.489  0.00  0.00     0.086 H 
ATOM     24  H13 MOL d          22.181   5.718  20.553  0.00  0.00     0.111 H 
ATOM     25  H14 MOL d          22.328   8.080  20.343  0.00  0.00     0.167 HD
ENDROOT
BRANCH  10  26
ATOM     26  C11 MOL d          22.472   3.757  16.077  0.00  0.00    -0.048 C 
ATOM     27  H6  MOL d          22.413   3.434  17.128  0.00  0.00     0.033 H 
ATOM     28  H7  MOL d          23.365   3.317  15.608  0.00  0.00     0.033 H 
ATOM     29  H8  MOL d          21.573   3.420  15.540  0.00  0.00     0.033 H 
ENDBRANCH  10  26
BRANCH  13  30
ATOM     30  C15 MOL d          22.839   9.589  15.717  0.00  0.00    -0.049 C 
ATOM     31  H9  MOL d          23.774   9.845  15.195  0.00  0.00     0.033 H 
ATOM     32  H10 MOL d          22.836  10.053  16.714  0.00  0.00     0.033 H 
ATOM     33  H11 MOL d          21.982   9.961  15.137  0.00  0.00     0.033 H 
ENDBRANCH  13  30
BRANCH   1  34
ATOM     34  O1  MOL d          23.310  10.139  10.704  0.00  0.00    -0.361 OA
ATOM     35  H1  MOL d          22.875  10.100   9.861  0.00  0.00     0.217 HD
ENDBRANCH   1  34
TORSDOF 3
ENDMDL
MODEL 6
REMARK VINA RESULT:      -9.0      2.138      3.256
REMARK  3 active torsions:
REMARK  status: ('A' for Active; 'I' for Inactive)
REMARK    1  A    between atoms: C1_1  and  O1_2 
REMARK    2  A    between atoms: C10_11  and  C11_12 
REMARK    3  A    between atoms: C14_15  and  C15_16 
ROOT
ATOM      1  C1  MOL d          22.935   4.939  12.134  0.00  0.00     0.066 A 
ATOM      2  C2  MOL d          23.168   6.127  11.435  0.00  0.00    -0.049 A 
ATOM      3  C3  MOL d          23.243   7.349  12.103  0.00  0.00    -0.054 A 
ATOM      4  C4  MOL d          23.082   7.371  13.487  0.00  0.00     0.044 A 
ATOM      5  C5  MOL d          22.852   6.187  14.164  0.00  0.00     0.006 A 
ATOM      6  C6  MOL d          22.774   4.955  13.520  0.00  0.00    -0.038 A 
ATOM      7  N7  MOL d          23.094   8.360  14.439  0.00  0.00    -0.354 N 
ATOM      8  C8  MOL d          22.885   7.876  15.708  0.00  0.00     0.051 A 
ATOM      9  C9  MOL d          22.725   6.508  15.589  0.00  0.00     0.011 A 
ATOM     10  C10 MOL d          22.815   8.464  16.967  0.00  0.00    -0.023 A 
ATOM     11  C12 MOL d          22.581   7.658  18.090  0.00  0.00    -0.011 A 
ATOM     12  C13 MOL d          22.416   6.262  17.962  0.00  0.00     0.036 A 
ATOM     13  C14 MOL d          22.490   5.668  16.684  0.00  0.00    -0.033 A 
ATOM     14  C16 MOL d          22.504   8.241  19.358  0.00  0.00    -0.057 A 
ATOM     15  C17 MOL d          22.270   7.445  20.478  0.00  0.00    -0.020 A 
ATOM     16  N18 MOL d          22.119   6.117  20.339  0.00  0.00    -0.344 N 
ATOM     17  C19 MOL d          22.183   5.515  19.135  0.00  0.00     0.190 A 
ATOM     18  O19 MOL d          22.018   4.162  19.094  0.00  0.00    -0.171 OA
ATOM     19  H2  MOL d          23.292   6.098  10.358  0.00  0.00     0.087 H 
ATOM     20  H3  MOL d          23.424   8.267  11.555  0.00  0.00     0.087 H 
ATOM     21  H4  MOL d          22.595   4.041  14.075  0.00  0.00     0.089 H 
ATOM     22  H5  MOL d          23.244   9.356  14.225  0.00  0.00     0.166 HD
ATOM     23  H12 MOL d          22.626   9.317  19.471  0.00  0.00     0.086 H 
ATOM     24  H13 MOL d          22.211   7.900  21.466  0.00  0.00     0.111 H 
ATOM     25  H14 MOL d          21.955   5.559  21.152  0.00  0.00     0.167 HD
ENDROOT
BRANCH  10  26
ATOM     26  C11 MOL d          22.989   9.961  17.094  0.00  0.00    -0.048 C 
ATOM     27  H6  MOL d          23.345  10.204  18.106  0.00  0.00     0.033 H 
ATOM     28  H7  MOL d          22.024  10.459  16.917  0.00  0.00     0.033 H 
ATOM     29  H8  MOL d          23.723  10.309  16.353  0.00  0.00     0.033 H 
ENDBRANCH  10  26
BRANCH  13  30
ATOM     30  C15 MOL d          22.320   4.177  16.473  0.00  0.00    -0.049 C 
ATOM     31  H9  MOL d          21.322   3.869  16.817  0.00  0.00     0.033 H 
ATOM     32  H10 MOL d          23.088   3.637  17.044  0.00  0.00     0.033 H 
ATOM     33  H11 MOL d          22.426   3.944  15.403  0.00  0.00     0.033 H 
ENDBRANCH  13  30
BRANCH   1  34
ATOM     34  O1  MOL d          22.868   3.757  11.455  0.00  0.00    -0.361 OA
ATOM     35  H1  MOL d          22.208   3.201  11.853  0.00  0.00     0.217 HD
ENDBRANCH   1  34
TORSDOF 3
ENDMDL
MODEL 7
REMARK VINA RESULT:      -8.9      2.024      6.571
REMARK  3 active torsions:
REMARK  status: ('A' for Active; 'I' for Inactive)
REMARK    1  A    between atoms: C1_1  and  O1_2 
REMARK    2  A    between atoms: C10_11  and  C11_12 
REMARK    3  A    between atoms: C14_15  and  C15_16 
ROOT
ATOM      1  C1  MOL d          22.494   7.976  19.178  0.00  0.00     0.066 A 
ATOM      2  C2  MOL d          22.551   9.373  19.209  0.00  0.00    -0.049 A 
ATOM      3  C3  MOL d          22.701  10.111  18.034  0.00  0.00    -0.054 A 
ATOM      4  C4  MOL d          22.793   9.433  16.820  0.00  0.00     0.044 A 
ATOM      5  C5  MOL d          22.734   8.052  16.807  0.00  0.00     0.006 A 
ATOM      6  C6  MOL d          22.585   7.293  17.965  0.00  0.00    -0.038 A 
ATOM      7  N7  MOL d          22.940   9.823  15.513  0.00  0.00    -0.354 N 
ATOM      8  C8  MOL d          22.979   8.759  14.644  0.00  0.00     0.051 A 
ATOM      9  C9  MOL d          22.854   7.616  15.411  0.00  0.00     0.011 A 
ATOM     10  C10 MOL d          23.107   8.643  13.263  0.00  0.00    -0.023 A 
ATOM     11  C12 MOL d          23.110   7.369  12.678  0.00  0.00    -0.011 A 
ATOM     12  C13 MOL d          22.984   6.206  13.468  0.00  0.00     0.036 A 
ATOM     13  C14 MOL d          22.852   6.326  14.867  0.00  0.00    -0.033 A 
ATOM     14  C16 MOL d          23.243   7.243  11.292  0.00  0.00    -0.057 A 
ATOM     15  C17 MOL d          23.247   5.980  10.705  0.00  0.00    -0.020 A 
ATOM     16  N18 MOL d          23.123   4.882  11.470  0.00  0.00    -0.344 N 
ATOM     17  C19 MOL d          22.996   4.958  12.809  0.00  0.00     0.190 A 
ATOM     18  O19 MOL d          22.874   3.790  13.502  0.00  0.00    -0.171 OA
ATOM     19  H2  MOL d          22.479   9.889  20.160  0.00  0.00     0.087 H 
ATOM     20  H3  MOL d          22.744  11.193  18.066  0.00  0.00     0.087 H 
ATOM     21  H4  MOL d          22.540   6.210  17.925  0.00  0.00     0.089 H 
ATOM     22  H5  MOL d          23.014  10.806  15.215  0.00  0.00     0.166 HD
ATOM     23  H12 MOL d          23.344   8.132  10.672  0.00  0.00     0.086 H 
ATOM     24  H13 MOL d          23.351   5.882   9.625  0.00  0.00     0.111 H 
ATOM     25  H14 MOL d          23.125   3.982  11.034  0.00  0.00     0.167 HD
ENDROOT
BRANCH  10  26
ATOM     26  C11 MOL d          23.245   9.895  12.426  0.00  0.00    -0.048 C 
ATOM     27  H6  MOL d          23.825  10.646  12.983  0.00  0.00     0.033 H 
ATOM     28  H7  MOL d          22.246  10.297  12.200  0.00  0.00     0.033 H 
ATOM     29  H8  MOL d          23.764   9.653  11.487  0.00  0.00     0.033 H 
ENDBRANCH  10  26
BRANCH  13  30
ATOM     30  C15 MOL d          22.715   5.121  15.775  0.00  0.00    -0.049 C 
ATOM     31  H9  MOL d          23.674   4.932  16.281  0.00  0.00     0.033 H 
ATOM     32  H10 MOL d          22.437   4.241  15.176  0.00  0.00     0.033 H 
ATOM     33  H11 MOL d          21.936   5.315  16.526  0.00  0.00     0.033 H 
ENDBRANCH  13  30
BRANCH   1  34
ATOM     34  O1  MOL d          22.345   7.279  20.342  0.00  0.00    -0.361 OA
ATOM     35  H1  MOL d          23.050   6.648  20.423  0.00  0.00     0.217 HD
ENDBRANCH   1  34
TORSDOF 3
ENDMDL
MODEL 8
REMARK VINA RESULT:      -8.7      2.212      3.365
REMARK  3 active torsions:
REMARK  status: ('A' for Active; 'I' for Inactive)
REMARK    1  A    between atoms: C1_1  and  O1_2 
REMARK    2  A    between atoms: C10_11  and  C11_12 
REMARK    3  A    between atoms: C14_15  and  C15_16 
ROOT
ATOM      1  C1  MOL d          23.163   7.488  11.192  0.00  0.00     0.066 A 
ATOM      2  C2  MOL d          23.273   8.877  11.068  0.00  0.00    -0.049 A 
ATOM      3  C3  MOL d          23.231   9.702  12.193  0.00  0.00    -0.054 A 
ATOM      4  C4  MOL d          23.075   9.121  13.449  0.00  0.00     0.044 A 
ATOM      5  C5  MOL d          22.967   7.746  13.554  0.00  0.00     0.006 A 
ATOM      6  C6  MOL d          23.008   6.901  12.448  0.00  0.00    -0.038 A 
ATOM      7  N7  MOL d          22.994   9.610  14.729  0.00  0.00    -0.354 N 
ATOM      8  C8  MOL d          22.840   8.617  15.667  0.00  0.00     0.051 A 
ATOM      9  C9  MOL d          22.816   7.420  14.976  0.00  0.00     0.011 A 
ATOM     10  C10 MOL d          22.718   8.608  17.053  0.00  0.00    -0.023 A 
ATOM     11  C12 MOL d          22.571   7.384  17.721  0.00  0.00    -0.011 A 
ATOM     12  C13 MOL d          22.544   6.165  17.010  0.00  0.00     0.036 A 
ATOM     13  C14 MOL d          22.670   6.178  15.604  0.00  0.00    -0.033 A 
ATOM     14  C16 MOL d          22.443   7.365  19.113  0.00  0.00    -0.057 A 
ATOM     15  C17 MOL d          22.295   6.153  19.783  0.00  0.00    -0.020 A 
ATOM     16  N18 MOL d          22.276   5.000  19.091  0.00  0.00    -0.344 N 
ATOM     17  C19 MOL d          22.392   4.974  17.749  0.00  0.00     0.190 A 
ATOM     18  O19 MOL d          22.363   3.757  17.134  0.00  0.00    -0.171 OA
ATOM     19  H2  MOL d          23.394   9.318  10.085  0.00  0.00     0.087 H 
ATOM     20  H3  MOL d          23.317  10.778  12.090  0.00  0.00     0.087 H 
ATOM     21  H4  MOL d          22.923   5.826  12.559  0.00  0.00     0.089 H 
ATOM     22  H5  MOL d          23.043  10.612  14.962  0.00  0.00     0.166 HD
ATOM     23  H12 MOL d          22.458   8.299  19.674  0.00  0.00     0.086 H 
ATOM     24  H13 MOL d          22.195   6.139  20.867  0.00  0.00     0.111 H 
ATOM     25  H14 MOL d          22.171   4.138  19.586  0.00  0.00     0.167 HD
ENDROOT
BRANCH  10  26
ATOM     26  C11 MOL d          22.744   9.918  17.806  0.00  0.00    -0.048 C 
ATOM     27  H6  MOL d          22.438  10.733  17.133  0.00  0.00     0.033 H 
ATOM     28  H7  MOL d          23.763  10.110  18.175  0.00  0.00     0.033 H 
ATOM     29  H8  MOL d          22.050   9.866  18.658  0.00  0.00     0.033 H 
ENDBRANCH  10  26
BRANCH  13  30
ATOM     30  C15 MOL d          22.648   4.908  14.778  0.00  0.00    -0.049 C 
ATOM     31  H9  MOL d          22.784   4.038  15.437  0.00  0.00     0.033 H 
ATOM     32  H10 MOL d          23.462   4.938  14.039  0.00  0.00     0.033 H 
ATOM     33  H11 MOL d          21.683   4.826  14.257  0.00  0.00     0.033 H 
ENDBRANCH  13  30
BRANCH   1  34
ATOM     34  O1  MOL d          23.210   6.704  10.075  0.00  0.00    -0.361 OA
ATOM     35  H1  MOL d          22.458   6.125  10.066  0.00  0.00     0.217 HD
ENDBRANCH   1  34
TORSDOF 3
ENDMDL
MODEL 9
REMARK VINA RESULT:      -8.2      2.213      6.605
REMARK  3 active torsions:
REMARK  status: ('A' for Active; 'I' for Inactive)
REMARK    1  A    between atoms: C1_1  and  O1_2 
REMARK    2  A    between atoms: C10_11  and  C11_12 
REMARK    3  A    between atoms: C14_15  and  C15_16 
ROOT
ATOM      1  C1  MOL d          22.055   5.382  20.345  0.00  0.00     0.066 A 
ATOM      2  C2  MOL d          22.085   6.566  21.088  0.00  0.00    -0.049 A 
ATOM      3  C3  MOL d          22.277   7.799  20.465  0.00  0.00    -0.054 A 
ATOM      4  C4  MOL d          22.441   7.836  19.082  0.00  0.00     0.044 A 
ATOM      5  C5  MOL d          22.410   6.656  18.361  0.00  0.00     0.006 A 
ATOM      6  C6  MOL d          22.218   5.413  18.960  0.00  0.00    -0.038 A 
ATOM      7  N7  MOL d          22.645   8.838  18.167  0.00  0.00    -0.354 N 
ATOM      8  C8  MOL d          22.747   8.367  16.879  0.00  0.00     0.051 A 
ATOM      9  C9  MOL d          22.606   6.994  16.947  0.00  0.00     0.011 A 
ATOM     10  C10 MOL d          22.944   8.972  15.642  0.00  0.00    -0.023 A 
ATOM     11  C12 MOL d          23.000   8.176  14.489  0.00  0.00    -0.011 A 
ATOM     12  C13 MOL d          22.858   6.774  14.566  0.00  0.00     0.036 A 
ATOM     13  C14 MOL d          22.655   6.163  15.822  0.00  0.00    -0.033 A 
ATOM     14  C16 MOL d          23.204   8.775  13.242  0.00  0.00    -0.057 A 
ATOM     15  C17 MOL d          23.260   7.989  12.093  0.00  0.00    -0.020 A 
ATOM     16  N18 MOL d          23.119   6.655  12.183  0.00  0.00    -0.344 N 
ATOM     17  C19 MOL d          22.925   6.038  13.365  0.00  0.00     0.190 A 
ATOM     18  O19 MOL d          22.792   4.680  13.356  0.00  0.00    -0.171 OA
ATOM     19  H2  MOL d          21.956   6.525  22.164  0.00  0.00     0.087 H 
ATOM     20  H3  MOL d          22.299   8.713  21.047  0.00  0.00     0.087 H 
ATOM     21  H4  MOL d          22.195   4.503  18.371  0.00  0.00     0.089 H 
ATOM     22  H5  MOL d          22.715   9.834  18.417  0.00  0.00     0.166 HD
ATOM     23  H12 MOL d          23.318   9.855  13.169  0.00  0.00     0.086 H 
ATOM     24  H13 MOL d          23.419   8.456  11.122  0.00  0.00     0.111 H 
ATOM     25  H14 MOL d          23.160   6.105  11.349  0.00  0.00     0.167 HD
ENDROOT
BRANCH  10  26
ATOM     26  C11 MOL d          23.099  10.474  15.570  0.00  0.00    -0.048 C 
ATOM     27  H6  MOL d          23.827  10.731  14.785  0.00  0.00     0.033 H 
ATOM     28  H7  MOL d          23.457  10.853  16.539  0.00  0.00     0.033 H 
ATOM     29  H8  MOL d          22.128  10.933  15.333  0.00  0.00     0.033 H 
ENDBRANCH  10  26
BRANCH  13  30
ATOM     30  C15 MOL d          22.497   4.665  15.978  0.00  0.00    -0.049 C 
ATOM     31  H9  MOL d          23.449   4.228  16.315  0.00  0.00     0.033 H 
ATOM     32  H10 MOL d          22.213   4.224  15.011  0.00  0.00     0.033 H 
ATOM     33  H11 MOL d          21.714   4.454  16.721  0.00  0.00     0.033 H 
ENDBRANCH  13  30
BRANCH   1  34
ATOM     34  O1  MOL d          21.863   4.189  20.980  0.00  0.00    -0.361 OA
ATOM     35  H1  MOL d          21.438   3.581  20.387  0.00  0.00     0.217 HD
ENDBRANCH   1  34
TORSDOF 3
ENDMDL
MODEL 10
REMARK VINA RESULT:      -7.7      1.781      2.450
REMARK  3 active torsions:
REMARK  status: ('A' for Active; 'I' for Inactive)
REMARK    1  A    between atoms: C1_1  and  O1_2 
REMARK    2  A    between atoms: C10_11  and  C11_12 
REMARK    3  A    between atoms: C14_15  and  C15_16 
ROOT
ATOM      1  C1  MOL d          22.749   9.590  13.250  0.00  0.00     0.066 A 
ATOM      2  C2  MOL d          22.773   8.533  12.335  0.00  0.00    -0.049 A 
ATOM      3  C3  MOL d          22.713   7.208  12.768  0.00  0.00    -0.054 A 
ATOM      4  C4  MOL d          22.628   6.950  14.134  0.00  0.00     0.044 A 
ATOM      5  C5  MOL d          22.605   8.006  15.026  0.00  0.00     0.006 A 
ATOM      6  C6  MOL d          22.663   9.337  14.619  0.00  0.00    -0.038 A 
ATOM      7  N7  MOL d          22.554   5.808  14.892  0.00  0.00    -0.354 N 
ATOM      8  C8  MOL d          22.482   6.070  16.240  0.00  0.00     0.051 A 
ATOM      9  C9  MOL d          22.512   7.445  16.378  0.00  0.00     0.011 A 
ATOM     10  C10 MOL d          22.391   5.271  17.375  0.00  0.00    -0.023 A 
ATOM     11  C12 MOL d          22.334   5.877  18.638  0.00  0.00    -0.011 A 
ATOM     12  C13 MOL d          22.368   7.282  18.773  0.00  0.00     0.036 A 
ATOM     13  C14 MOL d          22.458   8.089  17.619  0.00  0.00    -0.033 A 
ATOM     14  C16 MOL d          22.248   5.082  19.785  0.00  0.00    -0.057 A 
ATOM     15  C17 MOL d          22.192   5.679  21.043  0.00  0.00    -0.020 A 
ATOM     16  N18 MOL d          22.221   7.019  21.154  0.00  0.00    -0.344 N 
ATOM     17  C19 MOL d          22.307   7.820  20.075  0.00  0.00     0.190 A 
ATOM     18  O19 MOL d          22.330   9.168  20.287  0.00  0.00    -0.171 OA
ATOM     19  H2  MOL d          22.839   8.747  11.274  0.00  0.00     0.087 H 
ATOM     20  H3  MOL d          22.732   6.394  12.053  0.00  0.00     0.087 H 
ATOM     21  H4  MOL d          22.641  10.147  15.340  0.00  0.00     0.089 H 
ATOM     22  H5  MOL d          22.553   4.858  14.494  0.00  0.00     0.166 HD
ATOM     23  H12 MOL d          22.224   3.998  19.695  0.00  0.00     0.086 H 
ATOM     24  H13 MOL d          22.125   5.059  21.936  0.00  0.00     0.111 H 
ATOM     25  H14 MOL d          22.178   7.432  22.064  0.00  0.00     0.167 HD
ENDROOT
BRANCH  10  26
ATOM     26  C11 MOL d          22.360   3.767  17.221  0.00  0.00    -0.048 C 
ATOM     27  H6  MOL d          23.387   3.388  17.121  0.00  0.00     0.033 H 
ATOM     28  H7  MOL d          21.783   3.503  16.322  0.00  0.00     0.033 H 
ATOM     29  H8  MOL d          21.886   3.317  18.106  0.00  0.00     0.033 H 
ENDBRANCH  10  26
BRANCH  13  30
ATOM     30  C15 MOL d          22.500   9.602  17.690  0.00  0.00    -0.049 C 
ATOM     31  H9  MOL d          21.856   9.949  18.512  0.00  0.00     0.033 H 
ATOM     32  H10 MOL d          22.141  10.024  16.740  0.00  0.00     0.033 H 
ATOM     33  H11 MOL d          23.534   9.932  17.871  0.00  0.00     0.033 H 
ENDBRANCH  13  30
BRANCH   1  34
ATOM     34  O1  MOL d          22.807  10.877  12.798  0.00  0.00    -0.361 OA
ATOM     35  H1  MOL d          23.716  11.140  12.713  0.00  0.00     0.217 HD
ENDBRANCH   1  34
TORSDOF 3
ENDMDL
