MODEL 1
REMARK VINA RESULT:      -9.7      0.000      0.000
REMARK  8 active torsions:
REMARK  status: ('A' for Active; 'I' for Inactive)
REMARK    1  A    between atoms: CA_4  and  C_1 
REMARK    2  A    between atoms: N_2  and  CA_4 
REMARK    3  A    between atoms: OAR_19  and  CAA_5 
REMARK    4  A    between atoms: NAQ_18  and  CAO_17 
REMARK    5  A    between atoms: CAO_17  and  CAV_22 
REMARK    6  A    between atoms: SBC_28  and  NAQ_18 
REMARK    7  A    between atoms: CAU_21  and  OAR_19 
REMARK    8  A    between atoms: CAW_23  and  SBC_28 
ROOT
ATOM      1  N   FG5 d           0.768 -11.278  38.279  0.00  0.00    -0.338 N 
ATOM      2  CAH FG5 d          -0.341  -9.794  41.422  0.00  0.00    -0.049 A 
ATOM      3  CAK FG5 d           0.220 -10.714  40.556  0.00  0.00    -0.054 A 
ATOM      4  CAL FG5 d          -0.788  -8.462  39.444  0.00  0.00    -0.039 A 
ATOM      5  CAM FG5 d          -0.046  -9.466  37.322  0.00  0.00    -0.047 A 
ATOM      6  CAU FG5 d          -0.851  -8.644  40.840  0.00  0.00     0.069 A 
ATOM      7  CAV FG5 d           0.584 -10.633  37.124  0.00  0.00     0.032 A 
ATOM      8  CAY FG5 d          -0.234  -9.393  38.646  0.00  0.00    -0.005 A 
ATOM      9  CBA FG5 d           0.270 -10.505  39.227  0.00  0.00     0.045 A 
ATOM     10  H8  FG5 d          -0.379  -9.962  42.493  0.00  0.00     0.087 H 
ATOM     11  H11 FG5 d           0.633 -11.631  40.960  0.00  0.00     0.087 H 
ATOM     12  H12 FG5 d          -1.193  -7.557  39.006  0.00  0.00     0.089 H 
ATOM     13  H13 FG5 d          -0.341  -8.737  36.568  0.00  0.00     0.088 H 
ENDROOT
BRANCH   7  14
ATOM     14  CAO FG5 d           1.061 -11.255  35.787  0.00  0.00     0.041 C 
ATOM     15  H15 FG5 d           2.125 -11.011  35.657  0.00  0.00     0.074 H 
ATOM     16  H16 FG5 d           0.941 -12.346  35.856  0.00  0.00     0.074 H 
BRANCH  14  17
ATOM     17  NAQ FG5 d           0.336 -10.790  34.595  0.00  0.00    -0.308 N 
ATOM     18  H17 FG5 d          -0.470 -11.239  34.208  0.00  0.00     0.172 HD
BRANCH  17  19
ATOM     19  SBC FG5 d           1.099  -9.296  33.926  0.00  0.00     0.281 S 
ATOM     20  OAC FG5 d           2.491  -9.165  34.564  0.00  0.00    -0.199 OA
ATOM     21  OAD FG5 d           0.278  -8.006  34.113  0.00  0.00    -0.199 OA
BRANCH  19  22
ATOM     22  CAW FG5 d           1.302  -9.535  32.191  0.00  0.00     0.191 A 
ATOM     23  CAN FG5 d           1.725  -8.578  31.385  0.00  0.00    -0.025 A 
ATOM     24  CAX FG5 d           1.781  -9.037  30.142  0.00  0.00     0.001 A 
ATOM     25  H14 FG5 d           1.987  -7.567  31.694  0.00  0.00     0.090 H 
ATOM     26  CAI FG5 d           2.148  -8.414  29.019  0.00  0.00    -0.070 A 
ATOM     27  CAZ FG5 d           1.376 -10.313  30.165  0.00  0.00     0.087 A 
ATOM     28  CAF FG5 d           2.119  -9.094  27.815  0.00  0.00    -0.082 A 
ATOM     29  H9  FG5 d           2.468  -7.379  29.050  0.00  0.00     0.084 H 
ATOM     30  CAG FG5 d           1.701 -10.422  27.845  0.00  0.00    -0.080 A 
ATOM     31  H6  FG5 d           2.410  -8.614  26.887  0.00  0.00     0.083 H 
ATOM     32  CAJ FG5 d           1.334 -11.026  29.044  0.00  0.00    -0.049 A 
ATOM     33  H7  FG5 d           1.660 -10.992  26.923  0.00  0.00     0.083 H 
ATOM     34  H10 FG5 d           1.018 -12.063  29.064  0.00  0.00     0.087 H 
ATOM     35  OAS FG5 d           1.062 -10.642  31.500  0.00  0.00    -0.296 OA
ENDBRANCH  19  22
ENDBRANCH  17  19
ENDBRANCH  14  17
ENDBRANCH   7  14
BRANCH   1  36
ATOM     36  CA  FG5 d           1.426 -12.569  38.714  0.00  0.00     0.080 C 
ATOM     37  H1  FG5 d           1.241 -12.675  39.793  0.00  0.00     0.081 H 
ATOM     38  H2  FG5 d           0.920 -13.383  38.174  0.00  0.00     0.081 H 
BRANCH  36  39
ATOM     39  C   FG5 d           2.915 -12.759  38.502  0.00  0.00     0.191 C 
ATOM     40  O   FG5 d           3.248 -13.184  37.358  0.00  0.00    -0.647 OA
ATOM     41  OXT FG5 d           3.683 -12.445  39.437  0.00  0.00    -0.647 OA
ENDBRANCH  36  39
ENDBRANCH   1  36
BRANCH   6  42
ATOM     42  OAR FG5 d          -1.407  -7.741  41.672  0.00  0.00    -0.356 OA
BRANCH  42  43
ATOM     43  CAA FG5 d          -2.541  -7.050  41.146  0.00  0.00     0.010 C 
ATOM     44  H3  FG5 d          -2.254  -6.022  40.883  0.00  0.00     0.066 H 
ATOM     45  H4  FG5 d          -3.339  -7.027  41.902  0.00  0.00     0.066 H 
ATOM     46  H5  FG5 d          -2.902  -7.571  40.247  0.00  0.00     0.066 H 
ENDBRANCH  42  43
ENDBRANCH   6  42
TORSDOF 8
ENDMDL
MODEL 2
REMARK VINA RESULT:      -9.2      1.968      8.962
REMARK  8 active torsions:
REMARK  status: ('A' for Active; 'I' for Inactive)
REMARK    1  A    between atoms: CA_4  and  C_1 
REMARK    2  A    between atoms: N_2  and  CA_4 
REMARK    3  A    between atoms: OAR_19  and  CAA_5 
REMARK    4  A    between atoms: NAQ_18  and  CAO_17 
REMARK    5  A    between atoms: CAO_17  and  CAV_22 
REMARK    6  A    between atoms: SBC_28  and  NAQ_18 
REMARK    7  A    between atoms: CAU_21  and  OAR_19 
REMARK    8  A    between atoms: CAW_23  and  SBC_28 
ROOT
ATOM      1  N   FG5 d           0.969  -9.485  33.637  0.00  0.00    -0.338 N 
ATOM      2  CAH FG5 d           1.731  -8.668  30.164  0.00  0.00    -0.049 A 
ATOM      3  CAK FG5 d           1.367  -8.480  31.484  0.00  0.00    -0.054 A 
ATOM      4  CAL FG5 d           1.928 -11.019  30.732  0.00  0.00    -0.039 A 
ATOM      5  CAM FG5 d           1.407 -11.572  33.074  0.00  0.00    -0.047 A 
ATOM      6  CAU FG5 d           2.019  -9.972  29.792  0.00  0.00     0.069 A 
ATOM      7  CAV FG5 d           1.051 -10.747  34.069  0.00  0.00     0.032 A 
ATOM      8  CAY FG5 d           1.564 -10.780  32.006  0.00  0.00    -0.005 A 
ATOM      9  CBA FG5 d           1.296  -9.502  32.358  0.00  0.00     0.045 A 
ATOM     10  H8  FG5 d           1.789  -7.844  29.462  0.00  0.00     0.087 H 
ATOM     11  H11 FG5 d           1.130  -7.479  31.827  0.00  0.00     0.087 H 
ATOM     12  H12 FG5 d           2.156 -12.032  30.424  0.00  0.00     0.089 H 
ATOM     13  H13 FG5 d           1.539 -12.652  33.125  0.00  0.00     0.088 H 
ENDROOT
BRANCH   7  14
ATOM     14  CAO FG5 d           0.737 -11.098  35.545  0.00  0.00     0.041 C 
ATOM     15  H15 FG5 d          -0.020 -10.389  35.911  0.00  0.00     0.074 H 
ATOM     16  H16 FG5 d           0.328 -12.119  35.574  0.00  0.00     0.074 H 
BRANCH  14  17
ATOM     17  NAQ FG5 d           1.892 -11.042  36.454  0.00  0.00    -0.308 N 
ATOM     18  H17 FG5 d           2.770 -10.615  36.233  0.00  0.00     0.172 HD
BRANCH  17  19
ATOM     19  SBC FG5 d           1.510 -11.852  38.023  0.00  0.00     0.281 S 
ATOM     20  OAC FG5 d           2.843 -12.116  38.741  0.00  0.00    -0.199 OA
ATOM     21  OAD FG5 d           0.677 -13.142  37.903  0.00  0.00    -0.199 OA
BRANCH  19  22
ATOM     22  CAW FG5 d           0.572 -10.715  38.991  0.00  0.00     0.191 A 
ATOM     23  CAN FG5 d          -0.164  -9.760  38.452  0.00  0.00    -0.025 A 
ATOM     24  CAX FG5 d          -0.755  -9.061  39.411  0.00  0.00     0.001 A 
ATOM     25  H14 FG5 d          -0.269  -9.574  37.384  0.00  0.00     0.090 H 
ATOM     26  CAI FG5 d          -1.578  -8.012  39.319  0.00  0.00    -0.070 A 
ATOM     27  CAZ FG5 d          -0.377  -9.585  40.584  0.00  0.00     0.087 A 
ATOM     28  CAF FG5 d          -2.075  -7.425  40.468  0.00  0.00    -0.082 A 
ATOM     29  H9  FG5 d          -1.856  -7.622  38.346  0.00  0.00     0.084 H 
ATOM     30  CAG FG5 d          -1.681  -7.976  41.685  0.00  0.00    -0.080 A 
ATOM     31  H6  FG5 d          -2.743  -6.572  40.424  0.00  0.00     0.083 H 
ATOM     32  CAJ FG5 d          -0.825  -9.073  41.726  0.00  0.00    -0.049 A 
ATOM     33  H7  FG5 d          -2.044  -7.545  42.611  0.00  0.00     0.083 H 
ATOM     34  H10 FG5 d          -0.529  -9.505  42.675  0.00  0.00     0.087 H 
ATOM     35  OAS FG5 d           0.490 -10.664  40.313  0.00  0.00    -0.296 OA
ENDBRANCH  19  22
ENDBRANCH  17  19
ENDBRANCH  14  17
ENDBRANCH   7  14
BRANCH   1  36
ATOM     36  CA  FG5 d           0.667  -8.138  34.256  0.00  0.00     0.080 C 
ATOM     37  H1  FG5 d           0.626  -7.410  33.433  0.00  0.00     0.081 H 
ATOM     38  H2  FG5 d          -0.325  -8.217  34.725  0.00  0.00     0.081 H 
BRANCH  36  39
ATOM     39  C   FG5 d           1.605  -7.568  35.302  0.00  0.00     0.191 C 
ATOM     40  O   FG5 d           2.311  -6.590  34.919  0.00  0.00    -0.647 OA
ATOM     41  OXT FG5 d           1.576  -8.066  36.447  0.00  0.00    -0.647 OA
ENDBRANCH  36  39
ENDBRANCH   1  36
BRANCH   6  42
ATOM     42  OAR FG5 d           2.370 -10.171  28.507  0.00  0.00    -0.356 OA
BRANCH  42  43
ATOM     43  CAA FG5 d           1.715 -11.263  27.862  0.00  0.00     0.010 C 
ATOM     44  H3  FG5 d           2.388 -12.132  27.839  0.00  0.00     0.066 H 
ATOM     45  H4  FG5 d           1.450 -10.977  26.834  0.00  0.00     0.066 H 
ATOM     46  H5  FG5 d           0.801 -11.522  28.417  0.00  0.00     0.066 H 
ENDBRANCH  42  43
ENDBRANCH   6  42
TORSDOF 8
ENDMDL
MODEL 3
REMARK VINA RESULT:      -9.1      1.800      3.121
REMARK  8 active torsions:
REMARK  status: ('A' for Active; 'I' for Inactive)
REMARK    1  A    between atoms: CA_4  and  C_1 
REMARK    2  A    between atoms: N_2  and  CA_4 
REMARK    3  A    between atoms: OAR_19  and  CAA_5 
REMARK    4  A    between atoms: NAQ_18  and  CAO_17 
REMARK    5  A    between atoms: CAO_17  and  CAV_22 
REMARK    6  A    between atoms: SBC_28  and  NAQ_18 
REMARK    7  A    between atoms: CAU_21  and  OAR_19 
REMARK    8  A    between atoms: CAW_23  and  SBC_28 
ROOT
ATOM      1  N   FG5 d           0.184 -10.091  36.657  0.00  0.00    -0.338 N 
ATOM      2  CAH FG5 d          -1.494  -8.280  39.343  0.00  0.00    -0.049 A 
ATOM      3  CAK FG5 d          -1.122  -8.630  38.059  0.00  0.00    -0.054 A 
ATOM      4  CAL FG5 d          -0.028 -10.070  40.073  0.00  0.00    -0.039 A 
ATOM      5  CAM FG5 d           1.110 -11.289  38.260  0.00  0.00    -0.047 A 
ATOM      6  CAU FG5 d          -0.928  -9.026  40.366  0.00  0.00     0.069 A 
ATOM      7  CAV FG5 d           1.009 -11.104  36.936  0.00  0.00     0.032 A 
ATOM      8  CAY FG5 d           0.303 -10.368  38.802  0.00  0.00    -0.005 A 
ATOM      9  CBA FG5 d          -0.264  -9.638  37.814  0.00  0.00     0.045 A 
ATOM     10  H8  FG5 d          -2.186  -7.469  39.540  0.00  0.00     0.087 H 
ATOM     11  H11 FG5 d          -1.535  -8.077  37.223  0.00  0.00     0.087 H 
ATOM     12  H12 FG5 d           0.405 -10.643  40.884  0.00  0.00     0.089 H 
ATOM     13  H13 FG5 d           1.717 -12.028  38.781  0.00  0.00     0.088 H 
ENDROOT
BRANCH   7  14
ATOM     14  CAO FG5 d           1.717 -11.882  35.798  0.00  0.00     0.041 C 
ATOM     15  H15 FG5 d           2.799 -11.859  35.991  0.00  0.00     0.074 H 
ATOM     16  H16 FG5 d           1.362 -12.923  35.824  0.00  0.00     0.074 H 
BRANCH  14  17
ATOM     17  NAQ FG5 d           1.482 -11.352  34.447  0.00  0.00    -0.308 N 
ATOM     18  H17 FG5 d           0.618 -11.430  33.948  0.00  0.00     0.172 HD
BRANCH  17  19
ATOM     19  SBC FG5 d           2.965 -10.540  33.812  0.00  0.00     0.281 S 
ATOM     20  OAC FG5 d           4.122 -11.546  33.921  0.00  0.00    -0.199 OA
ATOM     21  OAD FG5 d           3.320  -9.206  34.496  0.00  0.00    -0.199 OA
BRANCH  19  22
ATOM     22  CAW FG5 d           2.690 -10.191  32.106  0.00  0.00     0.191 A 
ATOM     23  CAN FG5 d           1.837 -10.879  31.367  0.00  0.00    -0.025 A 
ATOM     24  CAX FG5 d           1.835 -10.401  30.131  0.00  0.00     0.001 A 
ATOM     25  H14 FG5 d           1.229 -11.710  31.720  0.00  0.00     0.090 H 
ATOM     26  CAI FG5 d           1.132 -10.795  29.065  0.00  0.00    -0.070 A 
ATOM     27  CAZ FG5 d           2.714  -9.391  30.087  0.00  0.00     0.087 A 
ATOM     28  CAF FG5 d           1.300 -10.148  27.853  0.00  0.00    -0.082 A 
ATOM     29  H9  FG5 d           0.433 -11.619  29.149  0.00  0.00     0.084 H 
ATOM     30  CAG FG5 d           2.213  -9.097  27.815  0.00  0.00    -0.080 A 
ATOM     31  H6  FG5 d           0.745 -10.448  26.972  0.00  0.00     0.083 H 
ATOM     32  CAJ FG5 d           2.916  -8.723  28.956  0.00  0.00    -0.049 A 
ATOM     33  H7  FG5 d           2.377  -8.565  26.885  0.00  0.00     0.083 H 
ATOM     34  H10 FG5 d           3.618  -7.897  28.924  0.00  0.00     0.087 H 
ATOM     35  OAS FG5 d           3.274  -9.252  31.374  0.00  0.00    -0.296 OA
ENDBRANCH  19  22
ENDBRANCH  17  19
ENDBRANCH  14  17
ENDBRANCH   7  14
BRANCH   1  36
ATOM     36  CA  FG5 d          -0.357  -9.439  35.404  0.00  0.00     0.080 C 
ATOM     37  H1  FG5 d          -0.174 -10.138  34.574  0.00  0.00     0.081 H 
ATOM     38  H2  FG5 d          -1.442  -9.319  35.548  0.00  0.00     0.081 H 
BRANCH  36  39
ATOM     39  C   FG5 d           0.181  -8.090  34.969  0.00  0.00     0.191 C 
ATOM     40  O   FG5 d          -0.355  -7.602  33.932  0.00  0.00    -0.647 OA
ATOM     41  OXT FG5 d           1.059  -7.555  35.679  0.00  0.00    -0.647 OA
ENDBRANCH  36  39
ENDBRANCH   1  36
BRANCH   6  42
ATOM     42  OAR FG5 d          -1.277  -8.691  41.623  0.00  0.00    -0.356 OA
BRANCH  42  43
ATOM     43  CAA FG5 d          -0.755  -9.544  42.643  0.00  0.00     0.010 C 
ATOM     44  H3  FG5 d           0.325  -9.369  42.750  0.00  0.00     0.066 H 
ATOM     45  H4  FG5 d          -0.931 -10.594  42.368  0.00  0.00     0.066 H 
ATOM     46  H5  FG5 d          -1.259  -9.326  43.596  0.00  0.00     0.066 H 
ENDBRANCH  42  43
ENDBRANCH   6  42
TORSDOF 8
ENDMDL
MODEL 4
REMARK VINA RESULT:      -8.7      1.912      2.987
REMARK  8 active torsions:
REMARK  status: ('A' for Active; 'I' for Inactive)
REMARK    1  A    between atoms: CA_4  and  C_1 
REMARK    2  A    between atoms: N_2  and  CA_4 
REMARK    3  A    between atoms: OAR_19  and  CAA_5 
REMARK    4  A    between atoms: NAQ_18  and  CAO_17 
REMARK    5  A    between atoms: CAO_17  and  CAV_22 
REMARK    6  A    between atoms: SBC_28  and  NAQ_18 
REMARK    7  A    between atoms: CAU_21  and  OAR_19 
REMARK    8  A    between atoms: CAW_23  and  SBC_28 
ROOT
ATOM      1  N   FG5 d           0.664  -9.780  37.000  0.00  0.00    -0.338 N 
ATOM      2  CAH FG5 d          -0.949  -8.174  39.852  0.00  0.00    -0.049 A 
ATOM      3  CAK FG5 d          -0.481  -8.347  38.563  0.00  0.00    -0.054 A 
ATOM      4  CAL FG5 d          -0.031 -10.375  40.298  0.00  0.00    -0.039 A 
ATOM      5  CAM FG5 d           1.065 -11.457  38.375  0.00  0.00    -0.047 A 
ATOM      6  CAU FG5 d          -0.714  -9.221  40.730  0.00  0.00     0.069 A 
ATOM      7  CAV FG5 d           1.199 -10.998  37.123  0.00  0.00     0.032 A 
ATOM      8  CAY FG5 d           0.408 -10.491  39.031  0.00  0.00    -0.005 A 
ATOM      9  CBA FG5 d           0.163  -9.467  38.181  0.00  0.00     0.045 A 
ATOM     10  H8  FG5 d          -1.469  -7.273  40.158  0.00  0.00     0.087 H 
ATOM     11  H11 FG5 d          -0.638  -7.558  37.837  0.00  0.00     0.087 H 
ATOM     12  H12 FG5 d           0.145 -11.184  40.998  0.00  0.00     0.089 H 
ATOM     13  H13 FG5 d           1.414 -12.408  38.773  0.00  0.00     0.088 H 
ENDROOT
BRANCH   7  14
ATOM     14  CAO FG5 d           1.877 -11.688  35.913  0.00  0.00     0.041 C 
ATOM     15  H15 FG5 d           2.892 -11.985  36.213  0.00  0.00     0.074 H 
ATOM     16  H16 FG5 d           1.293 -12.585  35.659  0.00  0.00     0.074 H 
BRANCH  14  17
ATOM     17  NAQ FG5 d           1.983 -10.855  34.705  0.00  0.00    -0.308 N 
ATOM     18  H17 FG5 d           2.636 -10.107  34.586  0.00  0.00     0.172 HD
BRANCH  17  19
ATOM     19  SBC FG5 d           0.771 -11.367  33.467  0.00  0.00     0.281 S 
ATOM     20  OAC FG5 d          -0.550 -10.654  33.794  0.00  0.00    -0.199 OA
ATOM     21  OAD FG5 d           0.568 -12.890  33.348  0.00  0.00    -0.199 OA
BRANCH  19  22
ATOM     22  CAW FG5 d           1.341 -10.795  31.900  0.00  0.00     0.191 A 
ATOM     23  CAN FG5 d           2.434 -10.067  31.762  0.00  0.00    -0.025 A 
ATOM     24  CAX FG5 d           2.618  -9.781  30.480  0.00  0.00     0.001 A 
ATOM     25  H14 FG5 d           3.084  -9.750  32.576  0.00  0.00     0.090 H 
ATOM     26  CAI FG5 d           3.588  -9.071  29.895  0.00  0.00    -0.070 A 
ATOM     27  CAZ FG5 d           1.611 -10.337  29.795  0.00  0.00     0.087 A 
ATOM     28  CAF FG5 d           3.575  -8.890  28.524  0.00  0.00    -0.082 A 
ATOM     29  H9  FG5 d           4.382  -8.640  30.493  0.00  0.00     0.084 H 
ATOM     30  CAG FG5 d           2.528  -9.473  27.815  0.00  0.00    -0.080 A 
ATOM     31  H6  FG5 d           4.347  -8.318  28.023  0.00  0.00     0.083 H 
ATOM     32  CAJ FG5 d           1.545 -10.208  28.473  0.00  0.00    -0.049 A 
ATOM     33  H7  FG5 d           2.477  -9.353  26.739  0.00  0.00     0.083 H 
ATOM     34  H10 FG5 d           0.737 -10.668  27.916  0.00  0.00     0.087 H 
ATOM     35  OAS FG5 d           0.775 -10.999  30.717  0.00  0.00    -0.296 OA
ENDBRANCH  19  22
ENDBRANCH  17  19
ENDBRANCH  14  17
ENDBRANCH   7  14
BRANCH   1  36
ATOM     36  CA  FG5 d           0.465  -8.784  35.879  0.00  0.00     0.080 C 
ATOM     37  H1  FG5 d           0.180  -9.360  34.986  0.00  0.00     0.081 H 
ATOM     38  H2  FG5 d          -0.370  -8.132  36.175  0.00  0.00     0.081 H 
BRANCH  36  39
ATOM     39  C   FG5 d           1.609  -7.877  35.471  0.00  0.00     0.191 C 
ATOM     40  O   FG5 d           2.278  -7.389  36.428  0.00  0.00    -0.647 OA
ATOM     41  OXT FG5 d           1.827  -7.723  34.251  0.00  0.00    -0.647 OA
ENDBRANCH  36  39
ENDBRANCH   1  36
BRANCH   6  42
ATOM     42  OAR FG5 d          -1.160  -9.063  41.992  0.00  0.00    -0.356 OA
BRANCH  42  43
ATOM     43  CAA FG5 d          -0.327  -9.632  43.003  0.00  0.00     0.010 C 
ATOM     44  H3  FG5 d          -0.880  -9.673  43.953  0.00  0.00     0.066 H 
ATOM     45  H4  FG5 d           0.572  -9.012  43.129  0.00  0.00     0.066 H 
ATOM     46  H5  FG5 d          -0.032 -10.649  42.706  0.00  0.00     0.066 H 
ENDBRANCH  42  43
ENDBRANCH   6  42
TORSDOF 8
ENDMDL
