MODEL 1
REMARK VINA RESULT:      -6.3      0.000      0.000
REMARK  6 active torsions:
REMARK  status: ('A' for Active; 'I' for Inactive)
REMARK    1  A    between atoms: CA_1  and  C_2 
REMARK    2  A    between atoms: C6_6  and  CA_1 
REMARK    3  A    between atoms: CA_1  and  N_8 
REMARK    4  A    between atoms: C7_7  and  C3_3 
REMARK    5  A    between atoms: C4_4  and  N4_11 
REMARK    6  A    between atoms: C6_6  and  C7_7 
ROOT
ATOM      1  C7  Z70 d         -20.557  14.078  -4.997  0.00  0.00    -0.023 C 
ATOM      2  H5  Z70 d         -20.814  14.102  -3.928  0.00  0.00     0.042 H 
ATOM      3  H6  Z70 d         -21.362  14.552  -5.579  0.00  0.00     0.042 H 
ENDROOT
BRANCH   1   4
ATOM      4  C3  Z70 d         -20.439  12.622  -5.433  0.00  0.00     0.029 A 
ATOM      5  C5  Z70 d         -19.341  12.205  -6.326  0.00  0.00     0.028 A 
ATOM      6  N3  Z70 d         -19.571  10.843  -6.505  0.00  0.00    -0.226 NA
ATOM      7  H2  Z70 d         -18.542  12.815  -6.745  0.00  0.00     0.117 H 
ATOM      8  C4  Z70 d         -20.712  10.497  -5.774  0.00  0.00     0.199 A 
ATOM      9  N2  Z70 d         -21.249  11.551  -5.123  0.00  0.00    -0.329 N 
ATOM     10  H10 Z70 d         -22.085  11.554  -4.521  0.00  0.00     0.169 HD
BRANCH   8  11
ATOM     11  N4  Z70 d         -21.238   9.218  -5.725  0.00  0.00    -0.369 N 
ATOM     12  H11 Z70 d         -20.757   8.444  -6.204  0.00  0.00     0.159 HD
ATOM     13  H12 Z70 d         -22.112   9.040  -5.209  0.00  0.00     0.159 HD
ENDBRANCH   8  11
ENDBRANCH   1   4
BRANCH   1  14
ATOM     14  C6  Z70 d         -19.274  14.883  -5.203  0.00  0.00    -0.024 C 
ATOM     15  H3  Z70 d         -18.478  14.421  -4.602  0.00  0.00     0.037 H 
ATOM     16  H4  Z70 d         -19.005  14.834  -6.269  0.00  0.00     0.037 H 
BRANCH  14  17
ATOM     17  CA  Z70 d         -19.384  16.374  -4.798  0.00  0.00     0.182 C 
ATOM     18  H1  Z70 d         -18.444  16.881  -5.062  0.00  0.00     0.101 H 
BRANCH  17  19
ATOM     19  C   Z70 d         -20.551  17.148  -5.453  0.00  0.00     0.204 C 
ATOM     20  OXT Z70 d         -20.509  17.480  -6.702  0.00  0.00    -0.646 OA
ATOM     21  O   Z70 d         -21.577  17.477  -4.757  0.00  0.00    -0.646 OA
ENDBRANCH  17  19
BRANCH  17  22
ATOM     22  N   Z70 d         -19.565  16.389  -3.387  0.00  0.00    -0.065 N 
ATOM     23  H7  Z70 d         -19.826  15.467  -3.072  0.00  0.00     0.275 HD
ATOM     24  H8  Z70 d         -20.294  17.045  -3.149  0.00  0.00     0.275 HD
ATOM     25  H9  Z70 d         -18.705  16.666  -2.940  0.00  0.00     0.275 HD
ENDBRANCH  17  22
ENDBRANCH  14  17
ENDBRANCH   1  14
TORSDOF 6
ENDMDL
MODEL 2
REMARK VINA RESULT:      -5.6      2.612      5.484
REMARK  6 active torsions:
REMARK  status: ('A' for Active; 'I' for Inactive)
REMARK    1  A    between atoms: CA_1  and  C_2 
REMARK    2  A    between atoms: C6_6  and  CA_1 
REMARK    3  A    between atoms: CA_1  and  N_8 
REMARK    4  A    between atoms: C7_7  and  C3_3 
REMARK    5  A    between atoms: C4_4  and  N4_11 
REMARK    6  A    between atoms: C6_6  and  C7_7 
ROOT
ATOM      1  C7  Z70 d         -20.745  15.267  -3.500  0.00  0.00    -0.023 C 
ATOM      2  H5  Z70 d         -21.826  15.138  -3.343  0.00  0.00     0.042 H 
ATOM      3  H6  Z70 d         -20.273  15.584  -2.557  0.00  0.00     0.042 H 
ENDROOT
BRANCH   1   4
ATOM      4  C3  Z70 d         -20.535  16.365  -4.537  0.00  0.00     0.029 A 
ATOM      5  C5  Z70 d         -21.697  16.988  -5.199  0.00  0.00     0.028 A 
ATOM      6  N3  Z70 d         -21.117  17.910  -6.067  0.00  0.00    -0.226 NA
ATOM      7  H2  Z70 d         -22.754  16.777  -5.047  0.00  0.00     0.117 H 
ATOM      8  C4  Z70 d         -19.729  17.829  -5.920  0.00  0.00     0.199 A 
ATOM      9  N2  Z70 d         -19.358  16.907  -5.006  0.00  0.00    -0.329 N 
ATOM     10  H10 Z70 d         -18.399  16.662  -4.720  0.00  0.00     0.169 HD
BRANCH   8  11
ATOM     11  N4  Z70 d         -18.831  18.603  -6.634  0.00  0.00    -0.369 N 
ATOM     12  H11 Z70 d         -17.828  18.368  -6.627  0.00  0.00     0.159 HD
ATOM     13  H12 Z70 d         -19.165  19.415  -7.173  0.00  0.00     0.159 HD
ENDBRANCH   8  11
ENDBRANCH   1   4
BRANCH   1  14
ATOM     14  C6  Z70 d         -20.152  13.920  -3.908  0.00  0.00    -0.024 C 
ATOM     15  H3  Z70 d         -19.059  13.977  -3.799  0.00  0.00     0.037 H 
ATOM     16  H4  Z70 d         -20.548  13.150  -3.229  0.00  0.00     0.037 H 
BRANCH  14  17
ATOM     17  CA  Z70 d         -20.472  13.495  -5.363  0.00  0.00     0.182 C 
ATOM     18  H1  Z70 d         -21.086  14.278  -5.832  0.00  0.00     0.101 H 
BRANCH  17  19
ATOM     19  C   Z70 d         -19.238  13.246  -6.260  0.00  0.00     0.204 C 
ATOM     20  OXT Z70 d         -18.445  14.214  -6.582  0.00  0.00    -0.646 OA
ATOM     21  O   Z70 d         -18.991  12.068  -6.704  0.00  0.00    -0.646 OA
ENDBRANCH  17  19
BRANCH  17  22
ATOM     22  N   Z70 d         -21.215  12.285  -5.268  0.00  0.00    -0.065 N 
ATOM     23  H7  Z70 d         -22.124  12.416  -5.683  0.00  0.00     0.275 HD
ATOM     24  H8  Z70 d         -21.322  12.032  -4.297  0.00  0.00     0.275 HD
ATOM     25  H9  Z70 d         -20.725  11.550  -5.754  0.00  0.00     0.275 HD
ENDBRANCH  17  22
ENDBRANCH  14  17
ENDBRANCH   1  14
TORSDOF 6
ENDMDL
MODEL 3
REMARK VINA RESULT:      -5.3      3.466      5.892
REMARK  6 active torsions:
REMARK  status: ('A' for Active; 'I' for Inactive)
REMARK    1  A    between atoms: CA_1  and  C_2 
REMARK    2  A    between atoms: C6_6  and  CA_1 
REMARK    3  A    between atoms: CA_1  and  N_8 
REMARK    4  A    between atoms: C7_7  and  C3_3 
REMARK    5  A    between atoms: C4_4  and  N4_11 
REMARK    6  A    between atoms: C6_6  and  C7_7 
ROOT
ATOM      1  C7  Z70 d         -20.229  14.054  -4.430  0.00  0.00    -0.023 C 
ATOM      2  H5  Z70 d         -20.747  14.110  -3.461  0.00  0.00     0.042 H 
ATOM      3  H6  Z70 d         -19.156  13.873  -4.263  0.00  0.00     0.042 H 
ENDROOT
BRANCH   1   4
ATOM      4  C3  Z70 d         -20.387  15.394  -5.140  0.00  0.00     0.029 A 
ATOM      5  C5  Z70 d         -21.180  15.483  -6.382  0.00  0.00     0.028 A 
ATOM      6  N3  Z70 d         -21.083  16.828  -6.730  0.00  0.00    -0.226 NA
ATOM      7  H2  Z70 d         -21.713  14.688  -6.901  0.00  0.00     0.117 H 
ATOM      8  C4  Z70 d         -20.297  17.469  -5.767  0.00  0.00     0.199 A 
ATOM      9  N2  Z70 d         -19.869  16.626  -4.803  0.00  0.00    -0.329 N 
ATOM     10  H10 Z70 d         -19.281  16.854  -3.989  0.00  0.00     0.169 HD
BRANCH   8  11
ATOM     11  N4  Z70 d         -19.986  18.817  -5.797  0.00  0.00    -0.369 N 
ATOM     12  H11 Z70 d         -19.782  19.319  -4.921  0.00  0.00     0.159 HD
ATOM     13  H12 Z70 d         -19.959  19.319  -6.696  0.00  0.00     0.159 HD
ENDBRANCH   8  11
ENDBRANCH   1   4
BRANCH   1  14
ATOM     14  C6  Z70 d         -20.801  12.875  -5.216  0.00  0.00    -0.024 C 
ATOM     15  H3  Z70 d         -21.505  12.337  -4.566  0.00  0.00     0.037 H 
ATOM     16  H4  Z70 d         -21.339  13.273  -6.089  0.00  0.00     0.037 H 
BRANCH  14  17
ATOM     17  CA  Z70 d         -19.737  11.867  -5.719  0.00  0.00     0.182 C 
ATOM     18  H1  Z70 d         -18.915  11.828  -4.989  0.00  0.00     0.101 H 
BRANCH  17  19
ATOM     19  C   Z70 d         -20.253  10.428  -5.945  0.00  0.00     0.204 C 
ATOM     20  OXT Z70 d         -19.691   9.648  -6.809  0.00  0.00    -0.646 OA
ATOM     21  O   Z70 d         -21.258   9.991  -5.277  0.00  0.00    -0.646 OA
ENDBRANCH  17  19
BRANCH  17  22
ATOM     22  N   Z70 d         -19.263  12.378  -6.960  0.00  0.00    -0.065 N 
ATOM     23  H7  Z70 d         -20.029  12.793  -7.468  0.00  0.00     0.275 HD
ATOM     24  H8  Z70 d         -18.866  11.627  -7.503  0.00  0.00     0.275 HD
ATOM     25  H9  Z70 d         -18.557  13.077  -6.787  0.00  0.00     0.275 HD
ENDBRANCH  17  22
ENDBRANCH  14  17
ENDBRANCH   1  14
TORSDOF 6
ENDMDL
MODEL 4
REMARK VINA RESULT:      -4.8      2.562      5.118
REMARK  6 active torsions:
REMARK  status: ('A' for Active; 'I' for Inactive)
REMARK    1  A    between atoms: CA_1  and  C_2 
REMARK    2  A    between atoms: C6_6  and  CA_1 
REMARK    3  A    between atoms: CA_1  and  N_8 
REMARK    4  A    between atoms: C7_7  and  C3_3 
REMARK    5  A    between atoms: C4_4  and  N4_11 
REMARK    6  A    between atoms: C6_6  and  C7_7 
ROOT
ATOM      1  C7  Z70 d         -19.696  14.717  -7.329  0.00  0.00    -0.023 C 
ATOM      2  H5  Z70 d         -19.135  14.783  -8.274  0.00  0.00     0.042 H 
ATOM      3  H6  Z70 d         -20.653  14.204  -7.506  0.00  0.00     0.042 H 
ENDROOT
BRANCH   1   4
ATOM      4  C3  Z70 d         -19.989  16.132  -6.842  0.00  0.00     0.029 A 
ATOM      5  C5  Z70 d         -18.934  17.162  -6.886  0.00  0.00     0.028 A 
ATOM      6  N3  Z70 d         -19.561  18.289  -6.360  0.00  0.00    -0.226 NA
ATOM      7  H2  Z70 d         -17.910  17.065  -7.244  0.00  0.00     0.117 H 
ATOM      8  C4  Z70 d         -20.876  17.940  -6.036  0.00  0.00     0.199 A 
ATOM      9  N2  Z70 d         -21.154  16.649  -6.318  0.00  0.00    -0.329 N 
ATOM     10  H10 Z70 d         -22.047  16.156  -6.173  0.00  0.00     0.169 HD
BRANCH   8  11
ATOM     11  N4  Z70 d         -21.793  18.817  -5.483  0.00  0.00    -0.369 N 
ATOM     12  H11 Z70 d         -21.545  19.808  -5.355  0.00  0.00     0.159 HD
ATOM     13  H12 Z70 d         -22.724  18.479  -5.200  0.00  0.00     0.159 HD
ENDBRANCH   8  11
ENDBRANCH   1   4
BRANCH   1  14
ATOM     14  C6  Z70 d         -18.879  13.887  -6.340  0.00  0.00    -0.024 C 
ATOM     15  H3  Z70 d         -18.567  12.961  -6.843  0.00  0.00     0.037 H 
ATOM     16  H4  Z70 d         -17.989  14.468  -6.056  0.00  0.00     0.037 H 
BRANCH  14  17
ATOM     17  CA  Z70 d         -19.641  13.504  -5.046  0.00  0.00     0.182 C 
ATOM     18  H1  Z70 d         -19.142  12.638  -4.587  0.00  0.00     0.101 H 
BRANCH  17  19
ATOM     19  C   Z70 d         -19.738  14.625  -3.986  0.00  0.00     0.204 C 
ATOM     20  OXT Z70 d         -18.674  15.190  -3.518  0.00  0.00    -0.646 OA
ATOM     21  O   Z70 d         -20.884  15.002  -3.551  0.00  0.00    -0.646 OA
ENDBRANCH  17  19
BRANCH  17  22
ATOM     22  N   Z70 d         -20.957  13.148  -5.453  0.00  0.00    -0.065 N 
ATOM     23  H7  Z70 d         -21.494  13.985  -5.624  0.00  0.00     0.275 HD
ATOM     24  H8  Z70 d         -21.399  12.608  -4.725  0.00  0.00     0.275 HD
ATOM     25  H9  Z70 d         -20.912  12.600  -6.297  0.00  0.00     0.275 HD
ENDBRANCH  17  22
ENDBRANCH  14  17
ENDBRANCH   1  14
TORSDOF 6
ENDMDL
MODEL 5
REMARK VINA RESULT:      -4.4      3.419      5.762
REMARK  6 active torsions:
REMARK  status: ('A' for Active; 'I' for Inactive)
REMARK    1  A    between atoms: CA_1  and  C_2 
REMARK    2  A    between atoms: C6_6  and  CA_1 
REMARK    3  A    between atoms: CA_1  and  N_8 
REMARK    4  A    between atoms: C7_7  and  C3_3 
REMARK    5  A    between atoms: C4_4  and  N4_11 
REMARK    6  A    between atoms: C6_6  and  C7_7 
ROOT
ATOM      1  C7  Z70 d         -19.728  14.766  -7.329  0.00  0.00    -0.023 C 
ATOM      2  H5  Z70 d         -18.966  14.870  -8.116  0.00  0.00     0.042 H 
ATOM      3  H6  Z70 d         -20.652  14.358  -7.766  0.00  0.00     0.042 H 
ENDROOT
BRANCH   1   4
ATOM      4  C3  Z70 d         -20.031  16.150  -6.765  0.00  0.00     0.029 A 
ATOM      5  C5  Z70 d         -18.955  17.154  -6.653  0.00  0.00     0.028 A 
ATOM      6  N3  Z70 d         -19.599  18.256  -6.096  0.00  0.00    -0.226 NA
ATOM      7  H2  Z70 d         -17.908  17.057  -6.938  0.00  0.00     0.117 H 
ATOM      8  C4  Z70 d         -20.942  17.919  -5.900  0.00  0.00     0.199 A 
ATOM      9  N2  Z70 d         -21.223  16.658  -6.295  0.00  0.00    -0.329 N 
ATOM     10  H10 Z70 d         -22.133  16.179  -6.255  0.00  0.00     0.169 HD
BRANCH   8  11
ATOM     11  N4  Z70 d         -21.882  18.777  -5.357  0.00  0.00    -0.369 N 
ATOM     12  H11 Z70 d         -21.897  18.949  -4.342  0.00  0.00     0.159 HD
ATOM     13  H12 Z70 d         -22.567  19.244  -5.968  0.00  0.00     0.159 HD
ENDBRANCH   8  11
ENDBRANCH   1   4
BRANCH   1  14
ATOM     14  C6  Z70 d         -19.211  13.780  -6.284  0.00  0.00    -0.024 C 
ATOM     15  H3  Z70 d         -18.455  13.139  -6.759  0.00  0.00     0.037 H 
ATOM     16  H4  Z70 d         -18.746  14.354  -5.469  0.00  0.00     0.037 H 
BRANCH  14  17
ATOM     17  CA  Z70 d         -20.304  12.868  -5.671  0.00  0.00     0.182 C 
ATOM     18  H1  Z70 d         -21.262  13.082  -6.169  0.00  0.00     0.101 H 
BRANCH  17  19
ATOM     19  C   Z70 d         -20.030  11.350  -5.784  0.00  0.00     0.204 C 
ATOM     20  OXT Z70 d         -19.576  10.837  -6.880  0.00  0.00    -0.646 OA
ATOM     21  O   Z70 d         -20.259  10.579  -4.785  0.00  0.00    -0.646 OA
ENDBRANCH  17  19
BRANCH  17  22
ATOM     22  N   Z70 d         -20.382  13.214  -4.294  0.00  0.00    -0.065 N 
ATOM     23  H7  Z70 d         -19.595  12.819  -3.803  0.00  0.00     0.275 HD
ATOM     24  H8  Z70 d         -21.239  12.850  -3.904  0.00  0.00     0.275 HD
ATOM     25  H9  Z70 d         -20.370  14.217  -4.198  0.00  0.00     0.275 HD
ENDBRANCH  17  22
ENDBRANCH  14  17
ENDBRANCH   1  14
TORSDOF 6
ENDMDL
