MODEL 1
REMARK VINA RESULT:      -4.9      0.000      0.000
REMARK  4 active torsions:
REMARK  status: ('A' for Active; 'I' for Inactive)
REMARK    1  A    between atoms: C4_4  and  C6_6 
REMARK    2  A    between atoms: C5_5  and  O8_8 
REMARK    3  A    between atoms: O8_8  and  C9_9 
REMARK    4  A    between atoms: C9_9  and  C10_10 
ROOT
ATOM      1  C1  MOL d          44.880  13.519   0.964  0.00  0.00    -0.024 A 
ATOM      2  C2  MOL d          44.782  14.897   1.259  0.00  0.00     0.052 A 
ATOM      3  S3  MOL d          45.682  12.742   2.244  0.00  0.00    -0.091 SA
ATOM      4  C4  MOL d          45.920  14.147   3.181  0.00  0.00     0.116 A 
ATOM      5  C5  MOL d          45.363  15.267   2.504  0.00  0.00     0.111 A 
ATOM      6 BR19 MOL d          43.949  16.114   0.092  0.00  0.00    -0.048 Br
ATOM      7  H1  MOL d          44.503  13.034   0.065  0.00  0.00     0.097 H 
ENDROOT
BRANCH   5   8
ATOM      8  O8  MOL d          45.343  16.643   2.950  0.00  0.00    -0.338 OA
BRANCH   8   9
ATOM      9  C9  MOL d          46.655  17.203   3.174  0.00  0.00     0.106 C 
ATOM     10  H2  MOL d          46.736  18.155   2.631  0.00  0.00     0.091 H 
ATOM     11  H3  MOL d          47.414  16.500   2.798  0.00  0.00     0.091 H 
BRANCH   9  12
ATOM     12  C10 MOL d          46.904  17.454   4.663  0.00  0.00     0.198 C 
ATOM     13  O13 MOL d          45.806  17.384   5.431  0.00  0.00    -0.646 OA
ATOM     14  O15 MOL d          47.978  17.701   5.114  0.00  0.00    -0.646 OA
ENDBRANCH   9  12
ENDBRANCH   8   9
ENDBRANCH   5   8
BRANCH   4  15
ATOM     15  C6  MOL d          46.575  14.107   4.416  0.00  0.00     0.219 C 
ATOM     16  O7  MOL d          45.765  14.221   5.486  0.00  0.00    -0.643 OA
ATOM     17  O14 MOL d          47.771  13.980   4.531  0.00  0.00    -0.643 OA
ENDBRANCH   4  15
TORSDOF 4
ENDMDL
MODEL 2
REMARK VINA RESULT:      -4.5      2.256      3.291
REMARK  4 active torsions:
REMARK  status: ('A' for Active; 'I' for Inactive)
REMARK    1  A    between atoms: C4_4  and  C6_6 
REMARK    2  A    between atoms: C5_5  and  O8_8 
REMARK    3  A    between atoms: O8_8  and  C9_9 
REMARK    4  A    between atoms: C9_9  and  C10_10 
ROOT
ATOM      1  C1  MOL d          44.504  14.561   0.012  0.00  0.00    -0.024 A 
ATOM      2  C2  MOL d          45.000  14.108   1.255  0.00  0.00     0.052 A 
ATOM      3  S3  MOL d          43.956  16.158   0.193  0.00  0.00    -0.091 SA
ATOM      4  C4  MOL d          44.335  16.289   1.850  0.00  0.00     0.116 A 
ATOM      5  C5  MOL d          44.912  15.069   2.301  0.00  0.00     0.111 A 
ATOM      6 BR19 MOL d          45.712  12.382   1.481  0.00  0.00    -0.048 Br
ATOM      7  H1  MOL d          44.478  13.982  -0.909  0.00  0.00     0.097 H 
ENDROOT
BRANCH   5   8
ATOM      8  O8  MOL d          45.379  14.758   3.634  0.00  0.00    -0.338 OA
BRANCH   8   9
ATOM      9  C9  MOL d          46.816  14.799   3.773  0.00  0.00     0.106 C 
ATOM     10  H2  MOL d          47.277  14.588   2.797  0.00  0.00     0.091 H 
ATOM     11  H3  MOL d          47.128  14.035   4.499  0.00  0.00     0.091 H 
BRANCH   9  12
ATOM     12  C10 MOL d          47.287  16.172   4.260  0.00  0.00     0.198 C 
ATOM     13  O13 MOL d          47.648  17.017   3.281  0.00  0.00    -0.646 OA
ATOM     14  O15 MOL d          47.341  16.474   5.410  0.00  0.00    -0.646 OA
ENDBRANCH   9  12
ENDBRANCH   8   9
ENDBRANCH   5   8
BRANCH   4  15
ATOM     15  C6  MOL d          44.080  17.458   2.575  0.00  0.00     0.219 C 
ATOM     16  O7  MOL d          44.623  17.484   3.807  0.00  0.00    -0.643 OA
ATOM     17  O14 MOL d          43.428  18.379   2.143  0.00  0.00    -0.643 OA
ENDBRANCH   4  15
TORSDOF 4
ENDMDL
MODEL 3
REMARK VINA RESULT:      -4.3      1.410      1.795
REMARK  4 active torsions:
REMARK  status: ('A' for Active; 'I' for Inactive)
REMARK    1  A    between atoms: C4_4  and  C6_6 
REMARK    2  A    between atoms: C5_5  and  O8_8 
REMARK    3  A    between atoms: O8_8  and  C9_9 
REMARK    4  A    between atoms: C9_9  and  C10_10 
ROOT
ATOM      1  C1  MOL d          44.151  15.011   0.854  0.00  0.00    -0.024 A 
ATOM      2  C2  MOL d          44.408  15.916   1.907  0.00  0.00     0.052 A 
ATOM      3  S3  MOL d          44.976  13.560   1.167  0.00  0.00    -0.091 SA
ATOM      4  C4  MOL d          45.674  14.067   2.637  0.00  0.00     0.116 A 
ATOM      5  C5  MOL d          45.265  15.400   2.920  0.00  0.00     0.111 A 
ATOM      6 BR19 MOL d          43.669  17.645   1.946  0.00  0.00    -0.048 Br
ATOM      7  H1  MOL d          43.526  15.210  -0.015  0.00  0.00     0.097 H 
ENDROOT
BRANCH   5   8
ATOM      8  O8  MOL d          45.623  16.205   4.068  0.00  0.00    -0.338 OA
BRANCH   8   9
ATOM      9  C9  MOL d          46.606  17.223   3.782  0.00  0.00     0.106 C 
ATOM     10  H2  MOL d          46.199  18.204   4.066  0.00  0.00     0.091 H 
ATOM     11  H3  MOL d          46.826  17.216   2.704  0.00  0.00     0.091 H 
BRANCH   9  12
ATOM     12  C10 MOL d          47.902  16.976   4.557  0.00  0.00     0.198 C 
ATOM     13  O13 MOL d          48.524  15.828   4.252  0.00  0.00    -0.646 OA
ATOM     14  O15 MOL d          48.329  17.731   5.374  0.00  0.00    -0.646 OA
ENDBRANCH   9  12
ENDBRANCH   8   9
ENDBRANCH   5   8
BRANCH   4  15
ATOM     15  C6  MOL d          46.510  13.231   3.384  0.00  0.00     0.219 C 
ATOM     16  O7  MOL d          47.263  12.389   2.650  0.00  0.00    -0.643 OA
ATOM     17  O14 MOL d          46.566  13.251   4.591  0.00  0.00    -0.643 OA
ENDBRANCH   4  15
TORSDOF 4
ENDMDL
MODEL 4
REMARK VINA RESULT:      -3.4      3.161      5.028
REMARK  4 active torsions:
REMARK  status: ('A' for Active; 'I' for Inactive)
REMARK    1  A    between atoms: C4_4  and  C6_6 
REMARK    2  A    between atoms: C5_5  and  O8_8 
REMARK    3  A    between atoms: O8_8  and  C9_9 
REMARK    4  A    between atoms: C9_9  and  C10_10 
ROOT
ATOM      1  C1  MOL d          47.349  15.669   3.830  0.00  0.00    -0.024 A 
ATOM      2  C2  MOL d          46.415  14.650   3.537  0.00  0.00     0.052 A 
ATOM      3  S3  MOL d          46.750  17.145   3.243  0.00  0.00    -0.091 SA
ATOM      4  C4  MOL d          45.304  16.507   2.604  0.00  0.00     0.116 A 
ATOM      5  C5  MOL d          45.257  15.107   2.846  0.00  0.00     0.111 A 
ATOM      6 BR19 MOL d          46.698  12.858   4.029  0.00  0.00    -0.048 Br
ATOM      7  H1  MOL d          48.297  15.529   4.348  0.00  0.00     0.097 H 
ENDROOT
BRANCH   5   8
ATOM      8  O8  MOL d          44.206  14.185   2.475  0.00  0.00    -0.338 OA
BRANCH   8   9
ATOM      9  C9  MOL d          44.687  12.951   1.900  0.00  0.00     0.106 C 
ATOM     10  H2  MOL d          43.873  12.212   1.904  0.00  0.00     0.091 H 
ATOM     11  H3  MOL d          45.525  12.576   2.507  0.00  0.00     0.091 H 
BRANCH   9  12
ATOM     12  C10 MOL d          45.166  13.158   0.462  0.00  0.00     0.198 C 
ATOM     13  O13 MOL d          44.730  14.289  -0.113  0.00  0.00    -0.646 OA
ATOM     14  O15 MOL d          45.863  12.382  -0.113  0.00  0.00    -0.646 OA
ENDBRANCH   9  12
ENDBRANCH   8   9
ENDBRANCH   5   8
BRANCH   4  15
ATOM     15  C6  MOL d          44.365  17.316   1.955  0.00  0.00     0.219 C 
ATOM     16  O7  MOL d          44.325  17.168   0.617  0.00  0.00    -0.643 OA
ATOM     17  O14 MOL d          43.639  18.089   2.535  0.00  0.00    -0.643 OA
ENDBRANCH   4  15
TORSDOF 4
ENDMDL
MODEL 5
REMARK VINA RESULT:      -3.2      2.383      4.061
REMARK  4 active torsions:
REMARK  status: ('A' for Active; 'I' for Inactive)
REMARK    1  A    between atoms: C4_4  and  C6_6 
REMARK    2  A    between atoms: C5_5  and  O8_8 
REMARK    3  A    between atoms: O8_8  and  C9_9 
REMARK    4  A    between atoms: C9_9  and  C10_10 
ROOT
ATOM      1  C1  MOL d          46.367  17.406   3.107  0.00  0.00    -0.024 A 
ATOM      2  C2  MOL d          45.213  16.705   2.690  0.00  0.00     0.052 A 
ATOM      3  S3  MOL d          47.409  16.322   3.897  0.00  0.00    -0.091 SA
ATOM      4  C4  MOL d          46.404  14.955   3.726  0.00  0.00     0.116 A 
ATOM      5  C5  MOL d          45.218  15.324   3.031  0.00  0.00     0.111 A 
ATOM      6 BR19 MOL d          43.809  17.547   1.765  0.00  0.00    -0.048 Br
ATOM      7  H1  MOL d          46.557  18.466   2.947  0.00  0.00     0.097 H 
ENDROOT
BRANCH   5   8
ATOM      8  O8  MOL d          44.107  14.469   2.673  0.00  0.00    -0.338 OA
BRANCH   8   9
ATOM      9  C9  MOL d          44.495  13.280   1.951  0.00  0.00     0.106 C 
ATOM     10  H2  MOL d          43.676  12.548   1.999  0.00  0.00     0.091 H 
ATOM     11  H3  MOL d          45.395  12.854   2.419  0.00  0.00     0.091 H 
BRANCH   9  12
ATOM     12  C10 MOL d          44.797  13.595   0.485  0.00  0.00     0.198 C 
ATOM     13  O13 MOL d          45.700  12.783  -0.086  0.00  0.00    -0.646 OA
ATOM     14  O15 MOL d          44.285  14.492  -0.110  0.00  0.00    -0.646 OA
ENDBRANCH   9  12
ENDBRANCH   8   9
ENDBRANCH   5   8
BRANCH   4  15
ATOM     15  C6  MOL d          46.773  13.702   4.225  0.00  0.00     0.219 C 
ATOM     16  O7  MOL d          47.131  12.806   3.285  0.00  0.00    -0.643 OA
ATOM     17  O14 MOL d          46.776  13.429   5.402  0.00  0.00    -0.643 OA
ENDBRANCH   4  15
TORSDOF 4
ENDMDL
MODEL 6
REMARK VINA RESULT:      -2.7      1.827      3.096
REMARK  4 active torsions:
REMARK  status: ('A' for Active; 'I' for Inactive)
REMARK    1  A    between atoms: C4_4  and  C6_6 
REMARK    2  A    between atoms: C5_5  and  O8_8 
REMARK    3  A    between atoms: O8_8  and  C9_9 
REMARK    4  A    between atoms: C9_9  and  C10_10 
ROOT
ATOM      1  C1  MOL d          43.688  16.119   1.034  0.00  0.00    -0.024 A 
ATOM      2  C2  MOL d          44.621  15.064   1.144  0.00  0.00     0.052 A 
ATOM      3  S3  MOL d          44.130  17.354   2.112  0.00  0.00    -0.091 SA
ATOM      4  C4  MOL d          45.504  16.561   2.735  0.00  0.00     0.116 A 
ATOM      5  C5  MOL d          45.650  15.297   2.098  0.00  0.00     0.111 A 
ATOM      6 BR19 MOL d          44.492  13.500   0.108  0.00  0.00    -0.048 Br
ATOM      7  H1  MOL d          42.827  16.137   0.367  0.00  0.00     0.097 H 
ENDROOT
BRANCH   5   8
ATOM      8  O8  MOL d          46.684  14.311   2.328  0.00  0.00    -0.338 OA
BRANCH   8   9
ATOM      9  C9  MOL d          46.390  13.398   3.406  0.00  0.00     0.106 C 
ATOM     10  H2  MOL d          46.990  12.485   3.277  0.00  0.00     0.091 H 
ATOM     11  H3  MOL d          45.321  13.141   3.377  0.00  0.00     0.091 H 
BRANCH   9  12
ATOM     12  C10 MOL d          46.717  14.020   4.765  0.00  0.00     0.198 C 
ATOM     13  O13 MOL d          45.644  14.325   5.511  0.00  0.00    -0.646 OA
ATOM     14  O15 MOL d          47.828  14.230   5.138  0.00  0.00    -0.646 OA
ENDBRANCH   9  12
ENDBRANCH   8   9
ENDBRANCH   5   8
BRANCH   4  15
ATOM     15  C6  MOL d          46.307  17.142   3.722  0.00  0.00     0.219 C 
ATOM     16  O7  MOL d          45.635  17.598   4.796  0.00  0.00    -0.643 OA
ATOM     17  O14 MOL d          47.509  17.234   3.633  0.00  0.00    -0.643 OA
ENDBRANCH   4  15
TORSDOF 4
ENDMDL
MODEL 7
REMARK VINA RESULT:      -2.0      3.407      5.289
REMARK  4 active torsions:
REMARK  status: ('A' for Active; 'I' for Inactive)
REMARK    1  A    between atoms: C4_4  and  C6_6 
REMARK    2  A    between atoms: C5_5  and  O8_8 
REMARK    3  A    between atoms: O8_8  and  C9_9 
REMARK    4  A    between atoms: C9_9  and  C10_10 
ROOT
ATOM      1  C1  MOL d          46.545  16.521   3.811  0.00  0.00    -0.024 A 
ATOM      2  C2  MOL d          45.839  15.298   3.766  0.00  0.00     0.052 A 
ATOM      3  S3  MOL d          46.142  17.436   2.439  0.00  0.00    -0.091 SA
ATOM      4  C4  MOL d          45.074  16.288   1.769  0.00  0.00     0.116 A 
ATOM      5  C5  MOL d          45.006  15.151   2.622  0.00  0.00     0.111 A 
ATOM      6 BR19 MOL d          46.001  13.997   5.114  0.00  0.00    -0.048 Br
ATOM      7  H1  MOL d          47.234  16.827   4.597  0.00  0.00     0.097 H 
ENDROOT
BRANCH   5   8
ATOM      8  O8  MOL d          44.217  13.954   2.430  0.00  0.00    -0.338 OA
BRANCH   8   9
ATOM      9  C9  MOL d          45.005  12.764   2.213  0.00  0.00     0.106 C 
ATOM     10  H2  MOL d          44.451  11.893   2.593  0.00  0.00     0.091 H 
ATOM     11  H3  MOL d          45.956  12.860   2.758  0.00  0.00     0.091 H 
BRANCH   9  12
ATOM     12  C10 MOL d          45.300  12.558   0.726  0.00  0.00     0.198 C 
ATOM     13  O13 MOL d          46.600  12.396   0.433  0.00  0.00    -0.646 OA
ATOM     14  O15 MOL d          44.455  12.548  -0.113  0.00  0.00    -0.646 OA
ENDBRANCH   9  12
ENDBRANCH   8   9
ENDBRANCH   5   8
BRANCH   4  15
ATOM     15  C6  MOL d          44.410  16.516   0.559  0.00  0.00     0.219 C 
ATOM     16  O7  MOL d          44.814  17.616  -0.105  0.00  0.00    -0.643 OA
ATOM     17  O14 MOL d          43.543  15.792   0.129  0.00  0.00    -0.643 OA
ENDBRANCH   4  15
TORSDOF 4
ENDMDL
