MODEL 1
REMARK VINA RESULT:     -11.0      0.000      0.000
REMARK  5 active torsions:
REMARK  status: ('A' for Active; 'I' for Inactive)
REMARK    1  A    between atoms: O1_1  and  C1_2 
REMARK    2  A    between atoms: C1_2  and  C2_3 
REMARK    3  A    between atoms: C6_8  and  S1_13 
REMARK    4  A    between atoms: S1_13  and  N2_16 
REMARK    5  A    between atoms: N2_16  and  C11_17 
ROOT
ATOM      1  C2  F83 d          28.856  45.104  20.191  0.00  0.00     0.126 C 
ATOM      2  N1  F83 d          29.158  43.668  20.090  0.00  0.00    -0.065 N 
ATOM      3  C3  F83 d          28.340  43.046  19.040  0.00  0.00     0.106 C 
ATOM      4  C4  F83 d          28.461  43.810  17.715  0.00  0.00    -0.025 A 
ATOM      5  C5  F83 d          28.031  43.202  16.541  0.00  0.00    -0.052 A 
ATOM      6  C6  F83 d          28.084  43.894  15.335  0.00  0.00     0.080 A 
ATOM      7  C7  F83 d          28.572  45.197  15.303  0.00  0.00    -0.060 A 
ATOM      8  C8  F83 d          29.007  45.807  16.476  0.00  0.00    -0.075 A 
ATOM      9  C9  F83 d          28.954  45.115  17.684  0.00  0.00    -0.048 A 
ATOM     10  C10 F83 d          29.439  45.801  18.960  0.00  0.00    -0.012 C 
ATOM     11  H4  F83 d          27.766  45.251  20.220  0.00  0.00     0.088 H 
ATOM     12  H5  F83 d          28.960  43.224  20.973  0.00  0.00     0.278 HD
ATOM     13  H6  F83 d          30.133  43.549  19.866  0.00  0.00     0.278 HD
ATOM     14  H7  F83 d          27.288  43.046  19.358  0.00  0.00     0.083 H 
ATOM     15  H8  F83 d          28.678  42.010  18.888  0.00  0.00     0.083 H 
ATOM     16  H9  F83 d          27.654  42.187  16.565  0.00  0.00     0.086 H 
ATOM     17  H10 F83 d          28.613  45.738  14.364  0.00  0.00     0.085 H 
ATOM     18  H11 F83 d          29.387  46.821  16.449  0.00  0.00     0.084 H 
ATOM     19  H12 F83 d          30.537  45.755  19.002  0.00  0.00     0.043 H 
ATOM     20  H13 F83 d          29.116  46.853  18.952  0.00  0.00     0.043 H 
ENDROOT
BRANCH   6  21
ATOM     21  S1  F83 d          27.527  43.132  13.863  0.00  0.00     0.263 S 
ATOM     22  O2  F83 d          26.099  43.000  13.893  0.00  0.00    -0.200 OA
ATOM     23  O3  F83 d          28.142  41.769  13.742  0.00  0.00    -0.200 OA
BRANCH  21  24
ATOM     24  N2  F83 d          27.988  44.029  12.584  0.00  0.00    -0.281 N 
ATOM     25  H14 F83 d          28.953  44.023  12.325  0.00  0.00     0.179 HD
BRANCH  24  26
ATOM     26  C11 F83 d          27.058  44.846  11.792  0.00  0.00     0.042 A 
ATOM     27  C12 F83 d          26.006  45.530  12.396  0.00  0.00    -0.055 A 
ATOM     28  C13 F83 d          25.186  46.360  11.636  0.00  0.00    -0.060 A 
ATOM     29  H15 F83 d          25.825  45.416  13.459  0.00  0.00     0.087 H 
ATOM     30  C14 F83 d          25.413  46.511  10.268  0.00  0.00     0.034 A 
ATOM     31  H16 F83 d          24.368  46.891  12.108  0.00  0.00     0.086 H 
ATOM     32  C15 F83 d          26.459  45.821   9.664  0.00  0.00    -0.060 A 
ATOM     33 CL1  F83 d          24.422  47.564   9.320  0.00  0.00    -0.084 Cl
ATOM     34  C16 F83 d          27.279  44.988  10.425  0.00  0.00    -0.055 A 
ATOM     35  H17 F83 d          26.637  45.931   8.600  0.00  0.00     0.086 H 
ATOM     36  H18 F83 d          28.092  44.449   9.951  0.00  0.00     0.087 H 
ENDBRANCH  24  26
ENDBRANCH  21  24
ENDBRANCH   6  21
BRANCH   1  37
ATOM     37  C1  F83 d          29.479  45.685  21.461  0.00  0.00     0.044 C 
ATOM     38  H2  F83 d          30.499  45.293  21.586  0.00  0.00     0.077 H 
ATOM     39  H3  F83 d          29.514  46.782  21.387  0.00  0.00     0.077 H 
BRANCH  37  40
ATOM     40  O1  F83 d          28.676  45.305  22.583  0.00  0.00    -0.399 OA
ATOM     41  H1  F83 d          29.055  45.662  23.378  0.00  0.00     0.209 HD
ENDBRANCH  37  40
ENDBRANCH   1  37
TORSDOF 5
ENDMDL
