MODEL 1
REMARK VINA RESULT:     -10.3      0.000      0.000
REMARK  5 active torsions:
REMARK  status: ('A' for Active; 'I' for Inactive)
REMARK    1  A    between atoms: O1_1  and  C1_2 
REMARK    2  A    between atoms: C1_2  and  C2_3 
REMARK    3  A    between atoms: C6_8  and  S1_13 
REMARK    4  A    between atoms: S1_13  and  N2_16 
REMARK    5  A    between atoms: N2_16  and  C11_17 
ROOT
ATOM      1  C2  F83 d          28.743  45.555  20.621  0.00  0.00     0.126 C 
ATOM      2  N1  F83 d          29.036  44.114  20.635  0.00  0.00    -0.065 N 
ATOM      3  C3  F83 d          28.276  43.428  19.579  0.00  0.00     0.106 C 
ATOM      4  C4  F83 d          28.486  44.101  18.217  0.00  0.00    -0.025 A 
ATOM      5  C5  F83 d          28.121  43.419  17.062  0.00  0.00    -0.052 A 
ATOM      6  C6  F83 d          28.255  44.028  15.818  0.00  0.00     0.080 A 
ATOM      7  C7  F83 d          28.757  45.323  15.729  0.00  0.00    -0.060 A 
ATOM      8  C8  F83 d          29.126  46.007  16.884  0.00  0.00    -0.075 A 
ATOM      9  C9  F83 d          28.993  45.397  18.130  0.00  0.00    -0.048 A 
ATOM     10  C10 F83 d          29.407  46.165  19.384  0.00  0.00    -0.012 C 
ATOM     11  H4  F83 d          27.655  45.711  20.574  0.00  0.00     0.088 H 
ATOM     12  H5  F83 d          28.779  43.730  21.531  0.00  0.00     0.278 HD
ATOM     13  H6  F83 d          30.021  43.974  20.479  0.00  0.00     0.278 HD
ATOM     14  H7  F83 d          27.206  43.456  19.832  0.00  0.00     0.083 H 
ATOM     15  H8  F83 d          28.612  42.382  19.517  0.00  0.00     0.083 H 
ATOM     16  H9  F83 d          27.732  42.410  17.130  0.00  0.00     0.086 H 
ATOM     17  H10 F83 d          28.861  45.799  14.760  0.00  0.00     0.085 H 
ATOM     18  H11 F83 d          29.519  47.014  16.813  0.00  0.00     0.084 H 
ATOM     19  H12 F83 d          30.500  46.114  19.497  0.00  0.00     0.043 H 
ATOM     20  H13 F83 d          29.097  47.216  19.287  0.00  0.00     0.043 H 
ENDROOT
BRANCH   6  21
ATOM     21  S1  F83 d          27.780  43.173  14.368  0.00  0.00     0.263 S 
ATOM     22  O2  F83 d          26.353  43.032  14.331  0.00  0.00    -0.200 OA
ATOM     23  O3  F83 d          28.407  41.810  14.364  0.00  0.00    -0.200 OA
BRANCH  21  24
ATOM     24  N2  F83 d          28.303  43.994  13.062  0.00  0.00    -0.281 N 
ATOM     25  H14 F83 d          29.280  43.978  12.853  0.00  0.00     0.179 HD
BRANCH  24  26
ATOM     26  C11 F83 d          27.412  44.757  12.176  0.00  0.00     0.042 A 
ATOM     27  C12 F83 d          26.423  45.589  12.693  0.00  0.00    -0.055 A 
ATOM     28  C13 F83 d          25.643  46.361  11.834  0.00  0.00    -0.060 A 
ATOM     29  H15 F83 d          26.258  45.636  13.763  0.00  0.00     0.087 H 
ATOM     30  C14 F83 d          25.849  46.305  10.456  0.00  0.00     0.034 A 
ATOM     31  H16 F83 d          24.873  47.007  12.239  0.00  0.00     0.086 H 
ATOM     32  C15 F83 d          26.833  45.467   9.941  0.00  0.00    -0.060 A 
ATOM     33 CL1  F83 d          24.910  47.283   9.383  0.00  0.00    -0.084 Cl
ATOM     34  C16 F83 d          27.612  44.692  10.800  0.00  0.00    -0.055 A 
ATOM     35  H17 F83 d          26.994  45.417   8.870  0.00  0.00     0.086 H 
ATOM     36  H18 F83 d          28.376  44.038  10.395  0.00  0.00     0.087 H 
ENDBRANCH  24  26
ENDBRANCH  21  24
ENDBRANCH   6  21
BRANCH   1  37
ATOM     37  C1  F83 d          29.293  46.216  21.886  0.00  0.00     0.044 C 
ATOM     38  H2  F83 d          28.551  46.144  22.694  0.00  0.00     0.077 H 
ATOM     39  H3  F83 d          30.220  45.710  22.193  0.00  0.00     0.077 H 
BRANCH  37  40
ATOM     40  O1  F83 d          29.566  47.592  21.604  0.00  0.00    -0.399 OA
ATOM     41  H1  F83 d          30.153  47.651  20.859  0.00  0.00     0.209 HD
ENDBRANCH  37  40
ENDBRANCH   1  37
TORSDOF 5
ENDMDL
MODEL 2
REMARK VINA RESULT:      -9.4      1.041      1.721
REMARK  5 active torsions:
REMARK  status: ('A' for Active; 'I' for Inactive)
REMARK    1  A    between atoms: O1_1  and  C1_2 
REMARK    2  A    between atoms: C1_2  and  C2_3 
REMARK    3  A    between atoms: C6_8  and  S1_13 
REMARK    4  A    between atoms: S1_13  and  N2_16 
REMARK    5  A    between atoms: N2_16  and  C11_17 
ROOT
ATOM      1  C2  F83 d          29.277  45.043  20.816  0.00  0.00     0.126 C 
ATOM      2  N1  F83 d          29.081  46.232  19.974  0.00  0.00    -0.065 N 
ATOM      3  C3  F83 d          29.421  45.931  18.576  0.00  0.00     0.106 C 
ATOM      4  C4  F83 d          28.684  44.680  18.081  0.00  0.00    -0.025 A 
ATOM      5  C5  F83 d          28.621  44.427  16.716  0.00  0.00    -0.052 A 
ATOM      6  C6  F83 d          28.002  43.272  16.246  0.00  0.00     0.080 A 
ATOM      7  C7  F83 d          27.440  42.371  17.145  0.00  0.00    -0.060 A 
ATOM      8  C8  F83 d          27.498  42.624  18.512  0.00  0.00    -0.075 A 
ATOM      9  C9  F83 d          28.119  43.779  18.983  0.00  0.00    -0.048 A 
ATOM     10  C10 F83 d          28.168  44.039  20.489  0.00  0.00    -0.012 C 
ATOM     11  H4  F83 d          30.258  44.596  20.601  0.00  0.00     0.088 H 
ATOM     12  H5  F83 d          29.673  46.977  20.307  0.00  0.00     0.278 HD
ATOM     13  H6  F83 d          28.117  46.521  20.026  0.00  0.00     0.278 HD
ATOM     14  H7  F83 d          30.505  45.761  18.500  0.00  0.00     0.083 H 
ATOM     15  H8  F83 d          29.138  46.787  17.945  0.00  0.00     0.083 H 
ATOM     16  H9  F83 d          29.056  45.130  16.015  0.00  0.00     0.086 H 
ATOM     17  H10 F83 d          26.958  41.471  16.780  0.00  0.00     0.085 H 
ATOM     18  H11 F83 d          27.060  41.921  19.212  0.00  0.00     0.084 H 
ATOM     19  H12 F83 d          27.201  44.445  20.820  0.00  0.00     0.043 H 
ATOM     20  H13 F83 d          28.368  43.093  21.014  0.00  0.00     0.043 H 
ENDROOT
BRANCH   6  21
ATOM     21  S1  F83 d          27.939  42.949  14.528  0.00  0.00     0.263 S 
ATOM     22  O2  F83 d          26.642  42.450  14.174  0.00  0.00    -0.200 OA
ATOM     23  O3  F83 d          28.972  41.921  14.175  0.00  0.00    -0.200 OA
BRANCH  21  24
ATOM     24  N2  F83 d          28.263  44.320  13.710  0.00  0.00    -0.281 N 
ATOM     25  H14 F83 d          29.103  44.815  13.930  0.00  0.00     0.179 HD
BRANCH  24  26
ATOM     26  C11 F83 d          27.384  44.866  12.666  0.00  0.00     0.042 A 
ATOM     27  C12 F83 d          26.328  45.715  12.986  0.00  0.00    -0.055 A 
ATOM     28  C13 F83 d          25.558  46.282  11.973  0.00  0.00    -0.060 A 
ATOM     29  H15 F83 d          26.104  45.935  14.024  0.00  0.00     0.087 H 
ATOM     30  C14 F83 d          25.840  46.002  10.636  0.00  0.00     0.034 A 
ATOM     31  H16 F83 d          24.736  46.942  12.224  0.00  0.00     0.086 H 
ATOM     32  C15 F83 d          26.890  45.148  10.319  0.00  0.00    -0.060 A 
ATOM     33 CL1  F83 d          24.912  46.726   9.369  0.00  0.00    -0.084 Cl
ATOM     34  C16 F83 d          27.660  44.579  11.333  0.00  0.00    -0.055 A 
ATOM     35  H17 F83 d          27.111  44.924   9.281  0.00  0.00     0.086 H 
ATOM     36  H18 F83 d          28.476  43.910  11.082  0.00  0.00     0.087 H 
ENDBRANCH  24  26
ENDBRANCH  21  24
ENDBRANCH   6  21
BRANCH   1  37
ATOM     37  C1  F83 d          29.209  45.427  22.294  0.00  0.00     0.044 C 
ATOM     38  H2  F83 d          29.530  44.576  22.913  0.00  0.00     0.077 H 
ATOM     39  H3  F83 d          29.869  46.287  22.483  0.00  0.00     0.077 H 
BRANCH  37  40
ATOM     40  O1  F83 d          27.860  45.776  22.618  0.00  0.00    -0.399 OA
ATOM     41  H1  F83 d          27.332  45.762  21.829  0.00  0.00     0.209 HD
ENDBRANCH  37  40
ENDBRANCH   1  37
TORSDOF 5
ENDMDL
