REMARK  8 active torsions:
REMARK  status: ('A' for Active; 'I' for Inactive)
REMARK    1  A    between atoms: O6B_1  and  C6B_2 
REMARK    2  A    between atoms: C6B_2  and  C5B_3 
REMARK    3  A    between atoms: C4B_4  and  O4B_5 
REMARK    4  A    between atoms: C3B_6  and  O3B_7 
REMARK    5  A    between atoms: C20_22  and  O2B_8 
REMARK    6  A    between atoms: C7B_11  and  C7_14 
REMARK    7  A    between atoms: C7_14  and  N1_15 
REMARK    8  A    between atoms: N1_15  and  C1_16 
ROOT
ATOM      1  C5B NHV d          26.750  48.436  -1.986  0.00  0.00     0.065 C 
ATOM      2  C4B NHV d          27.834  48.654  -0.899  0.00  0.00     0.085 C 
ATOM      3  C3B NHV d          28.052  47.413   0.007  0.00  0.00     0.093 C 
ATOM      4  N1B NHV d          27.329  47.340  -2.795  0.00  0.00    -0.332 N 
ATOM      5  C8B NHV d          27.653  47.277  -4.100  0.00  0.00     0.007 A 
ATOM      6  C7B NHV d          28.339  46.086  -4.255  0.00  0.00     0.069 A 
ATOM      7  N2B NHV d          28.338  45.418  -3.068  0.00  0.00    -0.234 NA
ATOM      8  C1B NHV d          27.757  46.256  -2.182  0.00  0.00     0.138 A 
ATOM      9  C20 NHV d          27.602  46.113  -0.684  0.00  0.00     0.119 C 
ATOM     10  H4  NHV d          25.817  48.087  -1.520  0.00  0.00     0.080 H 
ATOM     11  H5  NHV d          28.785  48.867  -1.409  0.00  0.00     0.090 H 
ATOM     12  H7  NHV d          27.441  47.541   0.913  0.00  0.00     0.091 H 
ATOM     13  H10 NHV d          27.423  48.010  -4.872  0.00  0.00     0.114 H 
ATOM     14  H19 NHV d          26.531  46.005  -0.459  0.00  0.00     0.099 H 
ENDROOT
BRANCH   6  15
ATOM     15  C7  NHV d          28.870  45.570  -5.553  0.00  0.00     0.034 C 
ATOM     16  H11 NHV d          28.413  46.137  -6.377  0.00  0.00     0.073 H 
ATOM     17  H12 NHV d          28.607  44.506  -5.649  0.00  0.00     0.073 H 
BRANCH  15  18
ATOM     18  N1  NHV d          30.319  45.709  -5.629  0.00  0.00    -0.384 N 
ATOM     19  H13 NHV d          30.887  44.858  -5.510  0.00  0.00     0.160 HD
BRANCH  18  20
ATOM     20  C1  NHV d          30.986  46.896  -5.849  0.00  0.00     0.028 A 
ATOM     21  C6  NHV d          30.330  48.036  -6.337  0.00  0.00    -0.058 A 
ATOM     22  C5  NHV d          31.063  49.234  -6.547  0.00  0.00    -0.081 A 
ATOM     23  H14 NHV d          29.268  48.002  -6.553  0.00  0.00     0.086 H 
ATOM     24  C4  NHV d          32.443  49.319  -6.274  0.00  0.00    -0.083 A 
ATOM     25  H15 NHV d          30.547  50.108  -6.928  0.00  0.00     0.083 H 
ATOM     26  C3  NHV d          33.114  48.176  -5.789  0.00  0.00    -0.081 A 
ATOM     27  H16 NHV d          32.980  50.247  -6.434  0.00  0.00     0.083 H 
ATOM     28  C2  NHV d          32.376  46.985  -5.588  0.00  0.00    -0.058 A 
ATOM     29  H17 NHV d          34.176  48.210  -5.574  0.00  0.00     0.083 H 
ATOM     30  H18 NHV d          32.894  46.107  -5.220  0.00  0.00     0.086 H 
ENDBRANCH  18  20
ENDBRANCH  15  18
ENDBRANCH   6  15
BRANCH   1  31
ATOM     31  C6B NHV d          26.422  49.735  -2.752  0.00  0.00     0.038 C 
ATOM     32  H2  NHV d          25.521  49.578  -3.363  0.00  0.00     0.077 H 
ATOM     33  H3  NHV d          26.239  50.545  -2.030  0.00  0.00     0.077 H 
BRANCH  31  34
ATOM     34  O6B NHV d          27.502  50.097  -3.597  0.00  0.00    -0.399 OA
ATOM     35  H1  NHV d          27.660  49.400  -4.223  0.00  0.00     0.209 HD
ENDBRANCH  31  34
ENDBRANCH   1  31
BRANCH   9  36
ATOM     36  O2B NHV d          28.226  44.871  -0.294  0.00  0.00    -0.385 OA
ATOM     37  H9  NHV d          29.160  44.922  -0.459  0.00  0.00     0.210 HD
ENDBRANCH   9  36
BRANCH   2  38
ATOM     38  O4B NHV d          27.481  49.789  -0.105  0.00  0.00    -0.391 OA
ATOM     39  H6  NHV d          28.143  49.926   0.562  0.00  0.00     0.210 HD
ENDBRANCH   2  38
BRANCH   3  40
ATOM     40  O3B NHV d          29.427  47.337   0.401  0.00  0.00    -0.390 OA
ATOM     41  H8  NHV d          29.555  46.576   0.955  0.00  0.00     0.210 HD
ENDBRANCH   3  40
TORSDOF 8
