MODEL 1
REMARK VINA RESULT:      -8.6      0.000      0.000
REMARK  8 active torsions:
REMARK  status: ('A' for Active; 'I' for Inactive)
REMARK    1  A    between atoms: O6B_1  and  C6B_2 
REMARK    2  A    between atoms: C6B_2  and  C5B_3 
REMARK    3  A    between atoms: C4B_4  and  O4B_5 
REMARK    4  A    between atoms: C3B_6  and  O3B_7 
REMARK    5  A    between atoms: C20_22  and  O2B_8 
REMARK    6  A    between atoms: C7B_11  and  C7_14 
REMARK    7  A    between atoms: C7_14  and  N1_15 
REMARK    8  A    between atoms: N1_15  and  C1_16 
ROOT
ATOM      1  C5B NHV d          26.722  48.368  -2.038  0.00  0.00     0.065 C 
ATOM      2  C4B NHV d          27.815  48.567  -0.957  0.00  0.00     0.085 C 
ATOM      3  C3B NHV d          28.245  47.245  -0.268  0.00  0.00     0.093 C 
ATOM      4  N1B NHV d          27.408  47.506  -3.027  0.00  0.00    -0.332 N 
ATOM      5  C8B NHV d          27.676  47.694  -4.332  0.00  0.00     0.007 A 
ATOM      6  C7B NHV d          28.512  46.653  -4.694  0.00  0.00     0.069 A 
ATOM      7  N2B NHV d          28.659  45.815  -3.630  0.00  0.00    -0.234 NA
ATOM      8  C1B NHV d          28.010  46.413  -2.607  0.00  0.00     0.138 A 
ATOM      9  C20 NHV d          27.947  46.017  -1.148  0.00  0.00     0.119 C 
ATOM     10  H4  NHV d          25.869  47.820  -1.612  0.00  0.00     0.080 H 
ATOM     11  H5  NHV d          28.703  48.992  -1.449  0.00  0.00     0.090 H 
ATOM     12  H7  NHV d          27.665  47.141   0.661  0.00  0.00     0.091 H 
ATOM     13  H10 NHV d          27.312  48.498  -4.971  0.00  0.00     0.114 H 
ATOM     14  H19 NHV d          26.912  45.723  -0.917  0.00  0.00     0.099 H 
ENDROOT
BRANCH   6  15
ATOM     15  C7  NHV d          29.048  46.428  -6.070  0.00  0.00     0.034 C 
ATOM     16  H11 NHV d          28.697  47.236  -6.728  0.00  0.00     0.073 H 
ATOM     17  H12 NHV d          28.676  45.462  -6.445  0.00  0.00     0.073 H 
BRANCH  15  18
ATOM     18  N1  NHV d          30.505  46.409  -6.079  0.00  0.00    -0.384 N 
ATOM     19  H13 NHV d          30.972  45.495  -5.992  0.00  0.00     0.160 HD
BRANCH  18  20
ATOM     20  C1  NHV d          31.307  47.526  -6.194  0.00  0.00     0.028 A 
ATOM     21  C6  NHV d          30.847  48.710  -6.791  0.00  0.00    -0.058 A 
ATOM     22  C5  NHV d          31.713  49.831  -6.887  0.00  0.00    -0.081 A 
ATOM     23  H14 NHV d          29.836  48.767  -7.178  0.00  0.00     0.086 H 
ATOM     24  C4  NHV d          33.032  49.797  -6.392  0.00  0.00    -0.083 A 
ATOM     25  H15 NHV d          31.349  50.740  -7.353  0.00  0.00     0.083 H 
ATOM     26  C3  NHV d          33.506  48.609  -5.795  0.00  0.00    -0.081 A 
ATOM     27  H16 NHV d          33.672  50.669  -6.468  0.00  0.00     0.083 H 
ATOM     28  C2  NHV d          32.638  47.495  -5.710  0.00  0.00    -0.058 A 
ATOM     29  H17 NHV d          34.517  48.552  -5.409  0.00  0.00     0.083 H 
ATOM     30  H18 NHV d          33.005  46.582  -5.256  0.00  0.00     0.086 H 
ENDBRANCH  18  20
ENDBRANCH  15  18
ENDBRANCH   6  15
BRANCH   1  31
ATOM     31  C6B NHV d          26.182  49.710  -2.577  0.00  0.00     0.038 C 
ATOM     32  H2  NHV d          25.284  49.522  -3.182  0.00  0.00     0.077 H 
ATOM     33  H3  NHV d          25.924  50.363  -1.730  0.00  0.00     0.077 H 
BRANCH  31  34
ATOM     34  O6B NHV d          27.161  50.350  -3.380  0.00  0.00    -0.399 OA
ATOM     35  H1  NHV d          27.383  49.788  -4.113  0.00  0.00     0.209 HD
ENDBRANCH  31  34
ENDBRANCH   1  31
BRANCH   9  36
ATOM     36  O2B NHV d          28.754  44.832  -0.978  0.00  0.00    -0.385 OA
ATOM     37  H9  NHV d          29.663  45.042  -1.155  0.00  0.00     0.210 HD
ENDBRANCH   9  36
BRANCH   2  38
ATOM     38  O4B NHV d          27.347  49.502   0.018  0.00  0.00    -0.391 OA
ATOM     39  H6  NHV d          28.014  49.627   0.682  0.00  0.00     0.210 HD
ENDBRANCH   2  38
BRANCH   3  40
ATOM     40  O3B NHV d          29.634  47.307   0.075  0.00  0.00    -0.390 OA
ATOM     41  H8  NHV d          29.892  46.495   0.496  0.00  0.00     0.210 HD
ENDBRANCH   3  40
TORSDOF 8
ENDMDL
