MODEL 1
REMARK VINA RESULT:      -8.9      0.000      0.000
REMARK  8 active torsions:
REMARK  status: ('A' for Active; 'I' for Inactive)
REMARK    1  A    between atoms: O6B_1  and  C6B_2 
REMARK    2  A    between atoms: C6B_2  and  C5B_3 
REMARK    3  A    between atoms: C4B_4  and  O4B_5 
REMARK    4  A    between atoms: C3B_6  and  O3B_7 
REMARK    5  A    between atoms: C20_22  and  O2B_8 
REMARK    6  A    between atoms: C7B_11  and  C7_14 
REMARK    7  A    between atoms: C7_14  and  N1_15 
REMARK    8  A    between atoms: N1_15  and  C1_16 
ROOT
ATOM      1  C5B NHV d          26.805  48.424  -1.862  0.00  0.00     0.065 C 
ATOM      2  C4B NHV d          27.928  48.554  -0.801  0.00  0.00     0.085 C 
ATOM      3  C3B NHV d          28.304  47.203  -0.137  0.00  0.00     0.093 C 
ATOM      4  N1B NHV d          27.427  47.541  -2.875  0.00  0.00    -0.332 N 
ATOM      5  C8B NHV d          27.678  47.732  -4.183  0.00  0.00     0.007 A 
ATOM      6  C7B NHV d          28.453  46.655  -4.574  0.00  0.00     0.069 A 
ATOM      7  N2B NHV d          28.579  45.798  -3.523  0.00  0.00    -0.234 NA
ATOM      8  C1B NHV d          27.981  46.414  -2.480  0.00  0.00     0.138 A 
ATOM      9  C20 NHV d          27.927  46.004  -1.025  0.00  0.00     0.119 C 
ATOM     10  H4  NHV d          25.934  47.914  -1.424  0.00  0.00     0.080 H 
ATOM     11  H5  NHV d          28.826  48.940  -1.307  0.00  0.00     0.090 H 
ATOM     12  H7  NHV d          27.739  47.117   0.803  0.00  0.00     0.091 H 
ATOM     13  H10 NHV d          27.341  48.561  -4.804  0.00  0.00     0.114 H 
ATOM     14  H19 NHV d          26.885  45.758  -0.776  0.00  0.00     0.099 H 
ENDROOT
BRANCH   6  15
ATOM     15  C7  NHV d          28.949  46.420  -5.964  0.00  0.00     0.034 C 
ATOM     16  H11 NHV d          28.491  47.160  -6.636  0.00  0.00     0.073 H 
ATOM     17  H12 NHV d          28.658  45.407  -6.280  0.00  0.00     0.073 H 
BRANCH  15  18
ATOM     18  N1  NHV d          30.399  46.544  -6.040  0.00  0.00    -0.384 N 
ATOM     19  H13 NHV d          30.928  45.737  -6.400  0.00  0.00     0.160 HD
BRANCH  18  20
ATOM     20  C1  NHV d          31.115  47.661  -5.665  0.00  0.00     0.028 A 
ATOM     21  C6  NHV d          30.923  48.906  -6.282  0.00  0.00    -0.058 A 
ATOM     22  C5  NHV d          31.687  50.026  -5.860  0.00  0.00    -0.081 A 
ATOM     23  H14 NHV d          30.195  49.012  -7.078  0.00  0.00     0.086 H 
ATOM     24  C4  NHV d          32.640  49.929  -4.826  0.00  0.00    -0.083 A 
ATOM     25  H15 NHV d          31.534  50.983  -6.346  0.00  0.00     0.083 H 
ATOM     26  C3  NHV d          32.846  48.680  -4.204  0.00  0.00    -0.081 A 
ATOM     27  H16 NHV d          33.206  50.800  -4.515  0.00  0.00     0.083 H 
ATOM     28  C2  NHV d          32.084  47.568  -4.635  0.00  0.00    -0.058 A 
ATOM     29  H17 NHV d          33.575  48.574  -3.408  0.00  0.00     0.083 H 
ATOM     30  H18 NHV d          32.247  46.608  -4.159  0.00  0.00     0.086 H 
ENDBRANCH  18  20
ENDBRANCH  15  18
ENDBRANCH   6  15
BRANCH   1  31
ATOM     31  C6B NHV d          26.322  49.797  -2.374  0.00  0.00     0.038 C 
ATOM     32  H2  NHV d          25.309  49.694  -2.788  0.00  0.00     0.077 H 
ATOM     33  H3  NHV d          26.306  50.511  -1.536  0.00  0.00     0.077 H 
BRANCH  31  34
ATOM     34  O6B NHV d          27.192  50.282  -3.384  0.00  0.00    -0.399 OA
ATOM     35  H1  NHV d          27.845  50.851  -2.992  0.00  0.00     0.209 HD
ENDBRANCH  31  34
ENDBRANCH   1  31
BRANCH   9  36
ATOM     36  O2B NHV d          28.677  44.778  -0.885  0.00  0.00    -0.385 OA
ATOM     37  H9  NHV d          29.130  44.778  -0.050  0.00  0.00     0.210 HD
ENDBRANCH   9  36
BRANCH   2  38
ATOM     38  O4B NHV d          27.527  49.499   0.193  0.00  0.00    -0.391 OA
ATOM     39  H6  NHV d          27.126  49.040   0.922  0.00  0.00     0.210 HD
ENDBRANCH   2  38
BRANCH   3  40
ATOM     40  O3B NHV d          29.702  47.192   0.178  0.00  0.00    -0.390 OA
ATOM     41  H8  NHV d          29.921  47.975   0.669  0.00  0.00     0.210 HD
ENDBRANCH   3  40
TORSDOF 8
ENDMDL
MODEL 2
REMARK VINA RESULT:      -6.8      3.033      5.950
REMARK  8 active torsions:
REMARK  status: ('A' for Active; 'I' for Inactive)
REMARK    1  A    between atoms: O6B_1  and  C6B_2 
REMARK    2  A    between atoms: C6B_2  and  C5B_3 
REMARK    3  A    between atoms: C4B_4  and  O4B_5 
REMARK    4  A    between atoms: C3B_6  and  O3B_7 
REMARK    5  A    between atoms: C20_22  and  O2B_8 
REMARK    6  A    between atoms: C7B_11  and  C7_14 
REMARK    7  A    between atoms: C7_14  and  N1_15 
REMARK    8  A    between atoms: N1_15  and  C1_16 
ROOT
ATOM      1  C5B NHV d          32.516  49.389  -5.144  0.00  0.00     0.065 C 
ATOM      2  C4B NHV d          31.508  49.390  -6.322  0.00  0.00     0.085 C 
ATOM      3  C3B NHV d          31.383  48.011  -7.023  0.00  0.00     0.093 C 
ATOM      4  N1B NHV d          31.904  48.422  -4.206  0.00  0.00    -0.332 N 
ATOM      5  C8B NHV d          31.489  48.562  -2.933  0.00  0.00     0.007 A 
ATOM      6  C7B NHV d          30.820  47.390  -2.630  0.00  0.00     0.069 A 
ATOM      7  N2B NHV d          30.921  46.537  -3.687  0.00  0.00    -0.234 NA
ATOM      8  C1B NHV d          31.545  47.238  -4.658  0.00  0.00     0.138 A 
ATOM      9  C20 NHV d          31.811  46.858  -6.098  0.00  0.00     0.119 C 
ATOM     10  H4  NHV d          33.487  49.000  -5.482  0.00  0.00     0.080 H 
ATOM     11  H5  NHV d          30.518  49.652  -5.920  0.00  0.00     0.090 H 
ATOM     12  H7  NHV d          32.055  48.010  -7.895  0.00  0.00     0.091 H 
ATOM     13  H10 NHV d          31.646  49.419  -2.279  0.00  0.00     0.114 H 
ATOM     14  H19 NHV d          32.897  46.750  -6.230  0.00  0.00     0.099 H 
ENDROOT
BRANCH   6  15
ATOM     15  C7  NHV d          30.208  47.076  -1.303  0.00  0.00     0.034 C 
ATOM     16  H11 NHV d          30.401  47.911  -0.614  0.00  0.00     0.073 H 
ATOM     17  H12 NHV d          30.668  46.158  -0.906  0.00  0.00     0.073 H 
BRANCH  15  18
ATOM     18  N1  NHV d          28.769  46.875  -1.414  0.00  0.00    -0.384 N 
ATOM     19  H13 NHV d          28.384  45.981  -1.077  0.00  0.00     0.160 HD
BRANCH  18  20
ATOM     20  C1  NHV d          27.883  47.795  -1.936  0.00  0.00     0.028 A 
ATOM     21  C6  NHV d          27.520  47.788  -3.291  0.00  0.00    -0.058 A 
ATOM     22  C5  NHV d          26.605  48.757  -3.780  0.00  0.00    -0.081 A 
ATOM     23  H14 NHV d          27.938  47.046  -3.963  0.00  0.00     0.086 H 
ATOM     24  C4  NHV d          26.037  49.735  -2.938  0.00  0.00    -0.083 A 
ATOM     25  H15 NHV d          26.334  48.745  -4.829  0.00  0.00     0.083 H 
ATOM     26  C3  NHV d          26.401  49.755  -1.574  0.00  0.00    -0.081 A 
ATOM     27  H16 NHV d          25.334  50.459  -3.332  0.00  0.00     0.083 H 
ATOM     28  C2  NHV d          27.318  48.788  -1.098  0.00  0.00    -0.058 A 
ATOM     29  H17 NHV d          25.984  50.497  -0.904  0.00  0.00     0.083 H 
ATOM     30  H18 NHV d          27.599  48.808  -0.052  0.00  0.00     0.086 H 
ENDBRANCH  18  20
ENDBRANCH  15  18
ENDBRANCH   6  15
BRANCH   1  31
ATOM     31  C6B NHV d          32.759  50.806  -4.583  0.00  0.00     0.038 C 
ATOM     32  H2  NHV d          33.336  51.392  -5.314  0.00  0.00     0.077 H 
ATOM     33  H3  NHV d          31.790  51.296  -4.403  0.00  0.00     0.077 H 
BRANCH  31  34
ATOM     34  O6B NHV d          33.482  50.739  -3.365  0.00  0.00    -0.399 OA
ATOM     35  H1  NHV d          34.315  50.307  -3.516  0.00  0.00     0.209 HD
ENDBRANCH  31  34
ENDBRANCH   1  31
BRANCH   9  36
ATOM     36  O2B NHV d          31.244  45.548  -6.318  0.00  0.00    -0.385 OA
ATOM     37  H9  NHV d          30.673  45.326  -5.592  0.00  0.00     0.210 HD
ENDBRANCH   9  36
BRANCH   2  38
ATOM     38  O4B NHV d          31.892  50.391  -7.268  0.00  0.00    -0.391 OA
ATOM     39  H6  NHV d          31.861  51.246  -6.854  0.00  0.00     0.210 HD
ENDBRANCH   2  38
BRANCH   3  40
ATOM     40  O3B NHV d          30.042  47.826  -7.491  0.00  0.00    -0.390 OA
ATOM     41  H8  NHV d          29.434  48.189  -6.858  0.00  0.00     0.210 HD
ENDBRANCH   3  40
TORSDOF 8
ENDMDL
MODEL 3
REMARK VINA RESULT:      -6.5      2.012      2.521
REMARK  8 active torsions:
REMARK  status: ('A' for Active; 'I' for Inactive)
REMARK    1  A    between atoms: O6B_1  and  C6B_2 
REMARK    2  A    between atoms: C6B_2  and  C5B_3 
REMARK    3  A    between atoms: C4B_4  and  O4B_5 
REMARK    4  A    between atoms: C3B_6  and  O3B_7 
REMARK    5  A    between atoms: C20_22  and  O2B_8 
REMARK    6  A    between atoms: C7B_11  and  C7_14 
REMARK    7  A    between atoms: C7_14  and  N1_15 
REMARK    8  A    between atoms: N1_15  and  C1_16 
ROOT
ATOM      1  C5B NHV d          28.227  47.341  -1.910  0.00  0.00     0.065 C 
ATOM      2  C4B NHV d          29.041  48.632  -1.636  0.00  0.00     0.085 C 
ATOM      3  C3B NHV d          30.567  48.379  -1.510  0.00  0.00     0.093 C 
ATOM      4  N1B NHV d          28.757  46.904  -3.221  0.00  0.00    -0.332 N 
ATOM      5  C8B NHV d          28.145  46.703  -4.402  0.00  0.00     0.007 A 
ATOM      6  C7B NHV d          29.161  46.499  -5.317  0.00  0.00     0.069 A 
ATOM      7  N2B NHV d          30.354  46.494  -4.659  0.00  0.00    -0.234 NA
ATOM      8  C1B NHV d          30.061  46.807  -3.378  0.00  0.00     0.138 A 
ATOM      9  C20 NHV d          30.993  47.081  -2.219  0.00  0.00     0.119 C 
ATOM     10  H4  NHV d          28.465  46.581  -1.152  0.00  0.00     0.080 H 
ATOM     11  H5  NHV d          28.885  49.315  -2.484  0.00  0.00     0.090 H 
ATOM     12  H7  NHV d          30.807  48.273  -0.441  0.00  0.00     0.091 H 
ATOM     13  H10 NHV d          27.073  46.701  -4.597  0.00  0.00     0.114 H 
ATOM     14  H19 NHV d          30.867  46.276  -1.480  0.00  0.00     0.099 H 
ENDROOT
BRANCH   6  15
ATOM     15  C7  NHV d          28.957  46.201  -6.767  0.00  0.00     0.034 C 
ATOM     16  H11 NHV d          28.310  46.975  -7.204  0.00  0.00     0.073 H 
ATOM     17  H12 NHV d          28.472  45.218  -6.865  0.00  0.00     0.073 H 
BRANCH  15  18
ATOM     18  N1  NHV d          30.223  46.179  -7.490  0.00  0.00    -0.384 N 
ATOM     19  H13 NHV d          30.422  45.357  -8.078  0.00  0.00     0.160 HD
BRANCH  18  20
ATOM     20  C1  NHV d          31.173  47.178  -7.446  0.00  0.00     0.028 A 
ATOM     21  C6  NHV d          32.543  46.894  -7.349  0.00  0.00    -0.058 A 
ATOM     22  C5  NHV d          33.481  47.960  -7.307  0.00  0.00    -0.081 A 
ATOM     23  H14 NHV d          32.884  45.866  -7.307  0.00  0.00     0.086 H 
ATOM     24  C4  NHV d          33.077  49.309  -7.363  0.00  0.00    -0.083 A 
ATOM     25  H15 NHV d          34.537  47.730  -7.228  0.00  0.00     0.083 H 
ATOM     26  C3  NHV d          31.700  49.605  -7.454  0.00  0.00    -0.081 A 
ATOM     27  H16 NHV d          33.812  50.105  -7.338  0.00  0.00     0.083 H 
ATOM     28  C2  NHV d          30.773  48.537  -7.491  0.00  0.00    -0.058 A 
ATOM     29  H17 NHV d          31.359  50.633  -7.495  0.00  0.00     0.083 H 
ATOM     30  H18 NHV d          29.715  48.766  -7.556  0.00  0.00     0.086 H 
ENDBRANCH  18  20
ENDBRANCH  15  18
ENDBRANCH   6  15
BRANCH   1  31
ATOM     31  C6B NHV d          26.705  47.588  -1.849  0.00  0.00     0.038 C 
ATOM     32  H2  NHV d          26.204  46.944  -2.587  0.00  0.00     0.077 H 
ATOM     33  H3  NHV d          26.338  47.344  -0.841  0.00  0.00     0.077 H 
BRANCH  31  34
ATOM     34  O6B NHV d          26.412  48.945  -2.138  0.00  0.00    -0.399 OA
ATOM     35  H1  NHV d          27.190  49.370  -2.479  0.00  0.00     0.209 HD
ENDBRANCH  31  34
ENDBRANCH   1  31
BRANCH   9  36
ATOM     36  O2B NHV d          32.347  46.973  -2.709  0.00  0.00    -0.385 OA
ATOM     37  H9  NHV d          32.363  47.172  -3.637  0.00  0.00     0.210 HD
ENDBRANCH   9  36
BRANCH   2  38
ATOM     38  O4B NHV d          28.545  49.259  -0.451  0.00  0.00    -0.391 OA
ATOM     39  H6  NHV d          29.248  49.338   0.182  0.00  0.00     0.210 HD
ENDBRANCH   2  38
BRANCH   3  40
ATOM     40  O3B NHV d          31.289  49.506  -2.021  0.00  0.00    -0.390 OA
ATOM     41  H8  NHV d          32.082  49.630  -1.513  0.00  0.00     0.210 HD
ENDBRANCH   3  40
TORSDOF 8
ENDMDL
