MODEL 1
REMARK VINA RESULT:      -9.6      0.000      0.000
REMARK  6 active torsions:
REMARK  status: ('A' for Active; 'I' for Inactive)
REMARK    1  A    between atoms: N16_6  and  C12_7 
REMARK    2  A    between atoms: C9_12  and  N7_13 
REMARK    3  A    between atoms: N7_13  and  C4_14 
REMARK    4  A    between atoms: C6_19  and  C15_20 
REMARK    5  A    between atoms: N25_24  and  C29_25 
REMARK    6  A    between atoms: C26_26  and  C27_27 
ROOT
ATOM      1  C12 Y8L d          22.253  25.724  28.639  0.00  0.00     0.030 A 
ATOM      2  C13 Y8L d          22.870  26.392  27.579  0.00  0.00    -0.055 A 
ATOM      3  C14 Y8L d          23.350  27.701  27.732  0.00  0.00    -0.054 A 
ATOM      4  C11 Y8L d          22.150  26.368  29.869  0.00  0.00    -0.055 A 
ATOM      5  C10 Y8L d          22.660  27.664  30.009  0.00  0.00    -0.054 A 
ATOM      6  C9  Y8L d          23.242  28.360  28.947  0.00  0.00     0.049 A 
ATOM      7  H11 Y8L d          22.979  25.891  26.624  0.00  0.00     0.087 H 
ATOM      8  H12 Y8L d          23.810  28.203  26.889  0.00  0.00     0.087 H 
ATOM      9  H13 Y8L d          21.681  25.870  30.709  0.00  0.00     0.087 H 
ATOM     10  H14 Y8L d          22.602  28.146  30.979  0.00  0.00     0.087 H 
ENDROOT
BRANCH   6  11
ATOM     11  N7  Y8L d          23.709  29.603  29.170  0.00  0.00    -0.188 N 
ATOM     12  H15 Y8L d          23.340  30.085  30.003  0.00  0.00     0.184 HD
BRANCH  11  13
ATOM     13  C4  Y8L d          24.601  30.291  28.433  0.00  0.00     0.727 A 
ATOM     14  N5  Y8L d          25.597  29.733  27.712  0.00  0.00    -0.061 NA
ATOM     15  C6  Y8L d          26.472  30.478  27.005  0.00  0.00     0.096 A 
ATOM     16  C1  Y8L d          26.271  31.858  26.948  0.00  0.00    -0.036 A 
ATOM     17  C2  Y8L d          25.216  32.409  27.655  0.00  0.00     0.023 A 
ATOM     18  H17 Y8L d          26.930  32.487  26.362  0.00  0.00     0.089 H 
ATOM     19  N3  Y8L d          24.415  31.623  28.358  0.00  0.00    -0.075 NA
ATOM     20  H16 Y8L d          25.046  33.479  27.633  0.00  0.00     0.115 H 
BRANCH  15  21
ATOM     21  C15 Y8L d          27.493  29.906  26.228  0.00  0.00     0.062 A 
ATOM     22  S23 Y8L d          29.004  30.624  25.827  0.00  0.00    -0.025 SA
ATOM     23  C24 Y8L d          29.473  29.351  24.814  0.00  0.00     0.291 A 
ATOM     24  O28 Y8L d          30.548  29.257  24.225  0.00  0.00    -0.259 OA
ATOM     25  N25 Y8L d          28.529  28.406  24.812  0.00  0.00    -0.316 N 
ATOM     26  C26 Y8L d          27.447  28.673  25.556  0.00  0.00     0.030 A 
BRANCH  25  27
ATOM     27  C29 Y8L d          28.680  27.146  24.031  0.00  0.00    -0.011 C 
ATOM     28  H18 Y8L d          29.645  27.154  23.504  0.00  0.00     0.057 H 
ATOM     29  H19 Y8L d          27.863  27.069  23.298  0.00  0.00     0.057 H 
ATOM     30  H20 Y8L d          28.643  26.284  24.713  0.00  0.00     0.057 H 
ENDBRANCH  25  27
BRANCH  26  31
ATOM     31  C27 Y8L d          26.286  27.680  25.655  0.00  0.00    -0.036 C 
ATOM     32  H21 Y8L d          25.506  28.092  26.311  0.00  0.00     0.035 H 
ATOM     33  H22 Y8L d          26.650  26.729  26.071  0.00  0.00     0.035 H 
ATOM     34  H23 Y8L d          25.866  27.505  24.653  0.00  0.00     0.035 H 
ENDBRANCH  26  31
ENDBRANCH  15  21
ENDBRANCH  11  13
ENDBRANCH   6  11
BRANCH   1  35
ATOM     35  N16 Y8L d          21.724  24.425  28.470  0.00  0.00    -0.378 N 
ATOM     36  C17 Y8L d          21.387  23.637  29.672  0.00  0.00     0.018 C 
ATOM     37  C18 Y8L d          21.207  22.124  29.443  0.00  0.00     0.096 C 
ATOM     38  H1  Y8L d          22.195  23.775  30.406  0.00  0.00     0.066 H 
ATOM     39  H2  Y8L d          20.446  24.031  30.084  0.00  0.00     0.066 H 
ATOM     40  N19 Y8L d          21.400  21.737  28.037  0.00  0.00    -0.072 N 
ATOM     41  H3  Y8L d          20.190  21.840  29.750  0.00  0.00     0.078 H 
ATOM     42  H4  Y8L d          21.941  21.585  30.061  0.00  0.00     0.078 H 
ATOM     43  C20 Y8L d          20.606  22.626  27.201  0.00  0.00     0.096 C 
ATOM     44  H5  Y8L d          21.099  20.784  27.902  0.00  0.00     0.277 HD
ATOM     45  H6  Y8L d          22.374  21.818  27.792  0.00  0.00     0.277 HD
ATOM     46  C21 Y8L d          21.328  23.972  27.125  0.00  0.00     0.018 C 
ATOM     47  H7  Y8L d          19.609  22.763  27.644  0.00  0.00     0.078 H 
ATOM     48  H8  Y8L d          20.505  22.199  26.192  0.00  0.00     0.078 H 
ATOM     49  H9  Y8L d          20.655  24.718  26.677  0.00  0.00     0.066 H 
ATOM     50  H10 Y8L d          22.227  23.865  26.500  0.00  0.00     0.066 H 
ENDBRANCH   1  35
TORSDOF 6
ENDMDL
