MODEL 1
REMARK VINA RESULT:      -9.1      0.000      0.000
REMARK  6 active torsions:
REMARK  status: ('A' for Active; 'I' for Inactive)
REMARK    1  A    between atoms: N16_6  and  C12_7 
REMARK    2  A    between atoms: C9_12  and  N7_13 
REMARK    3  A    between atoms: N7_13  and  C4_14 
REMARK    4  A    between atoms: C6_19  and  C15_20 
REMARK    5  A    between atoms: N25_24  and  C29_25 
REMARK    6  A    between atoms: C26_26  and  C27_27 
ROOT
ATOM      1  C12 Y8L d          21.838  25.580  28.667  0.00  0.00     0.030 A 
ATOM      2  C13 Y8L d          21.985  26.085  29.961  0.00  0.00    -0.055 A 
ATOM      3  C14 Y8L d          22.495  27.372  30.180  0.00  0.00    -0.054 A 
ATOM      4  C11 Y8L d          22.177  26.391  27.588  0.00  0.00    -0.055 A 
ATOM      5  C10 Y8L d          22.659  27.684  27.826  0.00  0.00    -0.054 A 
ATOM      6  C9  Y8L d          22.850  28.187  29.115  0.00  0.00     0.049 A 
ATOM      7  H11 Y8L d          21.699  25.473  30.809  0.00  0.00     0.087 H 
ATOM      8  H12 Y8L d          22.614  27.735  31.194  0.00  0.00     0.087 H 
ATOM      9  H13 Y8L d          22.069  26.025  26.573  0.00  0.00     0.087 H 
ATOM     10  H14 Y8L d          22.893  28.318  26.978  0.00  0.00     0.087 H 
ENDROOT
BRANCH   6  11
ATOM     11  N7  Y8L d          23.317  29.443  29.254  0.00  0.00    -0.188 N 
ATOM     12  H15 Y8L d          22.853  30.024  29.968  0.00  0.00     0.184 HD
BRANCH  11  13
ATOM     13  C4  Y8L d          24.317  30.029  28.569  0.00  0.00     0.727 A 
ATOM     14  N5  Y8L d          25.232  29.368  27.828  0.00  0.00    -0.061 NA
ATOM     15  C6  Y8L d          26.222  30.011  27.176  0.00  0.00     0.096 A 
ATOM     16  C1  Y8L d          26.232  31.406  27.199  0.00  0.00    -0.036 A 
ATOM     17  C2  Y8L d          25.259  32.070  27.925  0.00  0.00     0.023 A 
ATOM     18  H17 Y8L d          26.990  31.961  26.658  0.00  0.00     0.089 H 
ATOM     19  N3  Y8L d          24.335  31.375  28.571  0.00  0.00    -0.075 NA
ATOM     20  H16 Y8L d          25.252  33.153  27.965  0.00  0.00     0.115 H 
BRANCH  15  21
ATOM     21  C15 Y8L d          27.161  29.336  26.378  0.00  0.00     0.062 A 
ATOM     22  S23 Y8L d          28.565  30.013  25.647  0.00  0.00    -0.025 SA
ATOM     23  C24 Y8L d          28.964  28.589  24.821  0.00  0.00     0.291 A 
ATOM     24  O28 Y8L d          29.954  28.421  24.114  0.00  0.00    -0.259 OA
ATOM     25  N25 Y8L d          28.081  27.633  25.120  0.00  0.00    -0.316 N 
ATOM     26  C26 Y8L d          27.094  28.000  25.949  0.00  0.00     0.030 A 
BRANCH  25  27
ATOM     27  C29 Y8L d          28.195  26.256  24.562  0.00  0.00    -0.011 C 
ATOM     28  H18 Y8L d          28.689  26.298  23.580  0.00  0.00     0.057 H 
ATOM     29  H19 Y8L d          27.190  25.822  24.448  0.00  0.00     0.057 H 
ATOM     30  H20 Y8L d          28.789  25.632  25.245  0.00  0.00     0.057 H 
ENDBRANCH  25  27
BRANCH  26  31
ATOM     31  C27 Y8L d          26.012  27.008  26.385  0.00  0.00    -0.036 C 
ATOM     32  H21 Y8L d          26.410  25.985  26.335  0.00  0.00     0.035 H 
ATOM     33  H22 Y8L d          25.143  27.096  25.715  0.00  0.00     0.035 H 
ATOM     34  H23 Y8L d          25.703  27.232  27.417  0.00  0.00     0.035 H 
ENDBRANCH  26  31
ENDBRANCH  15  21
ENDBRANCH  11  13
ENDBRANCH   6  11
BRANCH   1  35
ATOM     35  N16 Y8L d          21.371  24.264  28.449  0.00  0.00    -0.378 N 
ATOM     36  C17 Y8L d          21.597  23.644  27.129  0.00  0.00     0.018 C 
ATOM     37  C18 Y8L d          20.734  22.405  26.823  0.00  0.00     0.096 C 
ATOM     38  H1  Y8L d          21.389  24.401  26.358  0.00  0.00     0.066 H 
ATOM     39  H2  Y8L d          22.654  23.343  27.071  0.00  0.00     0.066 H 
ATOM     40  N19 Y8L d          19.831  22.056  27.931  0.00  0.00    -0.072 N 
ATOM     41  H3  Y8L d          21.400  21.551  26.630  0.00  0.00     0.078 H 
ATOM     42  H4  Y8L d          20.130  22.609  25.927  0.00  0.00     0.078 H 
ATOM     43  C20 Y8L d          20.604  22.030  29.165  0.00  0.00     0.096 C 
ATOM     44  H5  Y8L d          19.424  21.149  27.765  0.00  0.00     0.277 HD
ATOM     45  H6  Y8L d          19.099  22.745  28.002  0.00  0.00     0.277 HD
ATOM     46  C21 Y8L d          20.869  23.475  29.587  0.00  0.00     0.018 C 
ATOM     47  H7  Y8L d          21.558  21.510  28.996  0.00  0.00     0.078 H 
ATOM     48  H8  Y8L d          20.036  21.509  29.950  0.00  0.00     0.078 H 
ATOM     49  H9  Y8L d          21.618  23.485  30.393  0.00  0.00     0.066 H 
ATOM     50  H10 Y8L d          19.932  23.922  29.952  0.00  0.00     0.066 H 
ENDBRANCH   1  35
TORSDOF 6
ENDMDL
MODEL 2
REMARK VINA RESULT:      -8.1      3.824      8.249
REMARK  6 active torsions:
REMARK  status: ('A' for Active; 'I' for Inactive)
REMARK    1  A    between atoms: N16_6  and  C12_7 
REMARK    2  A    between atoms: C9_12  and  N7_13 
REMARK    3  A    between atoms: N7_13  and  C4_14 
REMARK    4  A    between atoms: C6_19  and  C15_20 
REMARK    5  A    between atoms: N25_24  and  C29_25 
REMARK    6  A    between atoms: C26_26  and  C27_27 
ROOT
ATOM      1  C12 Y8L d          25.521  29.052  27.356  0.00  0.00     0.030 A 
ATOM      2  C13 Y8L d          24.668  29.716  28.241  0.00  0.00    -0.055 A 
ATOM      3  C14 Y8L d          23.502  29.100  28.719  0.00  0.00    -0.054 A 
ATOM      4  C11 Y8L d          25.213  27.748  26.979  0.00  0.00    -0.055 A 
ATOM      5  C10 Y8L d          24.059  27.140  27.489  0.00  0.00    -0.054 A 
ATOM      6  C9  Y8L d          23.175  27.806  28.342  0.00  0.00     0.049 A 
ATOM      7  H11 Y8L d          24.911  30.722  28.563  0.00  0.00     0.087 H 
ATOM      8  H12 Y8L d          22.849  29.642  29.393  0.00  0.00     0.087 H 
ATOM      9  H13 Y8L d          25.860  27.208  26.297  0.00  0.00     0.087 H 
ATOM     10  H14 Y8L d          23.843  26.114  27.212  0.00  0.00     0.087 H 
ENDROOT
BRANCH   6  11
ATOM     11  N7  Y8L d          22.090  27.146  28.787  0.00  0.00    -0.188 N 
ATOM     12  H15 Y8L d          21.302  27.729  29.106  0.00  0.00     0.184 HD
BRANCH  11  13
ATOM     13  C4  Y8L d          21.912  25.814  28.865  0.00  0.00     0.727 A 
ATOM     14  N5  Y8L d          21.606  25.016  27.820  0.00  0.00    -0.061 NA
ATOM     15  C6  Y8L d          21.424  23.687  27.964  0.00  0.00     0.096 A 
ATOM     16  C1  Y8L d          21.658  23.120  29.217  0.00  0.00    -0.036 A 
ATOM     17  C2  Y8L d          22.018  23.946  30.268  0.00  0.00     0.023 A 
ATOM     18  H17 Y8L d          21.558  22.051  29.366  0.00  0.00     0.089 H 
ATOM     19  N3  Y8L d          22.145  25.248  30.065  0.00  0.00    -0.075 NA
ATOM     20  H16 Y8L d          22.195  23.529  31.252  0.00  0.00     0.115 H 
BRANCH  15  21
ATOM     21  C15 Y8L d          21.135  22.844  26.878  0.00  0.00     0.062 A 
ATOM     22  S23 Y8L d          19.581  22.282  26.399  0.00  0.00    -0.025 SA
ATOM     23  C24 Y8L d          20.191  21.281  25.177  0.00  0.00     0.291 A 
ATOM     24  O28 Y8L d          19.521  20.602  24.401  0.00  0.00    -0.259 OA
ATOM     25  N25 Y8L d          21.519  21.400  25.119  0.00  0.00    -0.316 N 
ATOM     26  C26 Y8L d          22.063  22.227  26.022  0.00  0.00     0.030 A 
BRANCH  25  27
ATOM     27  C29 Y8L d          22.332  20.657  24.114  0.00  0.00    -0.011 C 
ATOM     28  H18 Y8L d          23.269  20.317  24.579  0.00  0.00     0.057 H 
ATOM     29  H19 Y8L d          22.563  21.320  23.267  0.00  0.00     0.057 H 
ATOM     30  H20 Y8L d          21.764  19.787  23.754  0.00  0.00     0.057 H 
ENDBRANCH  25  27
BRANCH  26  31
ATOM     31  C27 Y8L d          23.574  22.467  26.073  0.00  0.00    -0.036 C 
ATOM     32  H21 Y8L d          23.987  22.423  25.054  0.00  0.00     0.035 H 
ATOM     33  H22 Y8L d          24.048  21.693  26.694  0.00  0.00     0.035 H 
ATOM     34  H23 Y8L d          23.774  23.459  26.506  0.00  0.00     0.035 H 
ENDBRANCH  26  31
ENDBRANCH  15  21
ENDBRANCH  11  13
ENDBRANCH   6  11
BRANCH   1  35
ATOM     35  N16 Y8L d          26.668  29.691  26.835  0.00  0.00    -0.378 N 
ATOM     36  C17 Y8L d          27.491  28.970  25.845  0.00  0.00     0.018 C 
ATOM     37  C18 Y8L d          28.908  29.532  25.626  0.00  0.00     0.096 C 
ATOM     38  H1  Y8L d          27.587  27.926  26.179  0.00  0.00     0.066 H 
ATOM     39  H2  Y8L d          26.963  28.997  24.880  0.00  0.00     0.066 H 
ATOM     40  N19 Y8L d          29.183  30.714  26.456  0.00  0.00    -0.072 N 
ATOM     41  H3  Y8L d          29.017  29.812  24.568  0.00  0.00     0.078 H 
ATOM     42  H4  Y8L d          29.640  28.748  25.876  0.00  0.00     0.078 H 
ATOM     43  C20 Y8L d          28.076  31.649  26.308  0.00  0.00     0.096 C 
ATOM     44  H5  Y8L d          30.040  31.151  26.154  0.00  0.00     0.277 HD
ATOM     45  H6  Y8L d          29.270  30.439  27.422  0.00  0.00     0.277 HD
ATOM     46  C21 Y8L d          26.897  31.118  27.124  0.00  0.00     0.018 C 
ATOM     47  H7  Y8L d          27.792  31.725  25.248  0.00  0.00     0.078 H 
ATOM     48  H8  Y8L d          28.372  32.641  26.681  0.00  0.00     0.078 H 
ATOM     49  H9  Y8L d          25.992  31.688  26.865  0.00  0.00     0.066 H 
ATOM     50  H10 Y8L d          27.114  31.240  28.195  0.00  0.00     0.066 H 
ENDBRANCH   1  35
TORSDOF 6
ENDMDL
MODEL 3
REMARK VINA RESULT:      -7.7      1.389      2.229
REMARK  6 active torsions:
REMARK  status: ('A' for Active; 'I' for Inactive)
REMARK    1  A    between atoms: N16_6  and  C12_7 
REMARK    2  A    between atoms: C9_12  and  N7_13 
REMARK    3  A    between atoms: N7_13  and  C4_14 
REMARK    4  A    between atoms: C6_19  and  C15_20 
REMARK    5  A    between atoms: N25_24  and  C29_25 
REMARK    6  A    between atoms: C26_26  and  C27_27 
ROOT
ATOM      1  C12 Y8L d          21.965  25.078  29.256  0.00  0.00     0.030 A 
ATOM      2  C13 Y8L d          22.399  25.522  28.005  0.00  0.00    -0.055 A 
ATOM      3  C14 Y8L d          22.649  26.881  27.768  0.00  0.00    -0.054 A 
ATOM      4  C11 Y8L d          21.815  26.007  30.282  0.00  0.00    -0.055 A 
ATOM      5  C10 Y8L d          22.095  27.356  30.033  0.00  0.00    -0.054 A 
ATOM      6  C9  Y8L d          22.490  27.820  28.776  0.00  0.00     0.049 A 
ATOM      7  H11 Y8L d          22.546  24.805  27.205  0.00  0.00     0.087 H 
ATOM      8  H12 Y8L d          22.970  27.202  26.783  0.00  0.00     0.087 H 
ATOM      9  H13 Y8L d          21.484  25.688  31.264  0.00  0.00     0.087 H 
ATOM     10  H14 Y8L d          22.003  28.067  30.846  0.00  0.00     0.087 H 
ENDROOT
BRANCH   6  11
ATOM     11  N7  Y8L d          22.742  29.134  28.625  0.00  0.00    -0.188 N 
ATOM     12  H15 Y8L d          21.924  29.761  28.659  0.00  0.00     0.184 HD
BRANCH  11  13
ATOM     13  C4  Y8L d          23.936  29.726  28.434  0.00  0.00     0.727 A 
ATOM     14  N5  Y8L d          24.854  29.332  27.525  0.00  0.00    -0.061 NA
ATOM     15  C6  Y8L d          26.041  29.957  27.392  0.00  0.00     0.096 A 
ATOM     16  C1  Y8L d          26.276  31.101  28.155  0.00  0.00    -0.036 A 
ATOM     17  C2  Y8L d          25.305  31.520  29.048  0.00  0.00     0.023 A 
ATOM     18  H17 Y8L d          27.203  31.653  28.051  0.00  0.00     0.089 H 
ATOM     19  N3  Y8L d          24.174  30.839  29.154  0.00  0.00    -0.075 NA
ATOM     20  H16 Y8L d          25.469  32.401  29.658  0.00  0.00     0.115 H 
BRANCH  15  21
ATOM     21  C15 Y8L d          26.990  29.574  26.429  0.00  0.00     0.062 A 
ATOM     22  S23 Y8L d          27.217  27.996  25.779  0.00  0.00    -0.025 SA
ATOM     23  C24 Y8L d          28.577  28.438  24.874  0.00  0.00     0.291 A 
ATOM     24  O28 Y8L d          29.206  27.703  24.116  0.00  0.00    -0.259 OA
ATOM     25  N25 Y8L d          28.823  29.740  25.036  0.00  0.00    -0.316 N 
ATOM     26  C26 Y8L d          27.995  30.382  25.870  0.00  0.00     0.030 A 
BRANCH  25  27
ATOM     27  C29 Y8L d          29.948  30.421  24.333  0.00  0.00    -0.011 C 
ATOM     28  H18 Y8L d          29.652  31.450  24.080  0.00  0.00     0.057 H 
ATOM     29  H19 Y8L d          30.190  29.871  23.412  0.00  0.00     0.057 H 
ATOM     30  H20 Y8L d          30.830  30.445  24.990  0.00  0.00     0.057 H 
ENDBRANCH  25  27
BRANCH  26  31
ATOM     31  C27 Y8L d          28.151  31.879  26.150  0.00  0.00    -0.036 C 
ATOM     32  H21 Y8L d          28.804  32.023  27.023  0.00  0.00     0.035 H 
ATOM     33  H22 Y8L d          27.164  32.319  26.355  0.00  0.00     0.035 H 
ATOM     34  H23 Y8L d          28.598  32.372  25.274  0.00  0.00     0.035 H 
ENDBRANCH  26  31
ENDBRANCH  15  21
ENDBRANCH  11  13
ENDBRANCH   6  11
BRANCH   1  35
ATOM     35  N16 Y8L d          21.665  23.716  29.480  0.00  0.00    -0.378 N 
ATOM     36  C17 Y8L d          22.417  22.989  30.522  0.00  0.00     0.018 C 
ATOM     37  C18 Y8L d          22.338  21.452  30.444  0.00  0.00     0.096 C 
ATOM     38  H1  Y8L d          23.475  23.279  30.442  0.00  0.00     0.066 H 
ATOM     39  H2  Y8L d          22.025  23.299  31.502  0.00  0.00     0.066 H 
ATOM     40  N19 Y8L d          21.504  20.983  29.327  0.00  0.00    -0.072 N 
ATOM     41  H3  Y8L d          21.913  21.073  31.384  0.00  0.00     0.078 H 
ATOM     42  H4  Y8L d          23.356  21.054  30.315  0.00  0.00     0.078 H 
ATOM     43  C20 Y8L d          20.239  21.704  29.363  0.00  0.00     0.096 C 
ATOM     44  H5  Y8L d          21.334  19.994  29.421  0.00  0.00     0.277 HD
ATOM     45  H6  Y8L d          21.974  21.162  28.453  0.00  0.00     0.277 HD
ATOM     46  C21 Y8L d          20.485  23.117  28.831  0.00  0.00     0.018 C 
ATOM     47  H7  Y8L d          19.867  21.754  30.396  0.00  0.00     0.078 H 
ATOM     48  H8  Y8L d          19.499  21.192  28.730  0.00  0.00     0.078 H 
ATOM     49  H9  Y8L d          19.603  23.740  29.039  0.00  0.00     0.066 H 
ATOM     50  H10 Y8L d          20.655  23.070  27.745  0.00  0.00     0.066 H 
ENDBRANCH   1  35
TORSDOF 6
ENDMDL
MODEL 4
REMARK VINA RESULT:      -7.5      4.162      8.810
REMARK  6 active torsions:
REMARK  status: ('A' for Active; 'I' for Inactive)
REMARK    1  A    between atoms: N16_6  and  C12_7 
REMARK    2  A    between atoms: C9_12  and  N7_13 
REMARK    3  A    between atoms: N7_13  and  C4_14 
REMARK    4  A    between atoms: C6_19  and  C15_20 
REMARK    5  A    between atoms: N25_24  and  C29_25 
REMARK    6  A    between atoms: C26_26  and  C27_27 
ROOT
ATOM      1  C12 Y8L d          26.256  28.624  26.040  0.00  0.00     0.030 A 
ATOM      2  C13 Y8L d          25.103  27.841  25.955  0.00  0.00    -0.055 A 
ATOM      3  C14 Y8L d          25.121  26.595  25.312  0.00  0.00    -0.054 A 
ATOM      4  C11 Y8L d          27.442  28.132  25.502  0.00  0.00    -0.055 A 
ATOM      5  C10 Y8L d          27.447  26.873  24.888  0.00  0.00    -0.054 A 
ATOM      6  C9  Y8L d          26.292  26.097  24.760  0.00  0.00     0.049 A 
ATOM      7  H11 Y8L d          24.179  28.202  26.394  0.00  0.00     0.087 H 
ATOM      8  H12 Y8L d          24.209  26.013  25.247  0.00  0.00     0.087 H 
ATOM      9  H13 Y8L d          28.353  28.717  25.558  0.00  0.00     0.087 H 
ATOM     10  H14 Y8L d          28.381  26.486  24.498  0.00  0.00     0.087 H 
ENDROOT
BRANCH   6  11
ATOM     11  N7  Y8L d          26.386  24.897  24.157  0.00  0.00    -0.188 N 
ATOM     12  H15 Y8L d          27.007  24.848  23.336  0.00  0.00     0.184 HD
BRANCH  11  13
ATOM     13  C4  Y8L d          25.765  23.753  24.501  0.00  0.00     0.727 A 
ATOM     14  N5  Y8L d          24.507  23.676  24.986  0.00  0.00    -0.061 NA
ATOM     15  C6  Y8L d          23.945  22.499  25.328  0.00  0.00     0.096 A 
ATOM     16  C1  Y8L d          24.659  21.327  25.077  0.00  0.00    -0.036 A 
ATOM     17  C2  Y8L d          25.928  21.421  24.535  0.00  0.00     0.023 A 
ATOM     18  H17 Y8L d          24.226  20.359  25.304  0.00  0.00     0.089 H 
ATOM     19  N3  Y8L d          26.436  22.611  24.255  0.00  0.00    -0.075 NA
ATOM     20  H16 Y8L d          26.505  20.524  24.341  0.00  0.00     0.115 H 
BRANCH  15  21
ATOM     21  C15 Y8L d          22.626  22.405  25.805  0.00  0.00     0.062 A 
ATOM     22  S23 Y8L d          21.485  21.171  25.435  0.00  0.00    -0.025 SA
ATOM     23  C24 Y8L d          20.224  21.921  26.281  0.00  0.00     0.291 A 
ATOM     24  O28 Y8L d          19.089  21.474  26.427  0.00  0.00    -0.259 OA
ATOM     25  N25 Y8L d          20.669  23.046  26.847  0.00  0.00    -0.316 N 
ATOM     26  C26 Y8L d          21.954  23.342  26.608  0.00  0.00     0.030 A 
BRANCH  25  27
ATOM     27  C29 Y8L d          19.786  23.907  27.685  0.00  0.00    -0.011 C 
ATOM     28  H18 Y8L d          19.978  24.964  27.452  0.00  0.00     0.057 H 
ATOM     29  H19 Y8L d          19.996  23.721  28.749  0.00  0.00     0.057 H 
ATOM     30  H20 Y8L d          18.734  23.669  27.471  0.00  0.00     0.057 H 
ENDBRANCH  25  27
BRANCH  26  31
ATOM     31  C27 Y8L d          22.604  24.597  27.195  0.00  0.00    -0.036 C 
ATOM     32  H21 Y8L d          22.790  24.446  28.268  0.00  0.00     0.035 H 
ATOM     33  H22 Y8L d          21.931  25.457  27.059  0.00  0.00     0.035 H 
ATOM     34  H23 Y8L d          23.557  24.791  26.682  0.00  0.00     0.035 H 
ENDBRANCH  26  31
ENDBRANCH  15  21
ENDBRANCH  11  13
ENDBRANCH   6  11
BRANCH   1  35
ATOM     35  N16 Y8L d          26.225  29.901  26.643  0.00  0.00    -0.378 N 
ATOM     36  C17 Y8L d          25.539  30.053  27.941  0.00  0.00     0.018 C 
ATOM     37  C18 Y8L d          25.191  31.499  28.341  0.00  0.00     0.096 C 
ATOM     38  H1  Y8L d          24.603  29.478  27.900  0.00  0.00     0.066 H 
ATOM     39  H2  Y8L d          26.193  29.634  28.721  0.00  0.00     0.066 H 
ATOM     40  N19 Y8L d          25.623  32.484  27.337  0.00  0.00    -0.072 N 
ATOM     41  H3  Y8L d          25.686  31.730  29.296  0.00  0.00     0.078 H 
ATOM     42  H4  Y8L d          24.101  31.578  28.465  0.00  0.00     0.078 H 
ATOM     43  C20 Y8L d          27.012  32.214  26.995  0.00  0.00     0.096 C 
ATOM     44  H5  Y8L d          25.541  33.415  27.716  0.00  0.00     0.277 HD
ATOM     45  H6  Y8L d          25.047  32.405  26.513  0.00  0.00     0.277 HD
ATOM     46  C21 Y8L d          27.044  30.989  26.080  0.00  0.00     0.018 C 
ATOM     47  H7  Y8L d          27.589  32.012  27.909  0.00  0.00     0.078 H 
ATOM     48  H8  Y8L d          27.444  33.081  26.472  0.00  0.00     0.078 H 
ATOM     49  H9  Y8L d          28.083  30.642  25.976  0.00  0.00     0.066 H 
ATOM     50  H10 Y8L d          26.648  31.266  25.092  0.00  0.00     0.066 H 
ENDBRANCH   1  35
TORSDOF 6
ENDMDL
MODEL 5
REMARK VINA RESULT:      -7.5      2.235      4.056
REMARK  6 active torsions:
REMARK  status: ('A' for Active; 'I' for Inactive)
REMARK    1  A    between atoms: N16_6  and  C12_7 
REMARK    2  A    between atoms: C9_12  and  N7_13 
REMARK    3  A    between atoms: N7_13  and  C4_14 
REMARK    4  A    between atoms: C6_19  and  C15_20 
REMARK    5  A    between atoms: N25_24  and  C29_25 
REMARK    6  A    between atoms: C26_26  and  C27_27 
ROOT
ATOM      1  C12 Y8L d          21.836  24.516  27.999  0.00  0.00     0.030 A 
ATOM      2  C13 Y8L d          22.209  25.855  27.853  0.00  0.00    -0.055 A 
ATOM      3  C14 Y8L d          23.076  26.256  26.826  0.00  0.00    -0.054 A 
ATOM      4  C11 Y8L d          22.314  23.584  27.082  0.00  0.00    -0.055 A 
ATOM      5  C10 Y8L d          23.157  24.008  26.047  0.00  0.00    -0.054 A 
ATOM      6  C9  Y8L d          23.571  25.336  25.914  0.00  0.00     0.049 A 
ATOM      7  H11 Y8L d          21.822  26.595  28.545  0.00  0.00     0.087 H 
ATOM      8  H12 Y8L d          23.362  27.298  26.745  0.00  0.00     0.087 H 
ATOM      9  H13 Y8L d          22.037  22.540  27.169  0.00  0.00     0.087 H 
ATOM     10  H14 Y8L d          23.500  23.279  25.321  0.00  0.00     0.087 H 
ENDROOT
BRANCH   6  11
ATOM     11  N7  Y8L d          24.380  25.658  24.888  0.00  0.00    -0.188 N 
ATOM     12  H15 Y8L d          24.015  25.468  23.943  0.00  0.00     0.184 HD
BRANCH  11  13
ATOM     13  C4  Y8L d          25.612  26.199  24.950  0.00  0.00     0.727 A 
ATOM     14  N5  Y8L d          25.867  27.511  25.143  0.00  0.00    -0.061 NA
ATOM     15  C6  Y8L d          27.125  27.997  25.180  0.00  0.00     0.096 A 
ATOM     16  C1  Y8L d          28.185  27.092  25.112  0.00  0.00    -0.036 A 
ATOM     17  C2  Y8L d          27.905  25.745  24.963  0.00  0.00     0.023 A 
ATOM     18  H17 Y8L d          29.210  27.439  25.175  0.00  0.00     0.089 H 
ATOM     19  N3  Y8L d          26.646  25.339  24.898  0.00  0.00    -0.075 NA
ATOM     20  H16 Y8L d          28.713  25.025  24.899  0.00  0.00     0.115 H 
BRANCH  15  21
ATOM     21  C15 Y8L d          27.401  29.355  25.410  0.00  0.00     0.062 A 
ATOM     22  S23 Y8L d          28.562  30.321  24.585  0.00  0.00    -0.025 SA
ATOM     23  C24 Y8L d          28.307  31.675  25.569  0.00  0.00     0.291 A 
ATOM     24  O28 Y8L d          28.851  32.770  25.443  0.00  0.00    -0.259 OA
ATOM     25  N25 Y8L d          27.353  31.407  26.464  0.00  0.00    -0.316 N 
ATOM     26  C26 Y8L d          26.847  30.168  26.413  0.00  0.00     0.030 A 
BRANCH  25  27
ATOM     27  C29 Y8L d          26.891  32.426  27.449  0.00  0.00    -0.011 C 
ATOM     28  H18 Y8L d          27.558  32.419  28.324  0.00  0.00     0.057 H 
ATOM     29  H19 Y8L d          25.865  32.189  27.768  0.00  0.00     0.057 H 
ATOM     30  H20 Y8L d          26.910  33.422  26.983  0.00  0.00     0.057 H 
ENDBRANCH  25  27
BRANCH  26  31
ATOM     31  C27 Y8L d          25.743  29.719  27.373  0.00  0.00    -0.036 C 
ATOM     32  H21 Y8L d          25.202  28.866  26.938  0.00  0.00     0.035 H 
ATOM     33  H22 Y8L d          25.041  30.550  27.540  0.00  0.00     0.035 H 
ATOM     34  H23 Y8L d          26.190  29.418  28.332  0.00  0.00     0.035 H 
ENDBRANCH  26  31
ENDBRANCH  15  21
ENDBRANCH  11  13
ENDBRANCH   6  11
BRANCH   1  35
ATOM     35  N16 Y8L d          21.004  24.105  29.063  0.00  0.00    -0.378 N 
ATOM     36  C17 Y8L d          21.505  23.075  29.995  0.00  0.00     0.018 C 
ATOM     37  C18 Y8L d          20.433  22.391  30.864  0.00  0.00     0.096 C 
ATOM     38  H1  Y8L d          22.008  22.298  29.402  0.00  0.00     0.066 H 
ATOM     39  H2  Y8L d          22.233  23.552  30.668  0.00  0.00     0.066 H 
ATOM     40  N19 Y8L d          19.080  22.907  30.606  0.00  0.00    -0.072 N 
ATOM     41  H3  Y8L d          20.677  22.560  31.923  0.00  0.00     0.078 H 
ATOM     42  H4  Y8L d          20.444  21.311  30.652  0.00  0.00     0.078 H 
ATOM     43  C20 Y8L d          19.126  24.362  30.645  0.00  0.00     0.096 C 
ATOM     44  H5  Y8L d          18.445  22.568  31.312  0.00  0.00     0.277 HD
ATOM     45  H6  Y8L d          18.766  22.601  29.698  0.00  0.00     0.277 HD
ATOM     46  C21 Y8L d          19.764  24.850  29.344  0.00  0.00     0.018 C 
ATOM     47  H7  Y8L d          19.730  24.693  31.502  0.00  0.00     0.078 H 
ATOM     48  H8  Y8L d          18.107  24.766  30.736  0.00  0.00     0.078 H 
ATOM     49  H9  Y8L d          19.999  25.921  29.435  0.00  0.00     0.066 H 
ATOM     50  H10 Y8L d          19.056  24.699  28.515  0.00  0.00     0.066 H 
ENDBRANCH   1  35
TORSDOF 6
ENDMDL
MODEL 6
REMARK VINA RESULT:      -7.3      2.525      5.013
REMARK  6 active torsions:
REMARK  status: ('A' for Active; 'I' for Inactive)
REMARK    1  A    between atoms: N16_6  and  C12_7 
REMARK    2  A    between atoms: C9_12  and  N7_13 
REMARK    3  A    between atoms: N7_13  and  C4_14 
REMARK    4  A    between atoms: C6_19  and  C15_20 
REMARK    5  A    between atoms: N25_24  and  C29_25 
REMARK    6  A    between atoms: C26_26  and  C27_27 
ROOT
ATOM      1  C12 Y8L d          23.940  23.242  25.251  0.00  0.00     0.030 A 
ATOM      2  C13 Y8L d          23.916  24.639  25.278  0.00  0.00    -0.055 A 
ATOM      3  C14 Y8L d          25.049  25.387  24.930  0.00  0.00    -0.054 A 
ATOM      4  C11 Y8L d          25.104  22.600  24.839  0.00  0.00    -0.055 A 
ATOM      5  C10 Y8L d          26.217  23.365  24.469  0.00  0.00    -0.054 A 
ATOM      6  C9  Y8L d          26.221  24.761  24.531  0.00  0.00     0.049 A 
ATOM      7  H11 Y8L d          23.007  25.151  25.571  0.00  0.00     0.087 H 
ATOM      8  H12 Y8L d          25.009  26.469  24.974  0.00  0.00     0.087 H 
ATOM      9  H13 Y8L d          25.148  21.517  24.804  0.00  0.00     0.087 H 
ATOM     10  H14 Y8L d          27.109  22.856  24.123  0.00  0.00     0.087 H 
ENDROOT
BRANCH   6  11
ATOM     11  N7  Y8L d          27.333  25.419  24.155  0.00  0.00    -0.188 N 
ATOM     12  H15 Y8L d          27.976  24.907  23.532  0.00  0.00     0.184 HD
BRANCH  11  13
ATOM     13  C4  Y8L d          27.706  26.667  24.497  0.00  0.00     0.727 A 
ATOM     14  N5  Y8L d          26.969  27.510  25.252  0.00  0.00    -0.061 NA
ATOM     15  C6  Y8L d          27.391  28.757  25.547  0.00  0.00     0.096 A 
ATOM     16  C1  Y8L d          28.668  29.139  25.136  0.00  0.00    -0.036 A 
ATOM     17  C2  Y8L d          29.429  28.245  24.403  0.00  0.00     0.023 A 
ATOM     18  H17 Y8L d          29.057  30.119  25.385  0.00  0.00     0.089 H 
ATOM     19  N3  Y8L d          28.941  27.048  24.117  0.00  0.00    -0.075 NA
ATOM     20  H16 Y8L d          30.420  28.523  24.064  0.00  0.00     0.115 H 
BRANCH  15  21
ATOM     21  C15 Y8L d          26.646  29.631  26.357  0.00  0.00     0.062 A 
ATOM     22  S23 Y8L d          26.931  31.312  26.588  0.00  0.00    -0.025 SA
ATOM     23  C24 Y8L d          25.715  31.478  27.755  0.00  0.00     0.291 A 
ATOM     24  O28 Y8L d          25.385  32.525  28.306  0.00  0.00    -0.259 OA
ATOM     25  N25 Y8L d          25.099  30.306  27.932  0.00  0.00    -0.316 N 
ATOM     26  C26 Y8L d          25.577  29.289  27.202  0.00  0.00     0.030 A 
BRANCH  25  27
ATOM     27  C29 Y8L d          23.961  30.153  28.881  0.00  0.00    -0.011 C 
ATOM     28  H18 Y8L d          24.272  29.524  29.729  0.00  0.00     0.057 H 
ATOM     29  H19 Y8L d          23.113  29.678  28.364  0.00  0.00     0.057 H 
ATOM     30  H20 Y8L d          23.656  31.142  29.252  0.00  0.00     0.057 H 
ENDBRANCH  25  27
BRANCH  26  31
ATOM     31  C27 Y8L d          24.967  27.888  27.296  0.00  0.00    -0.036 C 
ATOM     32  H21 Y8L d          23.996  27.944  27.810  0.00  0.00     0.035 H 
ATOM     33  H22 Y8L d          25.643  27.230  27.863  0.00  0.00     0.035 H 
ATOM     34  H23 Y8L d          24.823  27.482  26.284  0.00  0.00     0.035 H 
ENDBRANCH  26  31
ENDBRANCH  15  21
ENDBRANCH  11  13
ENDBRANCH   6  11
BRANCH   1  35
ATOM     35  N16 Y8L d          22.814  22.488  25.649  0.00  0.00    -0.378 N 
ATOM     36  C17 Y8L d          22.017  22.962  26.798  0.00  0.00     0.018 C 
ATOM     37  C18 Y8L d          21.074  21.917  27.425  0.00  0.00     0.096 C 
ATOM     38  H1  Y8L d          22.714  23.301  27.578  0.00  0.00     0.066 H 
ATOM     39  H2  Y8L d          21.404  23.810  26.459  0.00  0.00     0.066 H 
ATOM     40  N19 Y8L d          21.137  20.615  26.744  0.00  0.00    -0.072 N 
ATOM     41  H3  Y8L d          20.042  22.294  27.368  0.00  0.00     0.078 H 
ATOM     42  H4  Y8L d          21.356  21.777  28.480  0.00  0.00     0.078 H 
ATOM     43  C20 Y8L d          21.009  20.838  25.311  0.00  0.00     0.096 C 
ATOM     44  H5  Y8L d          20.385  20.025  27.065  0.00  0.00     0.277 HD
ATOM     45  H6  Y8L d          22.020  20.170  26.942  0.00  0.00     0.277 HD
ATOM     46  C21 Y8L d          22.342  21.384  24.796  0.00  0.00     0.018 C 
ATOM     47  H7  Y8L d          20.209  21.567  25.117  0.00  0.00     0.078 H 
ATOM     48  H8  Y8L d          20.773  19.890  24.804  0.00  0.00     0.078 H 
ATOM     49  H9  Y8L d          22.209  21.753  23.768  0.00  0.00     0.066 H 
ATOM     50  H10 Y8L d          23.089  20.577  24.803  0.00  0.00     0.066 H 
ENDBRANCH   1  35
TORSDOF 6
ENDMDL
MODEL 7
REMARK VINA RESULT:      -7.2      4.072      8.943
REMARK  6 active torsions:
REMARK  status: ('A' for Active; 'I' for Inactive)
REMARK    1  A    between atoms: N16_6  and  C12_7 
REMARK    2  A    between atoms: C9_12  and  N7_13 
REMARK    3  A    between atoms: N7_13  and  C4_14 
REMARK    4  A    between atoms: C6_19  and  C15_20 
REMARK    5  A    between atoms: N25_24  and  C29_25 
REMARK    6  A    between atoms: C26_26  and  C27_27 
ROOT
ATOM      1  C12 Y8L d          26.654  27.935  25.802  0.00  0.00     0.030 A 
ATOM      2  C13 Y8L d          25.296  27.626  25.690  0.00  0.00    -0.055 A 
ATOM      3  C14 Y8L d          24.878  26.362  25.252  0.00  0.00    -0.054 A 
ATOM      4  C11 Y8L d          27.592  26.952  25.502  0.00  0.00    -0.055 A 
ATOM      5  C10 Y8L d          27.154  25.687  25.093  0.00  0.00    -0.054 A 
ATOM      6  C9  Y8L d          25.801  25.376  24.937  0.00  0.00     0.049 A 
ATOM      7  H11 Y8L d          24.555  28.375  25.945  0.00  0.00     0.087 H 
ATOM      8  H12 Y8L d          23.818  26.152  25.159  0.00  0.00     0.087 H 
ATOM      9  H13 Y8L d          28.652  27.164  25.586  0.00  0.00     0.087 H 
ATOM     10  H14 Y8L d          27.892  24.919  24.890  0.00  0.00     0.087 H 
ENDROOT
BRANCH   6  11
ATOM     11  N7  Y8L d          25.467  24.133  24.541  0.00  0.00    -0.188 N 
ATOM     12  H15 Y8L d          26.101  23.686  23.862  0.00  0.00     0.184 HD
BRANCH  11  13
ATOM     13  C4  Y8L d          24.402  23.405  24.927  0.00  0.00     0.727 A 
ATOM     14  N5  Y8L d          23.639  23.673  26.009  0.00  0.00    -0.061 NA
ATOM     15  C6  Y8L d          22.592  22.895  26.354  0.00  0.00     0.096 A 
ATOM     16  C1  Y8L d          22.241  21.844  25.506  0.00  0.00    -0.036 A 
ATOM     17  C2  Y8L d          23.005  21.613  24.376  0.00  0.00     0.023 A 
ATOM     18  H17 Y8L d          21.384  21.219  25.730  0.00  0.00     0.089 H 
ATOM     19  N3  Y8L d          24.042  22.394  24.114  0.00  0.00    -0.075 NA
ATOM     20  H16 Y8L d          22.756  20.797  23.708  0.00  0.00     0.115 H 
BRANCH  15  21
ATOM     21  C15 Y8L d          21.774  23.181  27.460  0.00  0.00     0.062 A 
ATOM     22  S23 Y8L d          20.866  22.051  28.387  0.00  0.00    -0.025 SA
ATOM     23  C24 Y8L d          20.133  23.243  29.339  0.00  0.00     0.291 A 
ATOM     24  O28 Y8L d          19.357  23.044  30.271  0.00  0.00    -0.259 OA
ATOM     25  N25 Y8L d          20.590  24.447  28.985  0.00  0.00    -0.316 N 
ATOM     26  C26 Y8L d          21.469  24.453  27.973  0.00  0.00     0.030 A 
BRANCH  25  27
ATOM     27  C29 Y8L d          20.144  25.691  29.673  0.00  0.00    -0.011 C 
ATOM     28  H18 Y8L d          20.134  25.526  30.760  0.00  0.00     0.057 H 
ATOM     29  H19 Y8L d          19.131  25.955  29.333  0.00  0.00     0.057 H 
ATOM     30  H20 Y8L d          20.836  26.511  29.434  0.00  0.00     0.057 H 
ENDBRANCH  25  27
BRANCH  26  31
ATOM     31  C27 Y8L d          22.082  25.759  27.461  0.00  0.00    -0.036 C 
ATOM     32  H21 Y8L d          21.384  26.244  26.764  0.00  0.00     0.035 H 
ATOM     33  H22 Y8L d          23.027  25.541  26.941  0.00  0.00     0.035 H 
ATOM     34  H23 Y8L d          22.278  26.431  28.310  0.00  0.00     0.035 H 
ENDBRANCH  26  31
ENDBRANCH  15  21
ENDBRANCH  11  13
ENDBRANCH   6  11
BRANCH   1  35
ATOM     35  N16 Y8L d          27.075  29.225  26.194  0.00  0.00    -0.378 N 
ATOM     36  C17 Y8L d          26.149  30.063  26.980  0.00  0.00     0.018 C 
ATOM     37  C18 Y8L d          26.491  31.564  27.027  0.00  0.00     0.096 C 
ATOM     38  H1  Y8L d          25.144  29.958  26.545  0.00  0.00     0.066 H 
ATOM     39  H2  Y8L d          26.142  29.685  28.013  0.00  0.00     0.066 H 
ATOM     40  N19 Y8L d          27.709  31.892  26.271  0.00  0.00    -0.072 N 
ATOM     41  H3  Y8L d          26.639  31.860  28.076  0.00  0.00     0.078 H 
ATOM     42  H4  Y8L d          25.649  32.131  26.601  0.00  0.00     0.078 H 
ATOM     43  C20 Y8L d          28.761  30.966  26.668  0.00  0.00     0.096 C 
ATOM     44  H5  Y8L d          27.994  32.837  26.475  0.00  0.00     0.277 HD
ATOM     45  H6  Y8L d          27.531  31.801  25.283  0.00  0.00     0.277 HD
ATOM     46  C21 Y8L d          28.482  29.619  25.999  0.00  0.00     0.018 C 
ATOM     47  H7  Y8L d          28.760  30.846  27.761  0.00  0.00     0.078 H 
ATOM     48  H8  Y8L d          29.739  31.349  26.341  0.00  0.00     0.078 H 
ATOM     49  H9  Y8L d          29.136  28.853  26.442  0.00  0.00     0.066 H 
ATOM     50  H10 Y8L d          28.689  29.701  24.922  0.00  0.00     0.066 H 
ENDBRANCH   1  35
TORSDOF 6
ENDMDL
MODEL 8
REMARK VINA RESULT:      -7.1      1.480      2.108
REMARK  6 active torsions:
REMARK  status: ('A' for Active; 'I' for Inactive)
REMARK    1  A    between atoms: N16_6  and  C12_7 
REMARK    2  A    between atoms: C9_12  and  N7_13 
REMARK    3  A    between atoms: N7_13  and  C4_14 
REMARK    4  A    between atoms: C6_19  and  C15_20 
REMARK    5  A    between atoms: N25_24  and  C29_25 
REMARK    6  A    between atoms: C26_26  and  C27_27 
ROOT
ATOM      1  C12 Y8L d          20.938  24.515  28.532  0.00  0.00     0.030 A 
ATOM      2  C13 Y8L d          20.702  25.086  29.785  0.00  0.00    -0.055 A 
ATOM      3  C14 Y8L d          21.249  26.332  30.125  0.00  0.00    -0.054 A 
ATOM      4  C11 Y8L d          21.701  25.220  27.607  0.00  0.00    -0.055 A 
ATOM      5  C10 Y8L d          22.215  26.475  27.955  0.00  0.00    -0.054 A 
ATOM      6  C9  Y8L d          22.023  27.040  29.218  0.00  0.00     0.049 A 
ATOM      7  H11 Y8L d          20.087  24.558  30.505  0.00  0.00     0.087 H 
ATOM      8  H12 Y8L d          21.064  26.746  31.109  0.00  0.00     0.087 H 
ATOM      9  H13 Y8L d          21.895  24.802  26.625  0.00  0.00     0.087 H 
ATOM     10  H14 Y8L d          22.784  27.030  27.217  0.00  0.00     0.087 H 
ENDROOT
BRANCH   6  11
ATOM     11  N7  Y8L d          22.551  28.253  29.469  0.00  0.00    -0.188 N 
ATOM     12  H15 Y8L d          22.116  28.790  30.234  0.00  0.00     0.184 HD
BRANCH  11  13
ATOM     13  C4  Y8L d          23.581  28.848  28.837  0.00  0.00     0.727 A 
ATOM     14  N5  Y8L d          24.396  28.237  27.950  0.00  0.00    -0.061 NA
ATOM     15  C6  Y8L d          25.423  28.883  27.362  0.00  0.00     0.096 A 
ATOM     16  C1  Y8L d          25.577  30.247  27.612  0.00  0.00    -0.036 A 
ATOM     17  C2  Y8L d          24.703  30.869  28.487  0.00  0.00     0.023 A 
ATOM     18  H17 Y8L d          26.368  30.810  27.130  0.00  0.00     0.089 H 
ATOM     19  N3  Y8L d          23.737  30.167  29.059  0.00  0.00    -0.075 NA
ATOM     20  H16 Y8L d          24.809  31.926  28.704  0.00  0.00     0.115 H 
BRANCH  15  21
ATOM     21  C15 Y8L d          26.258  28.266  26.415  0.00  0.00     0.062 A 
ATOM     22  S23 Y8L d          26.056  26.698  25.734  0.00  0.00    -0.025 SA
ATOM     23  C24 Y8L d          27.514  26.756  24.875  0.00  0.00     0.291 A 
ATOM     24  O28 Y8L d          27.938  25.887  24.117  0.00  0.00    -0.259 OA
ATOM     25  N25 Y8L d          28.108  27.936  25.075  0.00  0.00    -0.316 N 
ATOM     26  C26 Y8L d          27.465  28.770  25.902  0.00  0.00     0.030 A 
BRANCH  25  27
ATOM     27  C29 Y8L d          29.399  28.287  24.419  0.00  0.00    -0.011 C 
ATOM     28  H18 Y8L d          29.692  27.480  23.731  0.00  0.00     0.057 H 
ATOM     29  H19 Y8L d          30.177  28.415  25.186  0.00  0.00     0.057 H 
ATOM     30  H20 Y8L d          29.281  29.224  23.855  0.00  0.00     0.057 H 
ENDBRANCH  25  27
BRANCH  26  31
ATOM     31  C27 Y8L d          28.023  30.160  26.222  0.00  0.00    -0.036 C 
ATOM     32  H21 Y8L d          28.401  30.174  27.255  0.00  0.00     0.035 H 
ATOM     33  H22 Y8L d          27.225  30.910  26.114  0.00  0.00     0.035 H 
ATOM     34  H23 Y8L d          28.843  30.395  25.528  0.00  0.00     0.035 H 
ENDBRANCH  26  31
ENDBRANCH  15  21
ENDBRANCH  11  13
ENDBRANCH   6  11
BRANCH   1  35
ATOM     35  N16 Y8L d          20.429  23.237  28.209  0.00  0.00    -0.378 N 
ATOM     36  C17 Y8L d          19.743  22.462  29.261  0.00  0.00     0.018 C 
ATOM     37  C18 Y8L d          19.577  20.958  28.974  0.00  0.00     0.096 C 
ATOM     38  H1  Y8L d          20.321  22.568  30.192  0.00  0.00     0.066 H 
ATOM     39  H2  Y8L d          18.740  22.893  29.402  0.00  0.00     0.066 H 
ATOM     40  N19 Y8L d          20.137  20.564  27.672  0.00  0.00    -0.072 N 
ATOM     41  H3  Y8L d          18.505  20.713  28.984  0.00  0.00     0.078 H 
ATOM     42  H4  Y8L d          20.091  20.390  29.764  0.00  0.00     0.078 H 
ATOM     43  C20 Y8L d          19.639  21.485  26.659  0.00  0.00     0.096 C 
ATOM     44  H5  Y8L d          19.850  19.624  27.448  0.00  0.00     0.277 HD
ATOM     45  H6  Y8L d          21.144  20.608  27.707  0.00  0.00     0.277 HD
ATOM     46  C21 Y8L d          20.404  22.802  26.801  0.00  0.00     0.018 C 
ATOM     47  H7  Y8L d          18.564  21.660  26.810  0.00  0.00     0.078 H 
ATOM     48  H8  Y8L d          19.805  21.063  25.657  0.00  0.00     0.078 H 
ATOM     49  H9  Y8L d          19.910  23.574  26.193  0.00  0.00     0.066 H 
ATOM     50  H10 Y8L d          21.436  22.661  26.448  0.00  0.00     0.066 H 
ENDBRANCH   1  35
TORSDOF 6
ENDMDL
