MODEL 1
REMARK VINA RESULT:     -10.6      0.000      0.000
REMARK  12 active torsions:
REMARK  status: ('A' for Active; 'I' for Inactive)
REMARK    1  A    between atoms: C6_6  and  O19_13 
REMARK    2  A    between atoms: C10_7  and  C13_10 
REMARK    3  A    between atoms: C11_8  and  C14_11 
REMARK    4  A    between atoms: N12_9  and  C18_12 
REMARK    5  A    between atoms: C18_12  and  C24_18 
REMARK    6  A    between atoms: O19_13  and  C20_14 
REMARK    7  A    between atoms: C28_20  and  O36_25 
REMARK    8  A    between atoms: O36_25  and  C37_26 
REMARK    9  A    between atoms: C37_26  and  C38_27 
REMARK   10  A    between atoms: C37_26  and  C42_28 
REMARK   11  A    between atoms: C51_36  and  O57_39 
REMARK   12  A    between atoms: O57_39  and  C58_40 
ROOT
ATOM      1  C1  C03 d          15.385   4.978  15.700  0.00  0.00    -0.050 A 
ATOM      2  C2  C03 d          14.282   4.907  14.851  0.00  0.00    -0.067 A 
ATOM      3  C3  C03 d          14.538   4.859  13.321  0.00  0.00     0.005 A 
ATOM      4  C4  C03 d          15.775   4.894  12.791  0.00  0.00     0.049 A 
ATOM      5  C5  C03 d          16.904   4.967  13.672  0.00  0.00    -0.024 A 
ATOM      6  C6  C03 d          16.712   5.006  15.132  0.00  0.00     0.080 A 
ATOM      7  C10 C03 d          13.475   4.778  12.365  0.00  0.00     0.031 A 
ATOM      8  C11 C03 d          14.223   4.773  11.161  0.00  0.00     0.022 A 
ATOM      9  N12 C03 d          15.642   4.845  11.387  0.00  0.00    -0.345 N 
ATOM     10  H1  C03 d          15.248   5.011  16.774  0.00  0.00     0.087 H 
ATOM     11  H2  C03 d          13.273   4.887  15.248  0.00  0.00     0.085 H 
ATOM     12  H3  C03 d          17.907   4.993  13.261  0.00  0.00     0.091 H 
ENDROOT
BRANCH   9  13
ATOM     13  C18 C03 d          16.775   4.867  10.415  0.00  0.00     0.025 C 
ATOM     14  H7  C03 d          16.463   4.323   9.512  0.00  0.00     0.072 H 
ATOM     15  H8  C03 d          17.632   4.353  10.875  0.00  0.00     0.072 H 
BRANCH  13  16
ATOM     16  C24 C03 d          17.236   6.295   9.988  0.00  0.00    -0.016 A 
ATOM     17  C27 C03 d          16.476   7.476  10.409  0.00  0.00    -0.041 A 
ATOM     18  C28 C03 d          16.855   8.815  10.045  0.00  0.00     0.070 A 
ATOM     19  H9  C03 d          15.592   7.334  11.020  0.00  0.00     0.088 H 
ATOM     20  C29 C03 d          18.031   8.998   9.226  0.00  0.00    -0.049 A 
ATOM     21  C30 C03 d          18.806   7.872   8.792  0.00  0.00    -0.059 A 
ATOM     22  H10 C03 d          18.332   9.998   8.938  0.00  0.00     0.087 H 
ATOM     23  C31 C03 d          18.418   6.541   9.167  0.00  0.00     0.042 A 
ATOM     24  H11 C03 d          19.686   8.027   8.178  0.00  0.00     0.086 H 
ATOM     25 CL1  C03 d          19.430   5.292   8.589  0.00  0.00    -0.084 Cl
BRANCH  18  26
ATOM     26  O36 C03 d          16.031   9.873  10.545  0.00  0.00    -0.336 OA
BRANCH  26  27
ATOM     27  C37 C03 d          15.329  10.813   9.699  0.00  0.00     0.125 C 
ATOM     28  H12 C03 d          16.052  11.494   9.227  0.00  0.00     0.100 H 
BRANCH  27  29
ATOM     29  C38 C03 d          14.350  11.569  10.609  0.00  0.00    -0.042 C 
ATOM     30  H13 C03 d          13.458  11.854  10.031  0.00  0.00     0.031 H 
ATOM     31  H14 C03 d          14.838  12.475  11.000  0.00  0.00     0.031 H 
ATOM     32  H15 C03 d          14.053  10.922  11.447  0.00  0.00     0.031 H 
ENDBRANCH  27  29
BRANCH  27  33
ATOM     33  C42 C03 d          14.441  10.178   8.631  0.00  0.00     0.203 C 
ATOM     34  O44 C03 d          14.533  10.421   7.483  0.00  0.00    -0.646 OA
ATOM     35  O45 C03 d          13.541   9.323   9.157  0.00  0.00    -0.646 OA
ENDBRANCH  27  33
ENDBRANCH  26  27
ENDBRANCH  18  26
ENDBRANCH  13  16
ENDBRANCH   9  13
BRANCH   8  36
ATOM     36  C14 C03 d          13.623   4.703   9.758  0.00  0.00    -0.036 C 
ATOM     37  H4  C03 d          13.344   5.715   9.429  0.00  0.00     0.035 H 
ATOM     38  H5  C03 d          12.730   4.062   9.773  0.00  0.00     0.035 H 
ATOM     39  H6  C03 d          14.365   4.283   9.064  0.00  0.00     0.035 H 
ENDBRANCH   8  36
BRANCH   7  40
ATOM     40  C13 C03 d          11.979   4.722  12.628  0.00  0.00     0.110 A 
ATOM     41  N46 C03 d          10.932   5.473  12.154  0.00  0.00    -0.126 NA
ATOM     42  O47 C03 d           9.734   5.094  12.676  0.00  0.00    -0.212 OA
ATOM     43  C48 C03 d           9.931   4.058  13.533  0.00  0.00     0.116 A 
ATOM     44  C49 C03 d          11.335   3.793  13.517  0.00  0.00     0.032 A 
ATOM     45  C50 C03 d           9.024   3.334  14.317  0.00  0.00    -0.015 A 
ATOM     46  C53 C03 d          11.809   2.673  14.391  0.00  0.00    -0.065 A 
ATOM     47  C52 C03 d          10.905   1.934  15.187  0.00  0.00    -0.050 A 
ATOM     48  H18 C03 d          12.864   2.426  14.413  0.00  0.00     0.085 H 
ATOM     49  C51 C03 d           9.509   2.245  15.173  0.00  0.00     0.070 A 
ATOM     50  H17 C03 d          11.272   1.127  15.811  0.00  0.00     0.087 H 
ATOM     51  H16 C03 d           7.968   3.577  14.292  0.00  0.00     0.092 H 
BRANCH  49  52
ATOM     52  O57 C03 d           8.552   1.575  15.927  0.00  0.00    -0.356 OA
BRANCH  52  53
ATOM     53  C58 C03 d           8.657   1.562  17.334  0.00  0.00     0.010 C 
ATOM     54  H19 C03 d           9.131   2.495  17.675  0.00  0.00     0.066 H 
ATOM     55  H20 C03 d           9.269   0.704  17.648  0.00  0.00     0.066 H 
ATOM     56  H21 C03 d           7.653   1.478  17.776  0.00  0.00     0.066 H 
ENDBRANCH  52  53
ENDBRANCH  49  52
ENDBRANCH   7  40
BRANCH   6  57
ATOM     57  O19 C03 d          17.858   5.067  15.898  0.00  0.00    -0.255 OA
BRANCH  57  58
ATOM     58  C20 C03 d          18.417   3.943  16.528  0.00  0.00     0.530 C 
ATOM     59  F21 C03 d          19.209   4.400  17.475  0.00  0.00    -0.144 F 
ATOM     60  F22 C03 d          19.134   3.226  15.644  0.00  0.00    -0.144 F 
ATOM     61  F23 C03 d          17.456   3.204  17.070  0.00  0.00    -0.144 F 
ENDBRANCH  57  58
ENDBRANCH   6  57
TORSDOF 12
ENDMDL
