MODEL 1
REMARK VINA RESULT:      -6.8      0.000      0.000
REMARK  19 active torsions:
REMARK  status: ('A' for Active; 'I' for Inactive)
REMARK    1  A    between atoms: NA1_2  and  OA7_3 
REMARK    2  A    between atoms: CA2_4  and  OA2_5 
REMARK    3  A    between atoms: CA3_6  and  OA3_7 
REMARK    4  A    between atoms: CA4_8  and  OA4_9 
REMARK    5  A    between atoms: OA4_9  and  CB1_14 
REMARK    6  A    between atoms: CA5_10  and  CA6_12 
REMARK    7  A    between atoms: CA6_12  and  OA6_13 
REMARK    8  A    between atoms: CB2_15  and  OB2_20 
REMARK    9  A    between atoms: CB3_16  and  OB3_21 
REMARK   10  A    between atoms: CB4_17  and  OB4_22 
REMARK   11  A    between atoms: CB5_18  and  CB6_19 
REMARK   12  A    between atoms: CB6_19  and  OB6_24 
REMARK   13  A    between atoms: OB4_22  and  CD1_25 
REMARK   14  A    between atoms: CD2_26  and  OD2_31 
REMARK   15  A    between atoms: CD3_27  and  OD3_32 
REMARK   16  A    between atoms: CD4_28  and  OD4_33 
REMARK   17  A    between atoms: CD5_29  and  CD6_30 
REMARK   18  A    between atoms: CD6_30  and  OD6_35 
REMARK   19  A    between atoms: OD4_33  and  CD7_36 
ROOT
ATOM      1  CB1 MOL d          12.498  16.586  39.504  0.00  0.00     0.159 C 
ATOM      2  CB2 MOL d          12.447  16.999  37.957  0.00  0.00     0.110 C 
ATOM      3  CB3 MOL d          12.913  15.840  37.002  0.00  0.00     0.092 C 
ATOM      4  CB4 MOL d          14.376  15.467  37.408  0.00  0.00     0.096 C 
ATOM      5  CB5 MOL d          14.329  14.950  38.992  0.00  0.00     0.089 C 
ATOM      6  OB5 MOL d          13.846  16.064  39.841  0.00  0.00    -0.348 OA
ATOM      7  H12 MOL d          12.304  17.473  40.124  0.00  0.00     0.133 H 
ATOM      8  H13 MOL d          13.133  17.846  37.804  0.00  0.00     0.094 H 
ATOM      9  H14 MOL d          12.258  14.963  37.114  0.00  0.00     0.091 H 
ATOM     10  H15 MOL d          15.037  16.341  37.313  0.00  0.00     0.091 H 
ATOM     11  H16 MOL d          13.644  14.093  39.068  0.00  0.00     0.090 H 
ENDROOT
BRANCH   4  12
ATOM     12  OB4 MOL d          14.830  14.425  36.561  0.00  0.00    -0.348 OA
BRANCH  12  13
ATOM     13  CD1 MOL d          16.126  14.755  35.959  0.00  0.00     0.159 C 
ATOM     14  CD2 MOL d          16.136  14.758  34.377  0.00  0.00     0.110 C 
ATOM     15  CD3 MOL d          15.791  13.289  33.875  0.00  0.00     0.092 C 
ATOM     16  H23 MOL d          17.127  15.052  34.001  0.00  0.00     0.094 H 
ATOM     17  CD4 MOL d          16.897  12.315  34.392  0.00  0.00     0.092 C 
ATOM     18  H24 MOL d          14.805  12.982  34.254  0.00  0.00     0.091 H 
ATOM     19  CD5 MOL d          16.908  12.357  36.029  0.00  0.00     0.089 C 
ATOM     20  H25 MOL d          17.877  12.632  34.004  0.00  0.00     0.091 H 
ATOM     21  OD5 MOL d          17.158  13.773  36.459  0.00  0.00    -0.348 OA
ATOM     22  H26 MOL d          15.930  12.026  36.407  0.00  0.00     0.090 H 
ATOM     23  H22 MOL d          16.404  15.765  36.296  0.00  0.00     0.133 H 
BRANCH  14  24
ATOM     24  OD2 MOL d          15.148  15.714  33.943  0.00  0.00    -0.388 OA
ATOM     25  H29 MOL d          15.037  15.649  33.002  0.00  0.00     0.210 HD
ENDBRANCH  14  24
BRANCH  15  26
ATOM     26  OD3 MOL d          15.799  13.263  32.470  0.00  0.00    -0.390 OA
ATOM     27  H30 MOL d          15.135  13.858  32.140  0.00  0.00     0.210 HD
ENDBRANCH  15  26
BRANCH  17  28
ATOM     28  OD4 MOL d          16.619  10.940  33.956  0.00  0.00    -0.385 OA
BRANCH  28  29
ATOM     29  CD7 MOL d          15.215  10.567  33.990  0.00  0.00     0.005 C 
ATOM     30  H32 MOL d          14.660  11.160  33.249  0.00  0.00     0.066 H 
ATOM     31  H33 MOL d          14.809  10.760  34.994  0.00  0.00     0.066 H 
ATOM     32  H34 MOL d          15.114   9.497  33.753  0.00  0.00     0.066 H 
ENDBRANCH  28  29
ENDBRANCH  17  28
BRANCH  19  33
ATOM     33  CD6 MOL d          18.014  11.424  36.602  0.00  0.00     0.043 C 
ATOM     34  H27 MOL d          17.592  10.419  36.750  0.00  0.00     0.078 H 
ATOM     35  H28 MOL d          18.353  11.825  37.569  0.00  0.00     0.078 H 
BRANCH  33  36
ATOM     36  OD6 MOL d          19.138  11.331  35.718  0.00  0.00    -0.398 OA
ATOM     37  H31 MOL d          18.867  11.566  34.839  0.00  0.00     0.209 HD
ENDBRANCH  33  36
ENDBRANCH  19  33
ENDBRANCH  12  13
ENDBRANCH   4  12
BRANCH   3  38
ATOM     38  OB3 MOL d          12.856  16.317  35.635  0.00  0.00    -0.390 OA
ATOM     39  H20 MOL d          13.294  17.159  35.576  0.00  0.00     0.210 HD
ENDBRANCH   3  38
BRANCH   5  40
ATOM     40  CB6 MOL d          15.692  14.548  39.519  0.00  0.00     0.043 C 
ATOM     41  H17 MOL d          16.059  13.682  38.950  0.00  0.00     0.078 H 
ATOM     42  H18 MOL d          15.603  14.277  40.582  0.00  0.00     0.078 H 
BRANCH  40  43
ATOM     43  OB6 MOL d          16.596  15.593  39.390  0.00  0.00    -0.398 OA
ATOM     44  H21 MOL d          16.767  15.970  40.246  0.00  0.00     0.209 HD
ENDBRANCH  40  43
ENDBRANCH   5  40
BRANCH   2  45
ATOM     45  OB2 MOL d          11.102  17.445  37.662  0.00  0.00    -0.388 OA
ATOM     46  H19 MOL d          11.061  18.391  37.730  0.00  0.00     0.210 HD
ENDBRANCH   2  45
BRANCH   1  47
ATOM     47  OA4 MOL d          11.471  15.632  39.737  0.00  0.00    -0.348 OA
BRANCH  47  48
ATOM     48  CA4 MOL d          11.061  15.594  40.998  0.00  0.00     0.090 C 
ATOM     49  CA3 MOL d          12.311  15.447  41.941  0.00  0.00     0.094 C 
ATOM     50  CA2 MOL d          11.949  15.914  43.395  0.00  0.00     0.121 C 
ATOM     51  H4  MOL d          13.104  16.103  41.553  0.00  0.00     0.091 H 
ATOM     52  CA1 MOL d          11.389  17.347  43.326  0.00  0.00     0.159 C 
ATOM     53  H2  MOL d          11.144  15.257  43.756  0.00  0.00     0.099 H 
ATOM     54  NA1 MOL d          11.656  18.178  44.323  0.00  0.00    -0.120 NA
ATOM     55  NA5 MOL d          10.579  17.776  42.229  0.00  0.00    -0.365 N 
ATOM     56  CA5 MOL d          10.323  16.892  41.076  0.00  0.00     0.059 C 
ATOM     57  H8  MOL d          10.167  18.720  42.244  0.00  0.00     0.161 HD
ATOM     58  H7  MOL d          10.566  17.457  40.164  0.00  0.00     0.079 H 
ATOM     59  H6  MOL d          10.378  14.752  41.182  0.00  0.00     0.090 H 
BRANCH  49  60
ATOM     60  OA3 MOL d          12.785  14.208  41.973  0.00  0.00    -0.390 OA
ATOM     61  H5  MOL d          12.530  13.752  41.179  0.00  0.00     0.210 HD
ENDBRANCH  49  60
BRANCH  50  62
ATOM     62  OA2 MOL d          12.953  15.809  44.281  0.00  0.00    -0.385 OA
ATOM     63  H3  MOL d          13.470  16.605  44.267  0.00  0.00     0.210 HD
ENDBRANCH  50  62
BRANCH  54  64
ATOM     64  OA7 MOL d          11.168  19.405  44.242  0.00  0.00    -0.265 OA
ATOM     65  H1  MOL d          11.782  20.015  44.634  0.00  0.00     0.247 HD
ENDBRANCH  54  64
BRANCH  56  66
ATOM     66  CA6 MOL d           8.790  16.589  41.113  0.00  0.00     0.038 C 
ATOM     67  H9  MOL d           8.308  17.066  40.247  0.00  0.00     0.077 H 
ATOM     68  H10 MOL d           8.364  16.998  42.041  0.00  0.00     0.077 H 
BRANCH  66  69
ATOM     69  OA6 MOL d           8.561  15.238  41.069  0.00  0.00    -0.399 OA
ATOM     70  H11 MOL d           7.675  15.079  40.763  0.00  0.00     0.209 HD
ENDBRANCH  66  69
ENDBRANCH  56  66
ENDBRANCH  47  48
ENDBRANCH   1  47
TORSDOF 19
ENDMDL
MODEL 2
REMARK VINA RESULT:      -6.8      1.311      2.487
REMARK  19 active torsions:
REMARK  status: ('A' for Active; 'I' for Inactive)
REMARK    1  A    between atoms: NA1_2  and  OA7_3 
REMARK    2  A    between atoms: CA2_4  and  OA2_5 
REMARK    3  A    between atoms: CA3_6  and  OA3_7 
REMARK    4  A    between atoms: CA4_8  and  OA4_9 
REMARK    5  A    between atoms: OA4_9  and  CB1_14 
REMARK    6  A    between atoms: CA5_10  and  CA6_12 
REMARK    7  A    between atoms: CA6_12  and  OA6_13 
REMARK    8  A    between atoms: CB2_15  and  OB2_20 
REMARK    9  A    between atoms: CB3_16  and  OB3_21 
REMARK   10  A    between atoms: CB4_17  and  OB4_22 
REMARK   11  A    between atoms: CB5_18  and  CB6_19 
REMARK   12  A    between atoms: CB6_19  and  OB6_24 
REMARK   13  A    between atoms: OB4_22  and  CD1_25 
REMARK   14  A    between atoms: CD2_26  and  OD2_31 
REMARK   15  A    between atoms: CD3_27  and  OD3_32 
REMARK   16  A    between atoms: CD4_28  and  OD4_33 
REMARK   17  A    between atoms: CD5_29  and  CD6_30 
REMARK   18  A    between atoms: CD6_30  and  OD6_35 
REMARK   19  A    between atoms: OD4_33  and  CD7_36 
ROOT
ATOM      1  CB1 MOL d          12.610  16.796  39.900  0.00  0.00     0.159 C 
ATOM      2  CB2 MOL d          12.813  17.562  38.507  0.00  0.00     0.110 C 
ATOM      3  CB3 MOL d          13.502  16.665  37.414  0.00  0.00     0.092 C 
ATOM      4  CB4 MOL d          14.888  16.222  37.988  0.00  0.00     0.096 C 
ATOM      5  CB5 MOL d          14.587  15.345  39.374  0.00  0.00     0.089 C 
ATOM      6  OB5 MOL d          13.903  16.224  40.352  0.00  0.00    -0.348 OA
ATOM      7  H12 MOL d          12.262  17.511  40.660  0.00  0.00     0.133 H 
ATOM      8  H13 MOL d          13.469  18.427  38.682  0.00  0.00     0.094 H 
ATOM      9  H14 MOL d          12.885  15.780  37.199  0.00  0.00     0.091 H 
ATOM     10  H15 MOL d          15.507  17.100  38.220  0.00  0.00     0.091 H 
ATOM     11  H16 MOL d          13.946  14.488  39.123  0.00  0.00     0.090 H 
ENDROOT
BRANCH   4  12
ATOM     12  OB4 MOL d          15.539  15.413  37.023  0.00  0.00    -0.348 OA
BRANCH  12  13
ATOM     13  CD1 MOL d          14.885  14.106  36.895  0.00  0.00     0.159 C 
ATOM     14  CD2 MOL d          15.858  12.917  36.520  0.00  0.00     0.110 C 
ATOM     15  CD3 MOL d          16.490  13.222  35.093  0.00  0.00     0.092 C 
ATOM     16  H23 MOL d          15.305  11.967  36.481  0.00  0.00     0.094 H 
ATOM     17  CD4 MOL d          15.336  13.290  34.043  0.00  0.00     0.092 C 
ATOM     18  H24 MOL d          17.039  14.175  35.119  0.00  0.00     0.091 H 
ATOM     19  CD5 MOL d          14.312  14.494  34.469  0.00  0.00     0.089 C 
ATOM     20  H25 MOL d          14.799  12.330  34.026  0.00  0.00     0.091 H 
ATOM     21  OD5 MOL d          13.800  14.207  35.851  0.00  0.00    -0.348 OA
ATOM     22  H26 MOL d          14.855  15.450  34.469  0.00  0.00     0.090 H 
ATOM     23  H22 MOL d          14.424  13.866  37.864  0.00  0.00     0.133 H 
BRANCH  14  24
ATOM     24  OD2 MOL d          16.869  12.849  37.546  0.00  0.00    -0.388 OA
ATOM     25  H29 MOL d          17.542  12.231  37.286  0.00  0.00     0.210 HD
ENDBRANCH  14  24
BRANCH  15  26
ATOM     26  OD3 MOL d          17.356  12.176  34.733  0.00  0.00    -0.390 OA
ATOM     27  H30 MOL d          18.169  12.539  34.401  0.00  0.00     0.210 HD
ENDBRANCH  15  26
BRANCH  17  28
ATOM     28  OD4 MOL d          15.872  13.576  32.705  0.00  0.00    -0.385 OA
BRANCH  28  29
ATOM     29  CD7 MOL d          16.649  14.800  32.613  0.00  0.00     0.005 C 
ATOM     30  H32 MOL d          16.538  15.230  31.606  0.00  0.00     0.066 H 
ATOM     31  H33 MOL d          17.710  14.576  32.801  0.00  0.00     0.066 H 
ATOM     32  H34 MOL d          16.288  15.521  33.362  0.00  0.00     0.066 H 
ENDBRANCH  28  29
ENDBRANCH  17  28
BRANCH  19  33
ATOM     33  CD6 MOL d          13.121  14.590  33.470  0.00  0.00     0.043 C 
ATOM     34  H27 MOL d          13.247  15.491  32.851  0.00  0.00     0.078 H 
ATOM     35  H28 MOL d          12.183  14.665  34.040  0.00  0.00     0.078 H 
BRANCH  33  36
ATOM     36  OD6 MOL d          13.054  13.444  32.615  0.00  0.00    -0.398 OA
ATOM     37  H31 MOL d          13.933  13.190  32.358  0.00  0.00     0.209 HD
ENDBRANCH  33  36
ENDBRANCH  19  33
ENDBRANCH  12  13
ENDBRANCH   4  12
BRANCH   3  38
ATOM     38  OB3 MOL d          13.664  17.451  36.207  0.00  0.00    -0.390 OA
ATOM     39  H20 MOL d          14.561  17.756  36.148  0.00  0.00     0.210 HD
ENDBRANCH   3  38
BRANCH   5  40
ATOM     40  CB6 MOL d          15.855  14.845  40.038  0.00  0.00     0.043 C 
ATOM     41  H17 MOL d          16.030  13.800  39.741  0.00  0.00     0.078 H 
ATOM     42  H18 MOL d          15.736  14.900  41.130  0.00  0.00     0.078 H 
BRANCH  40  43
ATOM     43  OB6 MOL d          16.944  15.615  39.659  0.00  0.00    -0.398 OA
ATOM     44  H21 MOL d          17.417  15.896  40.434  0.00  0.00     0.209 HD
ENDBRANCH  40  43
ENDBRANCH   5  40
BRANCH   2  45
ATOM     45  OB2 MOL d          11.520  18.051  38.079  0.00  0.00    -0.388 OA
ATOM     46  H19 MOL d          10.843  17.677  38.630  0.00  0.00     0.210 HD
ENDBRANCH   2  45
BRANCH   1  47
ATOM     47  OA4 MOL d          11.610  15.804  39.713  0.00  0.00    -0.348 OA
BRANCH  47  48
ATOM     48  CA4 MOL d          10.890  15.569  40.801  0.00  0.00     0.090 C 
ATOM     49  CA3 MOL d          11.855  15.224  41.993  0.00  0.00     0.094 C 
ATOM     50  CA2 MOL d          11.125  15.452  43.364  0.00  0.00     0.121 C 
ATOM     51  H4  MOL d          12.714  15.909  41.939  0.00  0.00     0.091 H 
ATOM     52  CA1 MOL d          10.586  16.895  43.400  0.00  0.00     0.159 C 
ATOM     53  H2  MOL d          10.262  14.772  43.389  0.00  0.00     0.099 H 
ATOM     54  NA1 MOL d          10.578  17.537  44.558  0.00  0.00    -0.120 NA
ATOM     55  NA5 MOL d          10.082  17.528  42.222  0.00  0.00    -0.365 N 
ATOM     56  CA5 MOL d          10.142  16.860  40.908  0.00  0.00     0.059 C 
ATOM     57  H8  MOL d           9.670  18.470  42.291  0.00  0.00     0.161 HD
ATOM     58  H7  MOL d          10.605  17.561  40.199  0.00  0.00     0.079 H 
ATOM     59  H6  MOL d          10.191  14.731  40.658  0.00  0.00     0.090 H 
BRANCH  49  60
ATOM     60  OA3 MOL d          12.319  13.982  41.933  0.00  0.00    -0.390 OA
ATOM     61  H5  MOL d          11.679  13.427  41.501  0.00  0.00     0.210 HD
ENDBRANCH  49  60
BRANCH  50  62
ATOM     62  OA2 MOL d          11.868  15.167  44.446  0.00  0.00    -0.385 OA
ATOM     63  H3  MOL d          11.449  15.525  45.219  0.00  0.00     0.210 HD
ENDBRANCH  50  62
BRANCH  54  64
ATOM     64  OA7 MOL d          10.114  18.776  44.566  0.00  0.00    -0.265 OA
ATOM     65  H1  MOL d          10.720  19.337  45.036  0.00  0.00     0.247 HD
ENDBRANCH  54  64
BRANCH  56  66
ATOM     66  CA6 MOL d           8.655  16.607  40.499  0.00  0.00     0.038 C 
ATOM     67  H9  MOL d           8.063  17.508  40.713  0.00  0.00     0.077 H 
ATOM     68  H10 MOL d           8.260  15.761  41.082  0.00  0.00     0.077 H 
BRANCH  66  69
ATOM     69  OA6 MOL d           8.562  16.314  39.162  0.00  0.00    -0.399 OA
ATOM     70  H11 MOL d           9.431  16.157  38.812  0.00  0.00     0.209 HD
ENDBRANCH  66  69
ENDBRANCH  56  66
ENDBRANCH  47  48
ENDBRANCH   1  47
TORSDOF 19
ENDMDL
MODEL 3
REMARK VINA RESULT:      -6.1      3.371      8.875
REMARK  19 active torsions:
REMARK  status: ('A' for Active; 'I' for Inactive)
REMARK    1  A    between atoms: NA1_2  and  OA7_3 
REMARK    2  A    between atoms: CA2_4  and  OA2_5 
REMARK    3  A    between atoms: CA3_6  and  OA3_7 
REMARK    4  A    between atoms: CA4_8  and  OA4_9 
REMARK    5  A    between atoms: OA4_9  and  CB1_14 
REMARK    6  A    between atoms: CA5_10  and  CA6_12 
REMARK    7  A    between atoms: CA6_12  and  OA6_13 
REMARK    8  A    between atoms: CB2_15  and  OB2_20 
REMARK    9  A    between atoms: CB3_16  and  OB3_21 
REMARK   10  A    between atoms: CB4_17  and  OB4_22 
REMARK   11  A    between atoms: CB5_18  and  CB6_19 
REMARK   12  A    between atoms: CB6_19  and  OB6_24 
REMARK   13  A    between atoms: OB4_22  and  CD1_25 
REMARK   14  A    between atoms: CD2_26  and  OD2_31 
REMARK   15  A    between atoms: CD3_27  and  OD3_32 
REMARK   16  A    between atoms: CD4_28  and  OD4_33 
REMARK   17  A    between atoms: CD5_29  and  CD6_30 
REMARK   18  A    between atoms: CD6_30  and  OD6_35 
REMARK   19  A    between atoms: OD4_33  and  CD7_36 
ROOT
ATOM      1  CB1 MOL d          13.983  13.954  35.749  0.00  0.00     0.159 C 
ATOM      2  CB2 MOL d          12.404  14.129  35.537  0.00  0.00     0.110 C 
ATOM      3  CB3 MOL d          11.775  15.200  36.503  0.00  0.00     0.092 C 
ATOM      4  CB4 MOL d          12.069  14.730  37.965  0.00  0.00     0.096 C 
ATOM      5  CB5 MOL d          13.726  14.673  38.138  0.00  0.00     0.089 C 
ATOM      6  OB5 MOL d          14.270  13.682  37.180  0.00  0.00    -0.348 OA
ATOM      7  H12 MOL d          14.336  13.099  35.155  0.00  0.00     0.133 H 
ATOM      8  H13 MOL d          11.918  13.167  35.753  0.00  0.00     0.094 H 
ATOM      9  H14 MOL d          12.227  16.187  36.329  0.00  0.00     0.091 H 
ATOM     10  H15 MOL d          11.634  13.737  38.146  0.00  0.00     0.091 H 
ATOM     11  H16 MOL d          14.142  15.669  37.928  0.00  0.00     0.090 H 
ENDROOT
BRANCH   4  12
ATOM     12  OB4 MOL d          11.510  15.673  38.865  0.00  0.00    -0.348 OA
BRANCH  12  13
ATOM     13  CD1 MOL d          10.473  15.059  39.701  0.00  0.00     0.159 C 
ATOM     14  CD2 MOL d           9.242  16.000  40.020  0.00  0.00     0.110 C 
ATOM     15  CD3 MOL d           9.775  17.252  40.845  0.00  0.00     0.092 C 
ATOM     16  H23 MOL d           8.491  15.460  40.615  0.00  0.00     0.094 H 
ATOM     17  CD4 MOL d          10.388  16.738  42.186  0.00  0.00     0.092 C 
ATOM     18  H24 MOL d          10.533  17.794  40.261  0.00  0.00     0.091 H 
ATOM     19  CD5 MOL d          11.630  15.729  41.841  0.00  0.00     0.089 C 
ATOM     20  H25 MOL d           9.618  16.201  42.760  0.00  0.00     0.091 H 
ATOM     21  OD5 MOL d          11.100  14.606  40.997  0.00  0.00    -0.348 OA
ATOM     22  H26 MOL d          12.399  16.278  41.280  0.00  0.00     0.090 H 
ATOM     23  H22 MOL d          10.088  14.178  39.165  0.00  0.00     0.133 H 
BRANCH  14  24
ATOM     24  OD2 MOL d           8.668  16.400  38.759  0.00  0.00    -0.388 OA
ATOM     25  H29 MOL d           8.762  17.339  38.653  0.00  0.00     0.210 HD
ENDBRANCH  14  24
BRANCH  15  26
ATOM     26  OD3 MOL d           8.698  18.103  41.147  0.00  0.00    -0.390 OA
ATOM     27  H30 MOL d           8.913  18.626  41.911  0.00  0.00     0.210 HD
ENDBRANCH  15  26
BRANCH  17  28
ATOM     28  OD4 MOL d          10.899  17.861  42.984  0.00  0.00    -0.385 OA
BRANCH  28  29
ATOM     29  CD7 MOL d          12.137  18.439  42.491  0.00  0.00     0.005 C 
ATOM     30  H32 MOL d          12.494  17.860  41.626  0.00  0.00     0.066 H 
ATOM     31  H33 MOL d          12.896  18.414  43.287  0.00  0.00     0.066 H 
ATOM     32  H34 MOL d          11.959  19.482  42.185  0.00  0.00     0.066 H 
ENDBRANCH  28  29
ENDBRANCH  17  28
BRANCH  19  33
ATOM     33  CD6 MOL d          12.264  15.160  43.144  0.00  0.00     0.043 C 
ATOM     34  H27 MOL d          13.202  15.698  43.348  0.00  0.00     0.078 H 
ATOM     35  H28 MOL d          12.478  14.091  42.999  0.00  0.00     0.078 H 
BRANCH  33  36
ATOM     36  OD6 MOL d          11.388  15.310  44.267  0.00  0.00    -0.398 OA
ATOM     37  H31 MOL d          11.410  16.212  44.565  0.00  0.00     0.209 HD
ENDBRANCH  33  36
ENDBRANCH  19  33
ENDBRANCH  12  13
ENDBRANCH   4  12
BRANCH   3  38
ATOM     38  OB3 MOL d          10.350  15.266  36.252  0.00  0.00    -0.390 OA
ATOM     39  H20 MOL d          10.183  15.104  35.331  0.00  0.00     0.210 HD
ENDBRANCH   3  38
BRANCH   5  40
ATOM     40  CB6 MOL d          14.157  14.233  39.524  0.00  0.00     0.043 C 
ATOM     41  H17 MOL d          14.001  13.149  39.623  0.00  0.00     0.078 H 
ATOM     42  H18 MOL d          13.549  14.760  40.274  0.00  0.00     0.078 H 
BRANCH  40  43
ATOM     43  OB6 MOL d          15.497  14.522  39.737  0.00  0.00    -0.398 OA
ATOM     44  H21 MOL d          16.033  13.867  39.304  0.00  0.00     0.209 HD
ENDBRANCH  40  43
ENDBRANCH   5  40
BRANCH   2  45
ATOM     45  OB2 MOL d          12.178  14.450  34.144  0.00  0.00    -0.388 OA
ATOM     46  H19 MOL d          12.962  14.255  33.644  0.00  0.00     0.210 HD
ENDBRANCH   2  45
BRANCH   1  47
ATOM     47  OA4 MOL d          14.622  15.133  35.279  0.00  0.00    -0.348 OA
BRANCH  47  48
ATOM     48  CA4 MOL d          15.875  14.936  34.893  0.00  0.00     0.090 C 
ATOM     49  CA3 MOL d          16.584  13.973  35.913  0.00  0.00     0.094 C 
ATOM     50  CA2 MOL d          17.841  13.309  35.249  0.00  0.00     0.121 C 
ATOM     51  H4  MOL d          15.870  13.177  36.177  0.00  0.00     0.091 H 
ATOM     52  CA1 MOL d          17.400  12.616  33.945  0.00  0.00     0.159 C 
ATOM     53  H2  MOL d          18.532  14.122  34.978  0.00  0.00     0.099 H 
ATOM     54  NA1 MOL d          18.005  11.492  33.593  0.00  0.00    -0.120 NA
ATOM     55  NA5 MOL d          16.380  13.176  33.115  0.00  0.00    -0.365 N 
ATOM     56  CA5 MOL d          15.646  14.390  33.519  0.00  0.00     0.059 C 
ATOM     57  H8  MOL d          16.153  12.723  32.219  0.00  0.00     0.161 HD
ATOM     58  H7  MOL d          14.571  14.173  33.433  0.00  0.00     0.079 H 
ATOM     59  H6  MOL d          16.442  15.877  34.842  0.00  0.00     0.090 H 
BRANCH  49  60
ATOM     60  OA3 MOL d          16.941  14.588  37.034  0.00  0.00    -0.390 OA
ATOM     61  H5  MOL d          16.706  14.047  37.779  0.00  0.00     0.210 HD
ENDBRANCH  49  60
BRANCH  50  62
ATOM     62  OA2 MOL d          18.525  12.479  36.052  0.00  0.00    -0.385 OA
ATOM     63  H3  MOL d          19.408  12.808  36.168  0.00  0.00     0.210 HD
ENDBRANCH  50  62
BRANCH  54  64
ATOM     64  OA7 MOL d          17.608  10.911  32.472  0.00  0.00    -0.265 OA
ATOM     65  H1  MOL d          17.303  10.032  32.663  0.00  0.00     0.247 HD
ENDBRANCH  54  64
BRANCH  56  66
ATOM     66  CA6 MOL d          16.044  15.486  32.478  0.00  0.00     0.038 C 
ATOM     67  H9  MOL d          15.967  15.066  31.465  0.00  0.00     0.077 H 
ATOM     68  H10 MOL d          17.081  15.802  32.666  0.00  0.00     0.077 H 
BRANCH  66  69
ATOM     69  OA6 MOL d          15.216  16.575  32.578  0.00  0.00    -0.399 OA
ATOM     70  H11 MOL d          15.419  17.190  31.882  0.00  0.00     0.209 HD
ENDBRANCH  66  69
ENDBRANCH  56  66
ENDBRANCH  47  48
ENDBRANCH   1  47
TORSDOF 19
ENDMDL
MODEL 4
REMARK VINA RESULT:      -6.0      3.172      8.891
REMARK  19 active torsions:
REMARK  status: ('A' for Active; 'I' for Inactive)
REMARK    1  A    between atoms: NA1_2  and  OA7_3 
REMARK    2  A    between atoms: CA2_4  and  OA2_5 
REMARK    3  A    between atoms: CA3_6  and  OA3_7 
REMARK    4  A    between atoms: CA4_8  and  OA4_9 
REMARK    5  A    between atoms: OA4_9  and  CB1_14 
REMARK    6  A    between atoms: CA5_10  and  CA6_12 
REMARK    7  A    between atoms: CA6_12  and  OA6_13 
REMARK    8  A    between atoms: CB2_15  and  OB2_20 
REMARK    9  A    between atoms: CB3_16  and  OB3_21 
REMARK   10  A    between atoms: CB4_17  and  OB4_22 
REMARK   11  A    between atoms: CB5_18  and  CB6_19 
REMARK   12  A    between atoms: CB6_19  and  OB6_24 
REMARK   13  A    between atoms: OB4_22  and  CD1_25 
REMARK   14  A    between atoms: CD2_26  and  OD2_31 
REMARK   15  A    between atoms: CD3_27  and  OD3_32 
REMARK   16  A    between atoms: CD4_28  and  OD4_33 
REMARK   17  A    between atoms: CD5_29  and  CD6_30 
REMARK   18  A    between atoms: CD6_30  and  OD6_35 
REMARK   19  A    between atoms: OD4_33  and  CD7_36 
ROOT
ATOM      1  CB1 MOL d          15.232  15.105  36.932  0.00  0.00     0.159 C 
ATOM      2  CB2 MOL d          15.688  15.920  38.234  0.00  0.00     0.110 C 
ATOM      3  CB3 MOL d          14.513  16.139  39.257  0.00  0.00     0.092 C 
ATOM      4  CB4 MOL d          13.386  16.919  38.505  0.00  0.00     0.096 C 
ATOM      5  CB5 MOL d          12.894  15.964  37.230  0.00  0.00     0.089 C 
ATOM      6  OB5 MOL d          14.046  15.756  36.321  0.00  0.00    -0.348 OA
ATOM      7  H12 MOL d          16.048  15.110  36.196  0.00  0.00     0.133 H 
ATOM      8  H13 MOL d          16.034  16.914  37.915  0.00  0.00     0.094 H 
ATOM      9  H14 MOL d          14.126  15.172  39.611  0.00  0.00     0.091 H 
ATOM     10  H15 MOL d          13.766  17.883  38.134  0.00  0.00     0.091 H 
ATOM     11  H16 MOL d          12.543  14.999  37.622  0.00  0.00     0.090 H 
ENDROOT
BRANCH   4  12
ATOM     12  OB4 MOL d          12.310  17.139  39.403  0.00  0.00    -0.348 OA
BRANCH  12  13
ATOM     13  CD1 MOL d          11.622  15.884  39.723  0.00  0.00     0.159 C 
ATOM     14  CD2 MOL d          10.079  16.041  40.037  0.00  0.00     0.110 C 
ATOM     15  CD3 MOL d           9.925  16.958  41.327  0.00  0.00     0.092 C 
ATOM     16  H23 MOL d           9.625  15.058  40.229  0.00  0.00     0.094 H 
ATOM     17  CD4 MOL d          10.622  16.245  42.530  0.00  0.00     0.092 C 
ATOM     18  H24 MOL d          10.384  17.942  41.149  0.00  0.00     0.091 H 
ATOM     19  CD5 MOL d          12.207  16.047  42.172  0.00  0.00     0.089 C 
ATOM     20  H25 MOL d          10.151  15.265  42.698  0.00  0.00     0.091 H 
ATOM     21  OD5 MOL d          12.306  15.244  40.907  0.00  0.00    -0.348 OA
ATOM     22  H26 MOL d          12.671  17.032  42.019  0.00  0.00     0.090 H 
ATOM     23  H22 MOL d          11.719  15.217  38.854  0.00  0.00     0.133 H 
BRANCH  14  24
ATOM     24  OD2 MOL d           9.465  16.643  38.880  0.00  0.00    -0.388 OA
ATOM     25  H29 MOL d           9.430  16.008  38.174  0.00  0.00     0.210 HD
ENDBRANCH  14  24
BRANCH  15  26
ATOM     26  OD3 MOL d           8.561  17.109  41.631  0.00  0.00    -0.390 OA
ATOM     27  H30 MOL d           8.447  17.861  42.201  0.00  0.00     0.210 HD
ENDBRANCH  15  26
BRANCH  17  28
ATOM     28  OD4 MOL d          10.509  17.059  43.748  0.00  0.00    -0.385 OA
BRANCH  28  29
ATOM     29  CD7 MOL d          11.341  18.250  43.759  0.00  0.00     0.005 C 
ATOM     30  H32 MOL d          10.701  19.144  43.802  0.00  0.00     0.066 H 
ATOM     31  H33 MOL d          11.951  18.280  42.843  0.00  0.00     0.066 H 
ATOM     32  H34 MOL d          12.001  18.229  44.639  0.00  0.00     0.066 H 
ENDBRANCH  28  29
ENDBRANCH  17  28
BRANCH  19  33
ATOM     33  CD6 MOL d          12.950  15.312  43.327  0.00  0.00     0.043 C 
ATOM     34  H27 MOL d          13.608  16.028  43.841  0.00  0.00     0.078 H 
ATOM     35  H28 MOL d          13.556  14.498  42.900  0.00  0.00     0.078 H 
BRANCH  33  36
ATOM     36  OD6 MOL d          12.033  14.758  44.277  0.00  0.00    -0.398 OA
ATOM     37  H31 MOL d          12.498  14.547  45.078  0.00  0.00     0.209 HD
ENDBRANCH  33  36
ENDBRANCH  19  33
ENDBRANCH  12  13
ENDBRANCH   4  12
BRANCH   3  38
ATOM     38  OB3 MOL d          15.017  16.902  40.381  0.00  0.00    -0.390 OA
ATOM     39  H20 MOL d          15.433  17.695  40.063  0.00  0.00     0.210 HD
ENDBRANCH   3  38
BRANCH   5  40
ATOM     40  CB6 MOL d          11.791  16.603  36.410  0.00  0.00     0.043 C 
ATOM     41  H17 MOL d          12.162  16.795  35.392  0.00  0.00     0.078 H 
ATOM     42  H18 MOL d          11.498  17.555  36.878  0.00  0.00     0.078 H 
BRANCH  40  43
ATOM     43  OB6 MOL d          10.684  15.770  36.341  0.00  0.00    -0.398 OA
ATOM     44  H21 MOL d          10.177  15.982  35.566  0.00  0.00     0.209 HD
ENDBRANCH  40  43
ENDBRANCH   5  40
BRANCH   2  45
ATOM     45  OB2 MOL d          16.806  15.217  38.826  0.00  0.00    -0.388 OA
ATOM     46  H19 MOL d          17.014  14.455  38.299  0.00  0.00     0.210 HD
ENDBRANCH   2  45
BRANCH   1  47
ATOM     47  OA4 MOL d          14.976  13.763  37.321  0.00  0.00    -0.348 OA
BRANCH  47  48
ATOM     48  CA4 MOL d          15.270  12.875  36.382  0.00  0.00     0.090 C 
ATOM     49  CA3 MOL d          14.515  13.257  35.057  0.00  0.00     0.094 C 
ATOM     50  CA2 MOL d          15.211  12.583  33.822  0.00  0.00     0.121 C 
ATOM     51  H4  MOL d          14.577  14.349  34.937  0.00  0.00     0.091 H 
ATOM     52  CA1 MOL d          16.701  12.977  33.823  0.00  0.00     0.159 C 
ATOM     53  H2  MOL d          15.153  11.495  33.971  0.00  0.00     0.099 H 
ATOM     54  NA1 MOL d          17.307  13.154  32.659  0.00  0.00    -0.120 NA
ATOM     55  NA5 MOL d          17.428  13.128  35.045  0.00  0.00    -0.365 N 
ATOM     56  CA5 MOL d          16.760  13.002  36.354  0.00  0.00     0.059 C 
ATOM     57  H8  MOL d          18.438  13.329  35.010  0.00  0.00     0.161 HD
ATOM     58  H7  MOL d          17.019  13.892  36.946  0.00  0.00     0.079 H 
ATOM     59  H6  MOL d          14.977  11.856  36.674  0.00  0.00     0.090 H 
BRANCH  49  60
ATOM     60  OA3 MOL d          13.231  12.923  35.085  0.00  0.00    -0.390 OA
ATOM     61  H5  MOL d          13.116  12.159  35.638  0.00  0.00     0.210 HD
ENDBRANCH  49  60
BRANCH  50  62
ATOM     62  OA2 MOL d          14.625  12.839  32.642  0.00  0.00    -0.385 OA
ATOM     63  H3  MOL d          13.798  13.283  32.790  0.00  0.00     0.210 HD
ENDBRANCH  50  62
BRANCH  54  64
ATOM     64  OA7 MOL d          18.586  13.495  32.682  0.00  0.00    -0.265 OA
ATOM     65  H1  MOL d          18.937  13.342  33.552  0.00  0.00     0.247 HD
ENDBRANCH  54  64
BRANCH  56  66
ATOM     66  CA6 MOL d          17.378  11.731  37.019  0.00  0.00     0.038 C 
ATOM     67  H9  MOL d          17.490  11.907  38.099  0.00  0.00     0.077 H 
ATOM     68  H10 MOL d          18.366  11.535  36.576  0.00  0.00     0.077 H 
BRANCH  66  69
ATOM     69  OA6 MOL d          16.573  10.638  36.823  0.00  0.00    -0.399 OA
ATOM     70  H11 MOL d          16.340  10.263  37.664  0.00  0.00     0.209 HD
ENDBRANCH  66  69
ENDBRANCH  56  66
ENDBRANCH  47  48
ENDBRANCH   1  47
TORSDOF 19
ENDMDL
MODEL 5
REMARK VINA RESULT:      -5.8      1.977      3.115
REMARK  19 active torsions:
REMARK  status: ('A' for Active; 'I' for Inactive)
REMARK    1  A    between atoms: NA1_2  and  OA7_3 
REMARK    2  A    between atoms: CA2_4  and  OA2_5 
REMARK    3  A    between atoms: CA3_6  and  OA3_7 
REMARK    4  A    between atoms: CA4_8  and  OA4_9 
REMARK    5  A    between atoms: OA4_9  and  CB1_14 
REMARK    6  A    between atoms: CA5_10  and  CA6_12 
REMARK    7  A    between atoms: CA6_12  and  OA6_13 
REMARK    8  A    between atoms: CB2_15  and  OB2_20 
REMARK    9  A    between atoms: CB3_16  and  OB3_21 
REMARK   10  A    between atoms: CB4_17  and  OB4_22 
REMARK   11  A    between atoms: CB5_18  and  CB6_19 
REMARK   12  A    between atoms: CB6_19  and  OB6_24 
REMARK   13  A    between atoms: OB4_22  and  CD1_25 
REMARK   14  A    between atoms: CD2_26  and  OD2_31 
REMARK   15  A    between atoms: CD3_27  and  OD3_32 
REMARK   16  A    between atoms: CD4_28  and  OD4_33 
REMARK   17  A    between atoms: CD5_29  and  CD6_30 
REMARK   18  A    between atoms: CD6_30  and  OD6_35 
REMARK   19  A    between atoms: OD4_33  and  CD7_36 
ROOT
ATOM      1  CB1 MOL d          13.517  14.590  40.052  0.00  0.00     0.159 C 
ATOM      2  CB2 MOL d          15.023  14.558  39.505  0.00  0.00     0.110 C 
ATOM      3  CB3 MOL d          15.318  15.704  38.468  0.00  0.00     0.092 C 
ATOM      4  CB4 MOL d          14.314  15.523  37.283  0.00  0.00     0.096 C 
ATOM      5  CB5 MOL d          12.778  15.672  37.914  0.00  0.00     0.089 C 
ATOM      6  OB5 MOL d          12.568  14.596  38.911  0.00  0.00    -0.348 OA
ATOM      7  H12 MOL d          13.331  13.689  40.654  0.00  0.00     0.133 H 
ATOM      8  H13 MOL d          15.182  13.600  38.989  0.00  0.00     0.094 H 
ATOM      9  H14 MOL d          15.173  16.690  38.933  0.00  0.00     0.091 H 
ATOM     10  H15 MOL d          14.439  14.533  36.819  0.00  0.00     0.091 H 
ATOM     11  H16 MOL d          12.683  16.656  38.394  0.00  0.00     0.090 H 
ENDROOT
BRANCH   4  12
ATOM     12  OB4 MOL d          14.556  16.539  36.324  0.00  0.00    -0.348 OA
BRANCH  12  13
ATOM     13  CD1 MOL d          15.323  16.024  35.185  0.00  0.00     0.159 C 
ATOM     14  CD2 MOL d          14.668  16.298  33.772  0.00  0.00     0.110 C 
ATOM     15  CD3 MOL d          13.266  15.548  33.720  0.00  0.00     0.092 C 
ATOM     16  H23 MOL d          15.318  15.919  32.969  0.00  0.00     0.094 H 
ATOM     17  CD4 MOL d          13.517  14.015  33.879  0.00  0.00     0.092 C 
ATOM     18  H24 MOL d          12.612  15.914  34.525  0.00  0.00     0.091 H 
ATOM     19  CD5 MOL d          14.237  13.750  35.325  0.00  0.00     0.089 C 
ATOM     20  H25 MOL d          14.169  13.663  33.067  0.00  0.00     0.091 H 
ATOM     21  OD5 MOL d          15.515  14.537  35.363  0.00  0.00    -0.348 OA
ATOM     22  H26 MOL d          13.571  14.093  36.131  0.00  0.00     0.090 H 
ATOM     23  H22 MOL d          16.308  16.512  35.197  0.00  0.00     0.133 H 
BRANCH  14  24
ATOM     24  OD2 MOL d          14.514  17.725  33.640  0.00  0.00    -0.388 OA
ATOM     25  H29 MOL d          13.622  17.924  33.380  0.00  0.00     0.210 HD
ENDBRANCH  14  24
BRANCH  15  26
ATOM     26  OD3 MOL d          12.665  15.772  32.470  0.00  0.00    -0.390 OA
ATOM     27  H30 MOL d          12.719  16.696  32.254  0.00  0.00     0.210 HD
ENDBRANCH  15  26
BRANCH  17  28
ATOM     28  OD4 MOL d          12.246  13.278  33.842  0.00  0.00    -0.385 OA
BRANCH  28  29
ATOM     29  CD7 MOL d          12.130  12.327  32.750  0.00  0.00     0.005 C 
ATOM     30  H32 MOL d          11.989  12.870  31.803  0.00  0.00     0.066 H 
ATOM     31  H33 MOL d          11.266  11.669  32.927  0.00  0.00     0.066 H 
ATOM     32  H34 MOL d          13.047  11.721  32.692  0.00  0.00     0.066 H 
ENDBRANCH  28  29
ENDBRANCH  17  28
BRANCH  19  33
ATOM     33  CD6 MOL d          14.539  12.236  35.528  0.00  0.00     0.043 C 
ATOM     34  H27 MOL d          14.744  11.780  34.548  0.00  0.00     0.078 H 
ATOM     35  H28 MOL d          13.659  11.755  35.980  0.00  0.00     0.078 H 
BRANCH  33  36
ATOM     36  OD6 MOL d          15.670  12.032  36.382  0.00  0.00    -0.398 OA
ATOM     37  H31 MOL d          16.116  11.233  36.128  0.00  0.00     0.209 HD
ENDBRANCH  33  36
ENDBRANCH  19  33
ENDBRANCH  12  13
ENDBRANCH   4  12
BRANCH   3  38
ATOM     38  OB3 MOL d          16.688  15.575  38.016  0.00  0.00    -0.390 OA
ATOM     39  H20 MOL d          17.244  15.351  38.753  0.00  0.00     0.210 HD
ENDBRANCH   3  38
BRANCH   5  40
ATOM     40  CB6 MOL d          11.695  15.520  36.863  0.00  0.00     0.043 C 
ATOM     41  H17 MOL d          10.795  15.093  37.331  0.00  0.00     0.078 H 
ATOM     42  H18 MOL d          12.052  14.845  36.072  0.00  0.00     0.078 H 
BRANCH  40  43
ATOM     43  OB6 MOL d          11.377  16.750  36.305  0.00  0.00    -0.398 OA
ATOM     44  H21 MOL d          11.535  17.436  36.942  0.00  0.00     0.209 HD
ENDBRANCH  40  43
ENDBRANCH   5  40
BRANCH   2  45
ATOM     45  OB2 MOL d          15.910  14.612  40.647  0.00  0.00    -0.388 OA
ATOM     46  H19 MOL d          16.310  13.761  40.776  0.00  0.00     0.210 HD
ENDBRANCH   2  45
BRANCH   1  47
ATOM     47  OA4 MOL d          13.377  15.733  40.884  0.00  0.00    -0.348 OA
BRANCH  47  48
ATOM     48  CA4 MOL d          12.158  15.877  41.385  0.00  0.00     0.090 C 
ATOM     49  CA3 MOL d          12.135  15.317  42.854  0.00  0.00     0.094 C 
ATOM     50  CA2 MOL d          10.920  15.920  43.644  0.00  0.00     0.121 C 
ATOM     51  H4  MOL d          13.064  15.635  43.350  0.00  0.00     0.091 H 
ATOM     52  CA1 MOL d          10.998  17.456  43.567  0.00  0.00     0.159 C 
ATOM     53  H2  MOL d          10.005  15.604  43.123  0.00  0.00     0.099 H 
ATOM     54  NA1 MOL d          10.596  18.162  44.614  0.00  0.00    -0.120 NA
ATOM     55  NA5 MOL d          11.468  18.118  42.391  0.00  0.00    -0.365 N 
ATOM     56  CA5 MOL d          11.983  17.355  41.238  0.00  0.00     0.059 C 
ATOM     57  H8  MOL d          11.447  19.147  42.347  0.00  0.00     0.161 HD
ATOM     58  H7  MOL d          12.967  17.771  40.976  0.00  0.00     0.079 H 
ATOM     59  H6  MOL d          11.404  15.340  40.790  0.00  0.00     0.090 H 
BRANCH  49  60
ATOM     60  OA3 MOL d          12.084  13.991  42.895  0.00  0.00    -0.390 OA
ATOM     61  H5  MOL d          12.386  13.691  43.745  0.00  0.00     0.210 HD
ENDBRANCH  49  60
BRANCH  50  62
ATOM     62  OA2 MOL d          10.807  15.486  44.910  0.00  0.00    -0.385 OA
ATOM     63  H3  MOL d          10.330  16.127  45.422  0.00  0.00     0.210 HD
ENDBRANCH  50  62
BRANCH  54  64
ATOM     64  OA7 MOL d          10.674  19.480  44.528  0.00  0.00    -0.265 OA
ATOM     65  H1  MOL d          11.542  19.726  44.230  0.00  0.00     0.247 HD
ENDBRANCH  54  64
BRANCH  56  66
ATOM     66  CA6 MOL d          10.975  17.622  40.075  0.00  0.00     0.038 C 
ATOM     67  H9  MOL d           9.982  17.834  40.499  0.00  0.00     0.077 H 
ATOM     68  H10 MOL d          10.916  16.728  39.436  0.00  0.00     0.077 H 
BRANCH  66  69
ATOM     69  OA6 MOL d          11.378  18.691  39.316  0.00  0.00    -0.399 OA
ATOM     70  H11 MOL d          11.350  18.454  38.397  0.00  0.00     0.209 HD
ENDBRANCH  66  69
ENDBRANCH  56  66
ENDBRANCH  47  48
ENDBRANCH   1  47
TORSDOF 19
ENDMDL
MODEL 6
REMARK VINA RESULT:      -5.7      3.355      8.859
REMARK  19 active torsions:
REMARK  status: ('A' for Active; 'I' for Inactive)
REMARK    1  A    between atoms: NA1_2  and  OA7_3 
REMARK    2  A    between atoms: CA2_4  and  OA2_5 
REMARK    3  A    between atoms: CA3_6  and  OA3_7 
REMARK    4  A    between atoms: CA4_8  and  OA4_9 
REMARK    5  A    between atoms: OA4_9  and  CB1_14 
REMARK    6  A    between atoms: CA5_10  and  CA6_12 
REMARK    7  A    between atoms: CA6_12  and  OA6_13 
REMARK    8  A    between atoms: CB2_15  and  OB2_20 
REMARK    9  A    between atoms: CB3_16  and  OB3_21 
REMARK   10  A    between atoms: CB4_17  and  OB4_22 
REMARK   11  A    between atoms: CB5_18  and  CB6_19 
REMARK   12  A    between atoms: CB6_19  and  OB6_24 
REMARK   13  A    between atoms: OB4_22  and  CD1_25 
REMARK   14  A    between atoms: CD2_26  and  OD2_31 
REMARK   15  A    between atoms: CD3_27  and  OD3_32 
REMARK   16  A    between atoms: CD4_28  and  OD4_33 
REMARK   17  A    between atoms: CD5_29  and  CD6_30 
REMARK   18  A    between atoms: CD6_30  and  OD6_35 
REMARK   19  A    between atoms: OD4_33  and  CD7_36 
ROOT
ATOM      1  CB1 MOL d          13.020  15.193  34.995  0.00  0.00     0.159 C 
ATOM      2  CB2 MOL d          13.595  16.409  35.866  0.00  0.00     0.110 C 
ATOM      3  CB3 MOL d          13.001  16.450  37.322  0.00  0.00     0.092 C 
ATOM      4  CB4 MOL d          11.449  16.579  37.183  0.00  0.00     0.096 C 
ATOM      5  CB5 MOL d          10.916  15.230  36.360  0.00  0.00     0.089 C 
ATOM      6  OB5 MOL d          11.536  15.219  35.014  0.00  0.00    -0.348 OA
ATOM      7  H12 MOL d          13.356  15.301  33.954  0.00  0.00     0.133 H 
ATOM      8  H13 MOL d          13.315  17.350  35.371  0.00  0.00     0.094 H 
ATOM      9  H14 MOL d          13.252  15.527  37.865  0.00  0.00     0.091 H 
ATOM     10  H15 MOL d          11.186  17.491  36.627  0.00  0.00     0.091 H 
ATOM     11  H16 MOL d          11.211  14.331  36.919  0.00  0.00     0.090 H 
ENDROOT
BRANCH   4  12
ATOM     12  OB4 MOL d          10.879  16.623  38.480  0.00  0.00    -0.348 OA
BRANCH  12  13
ATOM     13  CD1 MOL d          11.498  15.631  39.366  0.00  0.00     0.159 C 
ATOM     14  CD2 MOL d          10.472  14.716  40.148  0.00  0.00     0.110 C 
ATOM     15  CD3 MOL d           9.594  15.647  41.092  0.00  0.00     0.092 C 
ATOM     16  H23 MOL d          11.009  13.975  40.759  0.00  0.00     0.094 H 
ATOM     17  CD4 MOL d          10.540  16.347  42.119  0.00  0.00     0.092 C 
ATOM     18  H24 MOL d           9.060  16.398  40.491  0.00  0.00     0.091 H 
ATOM     19  CD5 MOL d          11.626  17.254  41.294  0.00  0.00     0.089 C 
ATOM     20  H25 MOL d          11.065  15.585  42.714  0.00  0.00     0.091 H 
ATOM     21  OD5 MOL d          12.378  16.351  40.360  0.00  0.00    -0.348 OA
ATOM     22  H26 MOL d          11.093  18.021  40.714  0.00  0.00     0.090 H 
ATOM     23  H22 MOL d          12.126  14.974  38.747  0.00  0.00     0.133 H 
BRANCH  14  24
ATOM     24  OD2 MOL d           9.663  14.041  39.164  0.00  0.00    -0.388 OA
ATOM     25  H29 MOL d           8.805  13.858  39.531  0.00  0.00     0.210 HD
ENDBRANCH  14  24
BRANCH  15  26
ATOM     26  OD3 MOL d           8.676  14.855  41.803  0.00  0.00    -0.390 OA
ATOM     27  H30 MOL d           7.791  15.098  41.555  0.00  0.00     0.210 HD
ENDBRANCH  15  26
BRANCH  17  28
ATOM     28  OD4 MOL d           9.772  17.224  43.013  0.00  0.00    -0.385 OA
BRANCH  28  29
ATOM     29  CD7 MOL d           9.741  16.796  44.401  0.00  0.00     0.005 C 
ATOM     30  H32 MOL d           8.953  17.346  44.937  0.00  0.00     0.066 H 
ATOM     31  H33 MOL d          10.715  17.001  44.870  0.00  0.00     0.066 H 
ATOM     32  H34 MOL d           9.532  15.717  44.447  0.00  0.00     0.066 H 
ENDBRANCH  28  29
ENDBRANCH  17  28
BRANCH  19  33
ATOM     33  CD6 MOL d          12.618  17.955  42.268  0.00  0.00     0.043 C 
ATOM     34  H27 MOL d          13.501  18.285  41.701  0.00  0.00     0.078 H 
ATOM     35  H28 MOL d          12.926  17.237  43.042  0.00  0.00     0.078 H 
BRANCH  33  36
ATOM     36  OD6 MOL d          12.022  19.093  42.901  0.00  0.00    -0.398 OA
ATOM     37  H31 MOL d          12.622  19.829  42.858  0.00  0.00     0.209 HD
ENDBRANCH  33  36
ENDBRANCH  19  33
ENDBRANCH  12  13
ENDBRANCH   4  12
BRANCH   3  38
ATOM     38  OB3 MOL d          13.560  17.592  38.016  0.00  0.00    -0.390 OA
ATOM     39  H20 MOL d          13.326  17.547  38.937  0.00  0.00     0.210 HD
ENDBRANCH   3  38
BRANCH   5  40
ATOM     40  CB6 MOL d           9.414  15.222  36.156  0.00  0.00     0.043 C 
ATOM     41  H17 MOL d           8.981  14.367  36.695  0.00  0.00     0.078 H 
ATOM     42  H18 MOL d           9.195  15.127  35.082  0.00  0.00     0.078 H 
BRANCH  40  43
ATOM     43  OB6 MOL d           8.847  16.395  36.634  0.00  0.00    -0.398 OA
ATOM     44  H21 MOL d           7.900  16.317  36.618  0.00  0.00     0.209 HD
ENDBRANCH  40  43
ENDBRANCH   5  40
BRANCH   2  45
ATOM     45  OB2 MOL d          15.039  16.308  35.867  0.00  0.00    -0.388 OA
ATOM     46  H19 MOL d          15.413  17.128  35.566  0.00  0.00     0.210 HD
ENDBRANCH   2  45
BRANCH   1  47
ATOM     47  OA4 MOL d          13.550  13.986  35.524  0.00  0.00    -0.348 OA
BRANCH  47  48
ATOM     48  CA4 MOL d          14.850  13.839  35.306  0.00  0.00     0.090 C 
ATOM     49  CA3 MOL d          15.510  13.164  36.563  0.00  0.00     0.094 C 
ATOM     50  CA2 MOL d          16.880  12.508  36.170  0.00  0.00     0.121 C 
ATOM     51  H4  MOL d          14.833  12.371  36.914  0.00  0.00     0.091 H 
ATOM     52  CA1 MOL d          16.641  11.536  34.999  0.00  0.00     0.159 C 
ATOM     53  H2  MOL d          17.533  13.314  35.807  0.00  0.00     0.099 H 
ATOM     54  NA1 MOL d          17.363  10.427  34.941  0.00  0.00    -0.120 NA
ATOM     55  NA5 MOL d          15.681  11.823  33.979  0.00  0.00    -0.365 N 
ATOM     56  CA5 MOL d          14.818  13.017  34.056  0.00  0.00     0.059 C 
ATOM     57  H8  MOL d          15.590  11.185  33.176  0.00  0.00     0.161 HD
ATOM     58  H7  MOL d          13.778  12.686  33.915  0.00  0.00     0.079 H 
ATOM     59  H6  MOL d          15.347  14.802  35.119  0.00  0.00     0.090 H 
BRANCH  49  60
ATOM     60  OA3 MOL d          15.692  14.017  37.564  0.00  0.00    -0.390 OA
ATOM     61  H5  MOL d          15.643  13.549  38.390  0.00  0.00     0.210 HD
ENDBRANCH  49  60
BRANCH  50  62
ATOM     62  OA2 MOL d          17.529  11.919  37.187  0.00  0.00    -0.385 OA
ATOM     63  H3  MOL d          16.899  11.594  37.818  0.00  0.00     0.210 HD
ENDBRANCH  50  62
BRANCH  54  64
ATOM     64  OA7 MOL d          17.140   9.604  33.929  0.00  0.00    -0.265 OA
ATOM     65  H1  MOL d          17.064   8.716  34.256  0.00  0.00     0.247 HD
ENDBRANCH  54  64
BRANCH  56  66
ATOM     66  CA6 MOL d          15.247  13.922  32.857  0.00  0.00     0.038 C 
ATOM     67  H9  MOL d          14.349  14.356  32.393  0.00  0.00     0.077 H 
ATOM     68  H10 MOL d          15.782  13.310  32.116  0.00  0.00     0.077 H 
BRANCH  66  69
ATOM     69  OA6 MOL d          16.068  14.935  33.282  0.00  0.00    -0.399 OA
ATOM     70  H11 MOL d          16.973  14.696  33.120  0.00  0.00     0.209 HD
ENDBRANCH  66  69
ENDBRANCH  56  66
ENDBRANCH  47  48
ENDBRANCH   1  47
TORSDOF 19
ENDMDL
MODEL 7
REMARK VINA RESULT:      -5.5      3.099      8.647
REMARK  19 active torsions:
REMARK  status: ('A' for Active; 'I' for Inactive)
REMARK    1  A    between atoms: NA1_2  and  OA7_3 
REMARK    2  A    between atoms: CA2_4  and  OA2_5 
REMARK    3  A    between atoms: CA3_6  and  OA3_7 
REMARK    4  A    between atoms: CA4_8  and  OA4_9 
REMARK    5  A    between atoms: OA4_9  and  CB1_14 
REMARK    6  A    between atoms: CA5_10  and  CA6_12 
REMARK    7  A    between atoms: CA6_12  and  OA6_13 
REMARK    8  A    between atoms: CB2_15  and  OB2_20 
REMARK    9  A    between atoms: CB3_16  and  OB3_21 
REMARK   10  A    between atoms: CB4_17  and  OB4_22 
REMARK   11  A    between atoms: CB5_18  and  CB6_19 
REMARK   12  A    between atoms: CB6_19  and  OB6_24 
REMARK   13  A    between atoms: OB4_22  and  CD1_25 
REMARK   14  A    between atoms: CD2_26  and  OD2_31 
REMARK   15  A    between atoms: CD3_27  and  OD3_32 
REMARK   16  A    between atoms: CD4_28  and  OD4_33 
REMARK   17  A    between atoms: CD5_29  and  CD6_30 
REMARK   18  A    between atoms: CD6_30  and  OD6_35 
REMARK   19  A    between atoms: OD4_33  and  CD7_36 
ROOT
ATOM      1  CB1 MOL d          14.135  14.358  36.928  0.00  0.00     0.159 C 
ATOM      2  CB2 MOL d          12.894  15.359  36.769  0.00  0.00     0.110 C 
ATOM      3  CB3 MOL d          13.044  16.657  37.645  0.00  0.00     0.092 C 
ATOM      4  CB4 MOL d          13.173  16.197  39.134  0.00  0.00     0.096 C 
ATOM      5  CB5 MOL d          14.540  15.248  39.237  0.00  0.00     0.089 C 
ATOM      6  OB5 MOL d          14.363  14.063  38.365  0.00  0.00    -0.348 OA
ATOM      7  H12 MOL d          13.907  13.413  36.412  0.00  0.00     0.133 H 
ATOM      8  H13 MOL d          11.986  14.839  37.108  0.00  0.00     0.094 H 
ATOM      9  H14 MOL d          13.942  17.219  37.348  0.00  0.00     0.091 H 
ATOM     10  H15 MOL d          12.287  15.621  39.438  0.00  0.00     0.091 H 
ATOM     11  H16 MOL d          15.408  15.835  38.905  0.00  0.00     0.090 H 
ENDROOT
BRANCH   4  12
ATOM     12  OB4 MOL d          13.306  17.346  39.954  0.00  0.00    -0.348 OA
BRANCH  12  13
ATOM     13  CD1 MOL d          11.996  17.924  40.275  0.00  0.00     0.159 C 
ATOM     14  CD2 MOL d          11.869  18.487  41.747  0.00  0.00     0.110 C 
ATOM     15  CD3 MOL d          12.065  17.277  42.761  0.00  0.00     0.092 C 
ATOM     16  H23 MOL d          10.877  18.937  41.900  0.00  0.00     0.094 H 
ATOM     17  CD4 MOL d          10.931  16.232  42.512  0.00  0.00     0.092 C 
ATOM     18  H24 MOL d          13.052  16.814  42.610  0.00  0.00     0.091 H 
ATOM     19  CD5 MOL d          11.047  15.692  40.971  0.00  0.00     0.089 C 
ATOM     20  H25 MOL d           9.952  16.708  42.670  0.00  0.00     0.091 H 
ATOM     21  OD5 MOL d          10.935  16.874  40.052  0.00  0.00    -0.348 OA
ATOM     22  H26 MOL d          12.023  15.207  40.828  0.00  0.00     0.090 H 
ATOM     23  H22 MOL d          11.820  18.760  39.582  0.00  0.00     0.133 H 
BRANCH  14  24
ATOM     24  OD2 MOL d          12.890  19.491  41.913  0.00  0.00    -0.388 OA
ATOM     25  H29 MOL d          13.336  19.628  41.086  0.00  0.00     0.210 HD
ENDBRANCH  14  24
BRANCH  15  26
ATOM     26  OD3 MOL d          11.950  17.751  44.079  0.00  0.00    -0.390 OA
ATOM     27  H30 MOL d          11.166  18.282  44.157  0.00  0.00     0.210 HD
ENDBRANCH  15  26
BRANCH  17  28
ATOM     28  OD4 MOL d          11.074  15.090  43.426  0.00  0.00    -0.385 OA
BRANCH  28  29
ATOM     29  CD7 MOL d          12.421  14.552  43.517  0.00  0.00     0.005 C 
ATOM     30  H32 MOL d          12.642  13.962  42.616  0.00  0.00     0.066 H 
ATOM     31  H33 MOL d          12.498  13.907  44.405  0.00  0.00     0.066 H 
ATOM     32  H34 MOL d          13.141  15.380  43.600  0.00  0.00     0.066 H 
ENDBRANCH  28  29
ENDBRANCH  17  28
BRANCH  19  33
ATOM     33  CD6 MOL d           9.920  14.665  40.656  0.00  0.00     0.043 C 
ATOM     34  H27 MOL d          10.310  13.648  40.814  0.00  0.00     0.078 H 
ATOM     35  H28 MOL d           9.615  14.782  39.605  0.00  0.00     0.078 H 
BRANCH  33  36
ATOM     36  OD6 MOL d           8.776  14.860  41.496  0.00  0.00    -0.398 OA
ATOM     37  H31 MOL d           9.058  15.201  42.337  0.00  0.00     0.209 HD
ENDBRANCH  33  36
ENDBRANCH  19  33
ENDBRANCH  12  13
ENDBRANCH   4  12
BRANCH   3  38
ATOM     38  OB3 MOL d          11.868  17.482  37.453  0.00  0.00    -0.390 OA
ATOM     39  H20 MOL d          11.329  17.449  38.235  0.00  0.00     0.210 HD
ENDBRANCH   3  38
BRANCH   5  40
ATOM     40  CB6 MOL d          14.791  14.732  40.640  0.00  0.00     0.043 C 
ATOM     41  H17 MOL d          14.300  13.755  40.759  0.00  0.00     0.078 H 
ATOM     42  H18 MOL d          14.371  15.443  41.367  0.00  0.00     0.078 H 
BRANCH  40  43
ATOM     43  OB6 MOL d          16.151  14.589  40.876  0.00  0.00    -0.398 OA
ATOM     44  H21 MOL d          16.613  15.336  40.514  0.00  0.00     0.209 HD
ENDBRANCH  40  43
ENDBRANCH   5  40
BRANCH   2  45
ATOM     45  OB2 MOL d          12.747  15.662  35.362  0.00  0.00    -0.388 OA
ATOM     46  H19 MOL d          11.826  15.652  35.131  0.00  0.00     0.210 HD
ENDBRANCH   2  45
BRANCH   1  47
ATOM     47  OA4 MOL d          15.264  14.956  36.308  0.00  0.00    -0.348 OA
BRANCH  47  48
ATOM     48  CA4 MOL d          16.044  14.089  35.679  0.00  0.00     0.090 C 
ATOM     49  CA3 MOL d          16.135  12.768  36.528  0.00  0.00     0.094 C 
ATOM     50  CA2 MOL d          16.586  11.570  35.620  0.00  0.00     0.121 C 
ATOM     51  H4  MOL d          15.129  12.549  36.917  0.00  0.00     0.091 H 
ATOM     52  CA1 MOL d          15.623  11.473  34.421  0.00  0.00     0.159 C 
ATOM     53  H2  MOL d          17.583  11.818  35.228  0.00  0.00     0.099 H 
ATOM     54  NA1 MOL d          15.331  10.273  33.942  0.00  0.00    -0.120 NA
ATOM     55  NA5 MOL d          15.070  12.644  33.816  0.00  0.00    -0.365 N 
ATOM     56  CA5 MOL d          15.326  13.986  34.371  0.00  0.00     0.059 C 
ATOM     57  H8  MOL d          14.481  12.548  32.976  0.00  0.00     0.161 HD
ATOM     58  H7  MOL d          14.354  14.485  34.497  0.00  0.00     0.079 H 
ATOM     59  H6  MOL d          17.060  14.483  35.530  0.00  0.00     0.090 H 
BRANCH  49  60
ATOM     60  OA3 MOL d          16.957  12.880  37.563  0.00  0.00    -0.390 OA
ATOM     61  H5  MOL d          17.297  13.767  37.601  0.00  0.00     0.210 HD
ENDBRANCH  49  60
BRANCH  50  62
ATOM     62  OA2 MOL d          16.708  10.398  36.262  0.00  0.00    -0.385 OA
ATOM     63  H3  MOL d          17.414   9.896  35.872  0.00  0.00     0.210 HD
ENDBRANCH  50  62
BRANCH  54  64
ATOM     64  OA7 MOL d          14.500  10.211  32.914  0.00  0.00    -0.265 OA
ATOM     65  H1  MOL d          13.832  10.880  33.008  0.00  0.00     0.247 HD
ENDBRANCH  54  64
BRANCH  56  66
ATOM     66  CA6 MOL d          16.164  14.736  33.286  0.00  0.00     0.038 C 
ATOM     67  H9  MOL d          16.248  15.796  33.565  0.00  0.00     0.077 H 
ATOM     68  H10 MOL d          15.654  14.651  32.315  0.00  0.00     0.077 H 
BRANCH  66  69
ATOM     69  OA6 MOL d          17.421  14.196  33.183  0.00  0.00    -0.399 OA
ATOM     70  H11 MOL d          17.508  13.480  33.801  0.00  0.00     0.209 HD
ENDBRANCH  66  69
ENDBRANCH  56  66
ENDBRANCH  47  48
ENDBRANCH   1  47
TORSDOF 19
ENDMDL
MODEL 8
REMARK VINA RESULT:      -5.2      3.229      8.804
REMARK  19 active torsions:
REMARK  status: ('A' for Active; 'I' for Inactive)
REMARK    1  A    between atoms: NA1_2  and  OA7_3 
REMARK    2  A    between atoms: CA2_4  and  OA2_5 
REMARK    3  A    between atoms: CA3_6  and  OA3_7 
REMARK    4  A    between atoms: CA4_8  and  OA4_9 
REMARK    5  A    between atoms: OA4_9  and  CB1_14 
REMARK    6  A    between atoms: CA5_10  and  CA6_12 
REMARK    7  A    between atoms: CA6_12  and  OA6_13 
REMARK    8  A    between atoms: CB2_15  and  OB2_20 
REMARK    9  A    between atoms: CB3_16  and  OB3_21 
REMARK   10  A    between atoms: CB4_17  and  OB4_22 
REMARK   11  A    between atoms: CB5_18  and  CB6_19 
REMARK   12  A    between atoms: CB6_19  and  OB6_24 
REMARK   13  A    between atoms: OB4_22  and  CD1_25 
REMARK   14  A    between atoms: CD2_26  and  OD2_31 
REMARK   15  A    between atoms: CD3_27  and  OD3_32 
REMARK   16  A    between atoms: CD4_28  and  OD4_33 
REMARK   17  A    between atoms: CD5_29  and  CD6_30 
REMARK   18  A    between atoms: CD6_30  and  OD6_35 
REMARK   19  A    between atoms: OD4_33  and  CD7_36 
ROOT
ATOM      1  CB1 MOL d          15.918  14.364  36.586  0.00  0.00     0.159 C 
ATOM      2  CB2 MOL d          16.236  14.285  38.154  0.00  0.00     0.110 C 
ATOM      3  CB3 MOL d          14.981  14.606  39.046  0.00  0.00     0.092 C 
ATOM      4  CB4 MOL d          14.503  16.046  38.669  0.00  0.00     0.096 C 
ATOM      5  CB5 MOL d          14.094  16.020  37.053  0.00  0.00     0.089 C 
ATOM      6  OB5 MOL d          15.299  15.674  36.264  0.00  0.00    -0.348 OA
ATOM      7  H12 MOL d          16.857  14.276  36.020  0.00  0.00     0.133 H 
ATOM      8  H13 MOL d          17.005  15.036  38.388  0.00  0.00     0.094 H 
ATOM      9  H14 MOL d          14.176  13.882  38.852  0.00  0.00     0.091 H 
ATOM     10  H15 MOL d          15.306  16.777  38.846  0.00  0.00     0.091 H 
ATOM     11  H16 MOL d          13.309  15.266  36.896  0.00  0.00     0.090 H 
ENDROOT
BRANCH   4  12
ATOM     12  OB4 MOL d          13.373  16.370  39.461  0.00  0.00    -0.348 OA
BRANCH  12  13
ATOM     13  CD1 MOL d          12.463  15.226  39.583  0.00  0.00     0.159 C 
ATOM     14  CD2 MOL d          10.954  15.544  39.231  0.00  0.00     0.110 C 
ATOM     15  CD3 MOL d          10.421  16.629  40.265  0.00  0.00     0.092 C 
ATOM     16  H23 MOL d          10.343  14.632  39.307  0.00  0.00     0.094 H 
ATOM     17  CD4 MOL d          10.495  16.023  41.703  0.00  0.00     0.092 C 
ATOM     18  H24 MOL d          11.031  17.542  40.204  0.00  0.00     0.091 H 
ATOM     19  CD5 MOL d          12.055  15.655  42.035  0.00  0.00     0.089 C 
ATOM     20  H25 MOL d           9.878  15.113  41.751  0.00  0.00     0.091 H 
ATOM     21  OD5 MOL d          12.542  14.691  40.992  0.00  0.00    -0.348 OA
ATOM     22  H26 MOL d          12.660  16.572  41.999  0.00  0.00     0.090 H 
ATOM     23  H22 MOL d          12.810  14.447  38.888  0.00  0.00     0.133 H 
BRANCH  14  24
ATOM     24  OD2 MOL d          10.923  16.040  37.878  0.00  0.00    -0.388 OA
ATOM     25  H29 MOL d          10.374  15.474  37.347  0.00  0.00     0.210 HD
ENDBRANCH  14  24
BRANCH  15  26
ATOM     26  OD3 MOL d           9.078  16.925  39.978  0.00  0.00    -0.390 OA
ATOM     27  H30 MOL d           9.030  17.416  39.166  0.00  0.00     0.210 HD
ENDBRANCH  15  26
BRANCH  17  28
ATOM     28  OD4 MOL d          10.015  16.992  42.697  0.00  0.00    -0.385 OA
BRANCH  28  29
ATOM     29  CD7 MOL d           8.709  16.690  43.256  0.00  0.00     0.005 C 
ATOM     30  H32 MOL d           7.925  17.081  42.590  0.00  0.00     0.066 H 
ATOM     31  H33 MOL d           8.616  17.161  44.246  0.00  0.00     0.066 H 
ATOM     32  H34 MOL d           8.595  15.600  43.355  0.00  0.00     0.066 H 
ENDBRANCH  28  29
ENDBRANCH  17  28
BRANCH  19  33
ATOM     33  CD6 MOL d          12.188  15.018  43.450  0.00  0.00     0.043 C 
ATOM     34  H27 MOL d          12.569  13.991  43.344  0.00  0.00     0.078 H 
ATOM     35  H28 MOL d          11.195  14.993  43.924  0.00  0.00     0.078 H 
BRANCH  33  36
ATOM     36  OD6 MOL d          13.083  15.762  44.284  0.00  0.00    -0.398 OA
ATOM     37  H31 MOL d          12.891  15.578  45.196  0.00  0.00     0.209 HD
ENDBRANCH  33  36
ENDBRANCH  19  33
ENDBRANCH  12  13
ENDBRANCH   4  12
BRANCH   3  38
ATOM     38  OB3 MOL d          15.375  14.534  40.439  0.00  0.00    -0.390 OA
ATOM     39  H20 MOL d          15.035  15.291  40.902  0.00  0.00     0.210 HD
ENDBRANCH   3  38
BRANCH   5  40
ATOM     40  CB6 MOL d          13.604  17.364  36.551  0.00  0.00     0.043 C 
ATOM     41  H17 MOL d          12.771  17.206  35.851  0.00  0.00     0.078 H 
ATOM     42  H18 MOL d          14.427  17.876  36.030  0.00  0.00     0.078 H 
BRANCH  40  43
ATOM     43  OB6 MOL d          13.170  18.155  37.605  0.00  0.00    -0.398 OA
ATOM     44  H21 MOL d          13.615  18.994  37.574  0.00  0.00     0.209 HD
ENDBRANCH  40  43
ENDBRANCH   5  40
BRANCH   2  45
ATOM     45  OB2 MOL d          16.782  12.974  38.429  0.00  0.00    -0.388 OA
ATOM     46  H19 MOL d          16.758  12.450  37.637  0.00  0.00     0.210 HD
ENDBRANCH   2  45
BRANCH   1  47
ATOM     47  OA4 MOL d          15.078  13.268  36.252  0.00  0.00    -0.348 OA
BRANCH  47  48
ATOM     48  CA4 MOL d          15.142  12.922  34.974  0.00  0.00     0.090 C 
ATOM     49  CA3 MOL d          15.902  11.551  34.848  0.00  0.00     0.094 C 
ATOM     50  CA2 MOL d          15.554  10.862  33.482  0.00  0.00     0.121 C 
ATOM     51  H4  MOL d          15.555  10.899  35.664  0.00  0.00     0.091 H 
ATOM     52  CA1 MOL d          14.022  10.735  33.371  0.00  0.00     0.159 C 
ATOM     53  H2  MOL d          15.892  11.538  32.683  0.00  0.00     0.099 H 
ATOM     54  NA1 MOL d          13.520   9.672  32.762  0.00  0.00    -0.120 NA
ATOM     55  NA5 MOL d          13.154  11.746  33.890  0.00  0.00    -0.365 N 
ATOM     56  CA5 MOL d          13.686  12.905  34.631  0.00  0.00     0.059 C 
ATOM     57  H8  MOL d          12.138  11.663  33.743  0.00  0.00     0.161 HD
ATOM     58  H7  MOL d          13.131  12.978  35.578  0.00  0.00     0.079 H 
ATOM     59  H6  MOL d          15.670  13.675  34.370  0.00  0.00     0.090 H 
BRANCH  49  60
ATOM     60  OA3 MOL d          17.217  11.683  34.962  0.00  0.00    -0.390 OA
ATOM     61  H5  MOL d          17.641  10.887  34.663  0.00  0.00     0.210 HD
ENDBRANCH  49  60
BRANCH  50  62
ATOM     62  OA2 MOL d          16.171   9.688  33.276  0.00  0.00    -0.385 OA
ATOM     63  H3  MOL d          17.110   9.808  33.350  0.00  0.00     0.210 HD
ENDBRANCH  50  62
BRANCH  54  64
ATOM     64  OA7 MOL d          12.202   9.581  32.681  0.00  0.00    -0.265 OA
ATOM     65  H1  MOL d          11.851  10.388  32.323  0.00  0.00     0.247 HD
ENDBRANCH  54  64
BRANCH  56  66
ATOM     66  CA6 MOL d          13.372  14.151  33.742  0.00  0.00     0.038 C 
ATOM     67  H9  MOL d          12.591  14.754  34.229  0.00  0.00     0.077 H 
ATOM     68  H10 MOL d          13.013  13.811  32.759  0.00  0.00     0.077 H 
BRANCH  66  69
ATOM     69  OA6 MOL d          14.493  14.921  33.570  0.00  0.00    -0.399 OA
ATOM     70  H11 MOL d          15.090  14.482  32.975  0.00  0.00     0.209 HD
ENDBRANCH  66  69
ENDBRANCH  56  66
ENDBRANCH  47  48
ENDBRANCH   1  47
TORSDOF 19
ENDMDL
MODEL 9
REMARK VINA RESULT:      -5.0      1.936      3.941
REMARK  19 active torsions:
REMARK  status: ('A' for Active; 'I' for Inactive)
REMARK    1  A    between atoms: NA1_2  and  OA7_3 
REMARK    2  A    between atoms: CA2_4  and  OA2_5 
REMARK    3  A    between atoms: CA3_6  and  OA3_7 
REMARK    4  A    between atoms: CA4_8  and  OA4_9 
REMARK    5  A    between atoms: OA4_9  and  CB1_14 
REMARK    6  A    between atoms: CA5_10  and  CA6_12 
REMARK    7  A    between atoms: CA6_12  and  OA6_13 
REMARK    8  A    between atoms: CB2_15  and  OB2_20 
REMARK    9  A    between atoms: CB3_16  and  OB3_21 
REMARK   10  A    between atoms: CB4_17  and  OB4_22 
REMARK   11  A    between atoms: CB5_18  and  CB6_19 
REMARK   12  A    between atoms: CB6_19  and  OB6_24 
REMARK   13  A    between atoms: OB4_22  and  CD1_25 
REMARK   14  A    between atoms: CD2_26  and  OD2_31 
REMARK   15  A    between atoms: CD3_27  and  OD3_32 
REMARK   16  A    between atoms: CD4_28  and  OD4_33 
REMARK   17  A    between atoms: CD5_29  and  CD6_30 
REMARK   18  A    between atoms: CD6_30  and  OD6_35 
REMARK   19  A    between atoms: OD4_33  and  CD7_36 
ROOT
ATOM      1  CB1 MOL d          12.364  15.821  37.388  0.00  0.00     0.159 C 
ATOM      2  CB2 MOL d          13.009  14.395  37.731  0.00  0.00     0.110 C 
ATOM      3  CB3 MOL d          14.434  14.203  37.092  0.00  0.00     0.092 C 
ATOM      4  CB4 MOL d          14.270  14.358  35.545  0.00  0.00     0.096 C 
ATOM      5  CB5 MOL d          13.695  15.898  35.264  0.00  0.00     0.089 C 
ATOM      6  OB5 MOL d          12.374  16.038  35.920  0.00  0.00    -0.348 OA
ATOM      7  H12 MOL d          11.320  15.841  37.735  0.00  0.00     0.133 H 
ATOM      8  H13 MOL d          12.356  13.613  37.317  0.00  0.00     0.094 H 
ATOM      9  H14 MOL d          15.131  14.963  37.473  0.00  0.00     0.091 H 
ATOM     10  H15 MOL d          13.563  13.611  35.155  0.00  0.00     0.091 H 
ATOM     11  H16 MOL d          14.404  16.626  35.684  0.00  0.00     0.090 H 
ENDROOT
BRANCH   4  12
ATOM     12  OB4 MOL d          15.538  14.185  34.935  0.00  0.00    -0.348 OA
BRANCH  12  13
ATOM     13  CD1 MOL d          15.449  13.308  33.762  0.00  0.00     0.159 C 
ATOM     14  CD2 MOL d          15.271  11.773  34.100  0.00  0.00     0.110 C 
ATOM     15  CD3 MOL d          16.555  11.288  34.903  0.00  0.00     0.092 C 
ATOM     16  H23 MOL d          15.173  11.187  33.175  0.00  0.00     0.094 H 
ATOM     17  CD4 MOL d          17.809  11.469  33.990  0.00  0.00     0.092 C 
ATOM     18  H24 MOL d          16.668  11.875  35.827  0.00  0.00     0.091 H 
ATOM     19  CD5 MOL d          17.955  13.055  33.610  0.00  0.00     0.089 C 
ATOM     20  H25 MOL d          17.685  10.875  33.072  0.00  0.00     0.091 H 
ATOM     21  OD5 MOL d          16.692  13.490  32.925  0.00  0.00    -0.348 OA
ATOM     22  H26 MOL d          18.093  13.638  34.531  0.00  0.00     0.090 H 
ATOM     23  H22 MOL d          14.575  13.624  33.174  0.00  0.00     0.133 H 
BRANCH  14  24
ATOM     24  OD2 MOL d          14.071  11.643  34.888  0.00  0.00    -0.388 OA
ATOM     25  H29 MOL d          14.117  12.231  35.634  0.00  0.00     0.210 HD
ENDBRANCH  14  24
BRANCH  15  26
ATOM     26  OD3 MOL d          16.424   9.923  35.211  0.00  0.00    -0.390 OA
ATOM     27  H30 MOL d          16.732   9.769  36.097  0.00  0.00     0.210 HD
ENDBRANCH  15  26
BRANCH  17  28
ATOM     28  OD4 MOL d          19.025  11.037  34.692  0.00  0.00    -0.385 OA
BRANCH  28  29
ATOM     29  CD7 MOL d          19.104  11.456  36.081  0.00  0.00     0.005 C 
ATOM     30  H32 MOL d          19.759  12.337  36.162  0.00  0.00     0.066 H 
ATOM     31  H33 MOL d          19.515  10.637  36.689  0.00  0.00     0.066 H 
ATOM     32  H34 MOL d          18.097  11.713  36.444  0.00  0.00     0.066 H 
ENDBRANCH  28  29
ENDBRANCH  17  28
BRANCH  19  33
ATOM     33  CD6 MOL d          19.176  13.293  32.673  0.00  0.00     0.043 C 
ATOM     34  H27 MOL d          18.976  12.820  31.700  0.00  0.00     0.078 H 
ATOM     35  H28 MOL d          20.068  12.835  33.127  0.00  0.00     0.078 H 
BRANCH  33  36
ATOM     36  OD6 MOL d          19.422  14.689  32.470  0.00  0.00    -0.398 OA
ATOM     37  H31 MOL d          19.016  15.186  33.169  0.00  0.00     0.209 HD
ENDBRANCH  33  36
ENDBRANCH  19  33
ENDBRANCH  12  13
ENDBRANCH   4  12
BRANCH   3  38
ATOM     38  OB3 MOL d          14.919  12.881  37.436  0.00  0.00    -0.390 OA
ATOM     39  H20 MOL d          15.847  12.825  37.239  0.00  0.00     0.210 HD
ENDBRANCH   3  38
BRANCH   5  40
ATOM     40  CB6 MOL d          13.492  16.188  33.790  0.00  0.00     0.043 C 
ATOM     41  H17 MOL d          12.764  17.005  33.680  0.00  0.00     0.078 H 
ATOM     42  H18 MOL d          13.107  15.285  33.294  0.00  0.00     0.078 H 
BRANCH  40  43
ATOM     43  OB6 MOL d          14.688  16.561  33.194  0.00  0.00    -0.398 OA
ATOM     44  H21 MOL d          15.091  15.800  32.792  0.00  0.00     0.209 HD
ENDBRANCH  40  43
ENDBRANCH   5  40
BRANCH   2  45
ATOM     45  OB2 MOL d          13.031  14.254  39.171  0.00  0.00    -0.388 OA
ATOM     46  H19 MOL d          13.915  14.397  39.488  0.00  0.00     0.210 HD
ENDBRANCH   2  45
BRANCH   1  47
ATOM     47  OA4 MOL d          13.097  16.815  38.090  0.00  0.00    -0.348 OA
BRANCH  47  48
ATOM     48  CA4 MOL d          12.377  17.464  38.995  0.00  0.00     0.090 C 
ATOM     49  CA3 MOL d          10.856  17.126  38.781  0.00  0.00     0.094 C 
ATOM     50  CA2 MOL d          10.045  17.425  40.091  0.00  0.00     0.121 C 
ATOM     51  H4  MOL d          10.778  16.050  38.562  0.00  0.00     0.091 H 
ATOM     52  CA1 MOL d          10.694  16.655  41.257  0.00  0.00     0.159 C 
ATOM     53  H2  MOL d          10.151  18.499  40.300  0.00  0.00     0.099 H 
ATOM     54  NA1 MOL d           9.909  16.174  42.210  0.00  0.00    -0.120 NA
ATOM     55  NA5 MOL d          12.110  16.477  41.332  0.00  0.00    -0.365 N 
ATOM     56  CA5 MOL d          12.999  16.944  40.252  0.00  0.00     0.059 C 
ATOM     57  H8  MOL d          12.518  16.013  42.157  0.00  0.00     0.161 HD
ATOM     58  H7  MOL d          13.647  16.103  39.967  0.00  0.00     0.079 H 
ATOM     59  H6  MOL d          12.510  18.553  38.922  0.00  0.00     0.090 H 
BRANCH  49  60
ATOM     60  OA3 MOL d          10.323  17.788  37.762  0.00  0.00    -0.390 OA
ATOM     61  H5  MOL d          11.001  17.988  37.127  0.00  0.00     0.210 HD
ENDBRANCH  49  60
BRANCH  50  62
ATOM     62  OA2 MOL d           8.728  17.182  40.000  0.00  0.00    -0.385 OA
ATOM     63  H3  MOL d           8.524  16.374  40.455  0.00  0.00     0.210 HD
ENDBRANCH  50  62
BRANCH  54  64
ATOM     64  OA7 MOL d          10.486  15.513  43.200  0.00  0.00    -0.265 OA
ATOM     65  H1  MOL d          11.323  15.172  42.907  0.00  0.00     0.247 HD
ENDBRANCH  54  64
BRANCH  56  66
ATOM     66  CA6 MOL d          13.864  18.082  40.883  0.00  0.00     0.038 C 
ATOM     67  H9  MOL d          14.392  18.620  40.082  0.00  0.00     0.077 H 
ATOM     68  H10 MOL d          14.598  17.637  41.572  0.00  0.00     0.077 H 
BRANCH  66  69
ATOM     69  OA6 MOL d          13.076  18.965  41.576  0.00  0.00    -0.399 OA
ATOM     70  H11 MOL d          13.157  18.796  42.507  0.00  0.00     0.209 HD
ENDBRANCH  66  69
ENDBRANCH  56  66
ENDBRANCH  47  48
ENDBRANCH   1  47
TORSDOF 19
ENDMDL
MODEL 10
REMARK VINA RESULT:      -4.9      3.089      8.562
REMARK  19 active torsions:
REMARK  status: ('A' for Active; 'I' for Inactive)
REMARK    1  A    between atoms: NA1_2  and  OA7_3 
REMARK    2  A    between atoms: CA2_4  and  OA2_5 
REMARK    3  A    between atoms: CA3_6  and  OA3_7 
REMARK    4  A    between atoms: CA4_8  and  OA4_9 
REMARK    5  A    between atoms: OA4_9  and  CB1_14 
REMARK    6  A    between atoms: CA5_10  and  CA6_12 
REMARK    7  A    between atoms: CA6_12  and  OA6_13 
REMARK    8  A    between atoms: CB2_15  and  OB2_20 
REMARK    9  A    between atoms: CB3_16  and  OB3_21 
REMARK   10  A    between atoms: CB4_17  and  OB4_22 
REMARK   11  A    between atoms: CB5_18  and  CB6_19 
REMARK   12  A    between atoms: CB6_19  and  OB6_24 
REMARK   13  A    between atoms: OB4_22  and  CD1_25 
REMARK   14  A    between atoms: CD2_26  and  OD2_31 
REMARK   15  A    between atoms: CD3_27  and  OD3_32 
REMARK   16  A    between atoms: CD4_28  and  OD4_33 
REMARK   17  A    between atoms: CD5_29  and  CD6_30 
REMARK   18  A    between atoms: CD6_30  and  OD6_35 
REMARK   19  A    between atoms: OD4_33  and  CD7_36 
ROOT
ATOM      1  CB1 MOL d          12.797  14.751  36.278  0.00  0.00     0.159 C 
ATOM      2  CB2 MOL d          11.614  15.786  36.591  0.00  0.00     0.110 C 
ATOM      3  CB3 MOL d          12.039  16.906  37.610  0.00  0.00     0.092 C 
ATOM      4  CB4 MOL d          12.484  16.187  38.926  0.00  0.00     0.096 C 
ATOM      5  CB5 MOL d          13.780  15.212  38.538  0.00  0.00     0.089 C 
ATOM      6  OB5 MOL d          13.336  14.204  37.548  0.00  0.00    -0.348 OA
ATOM      7  H12 MOL d          12.401  13.917  35.680  0.00  0.00     0.133 H 
ATOM      8  H13 MOL d          10.781  15.229  37.045  0.00  0.00     0.094 H 
ATOM      9  H14 MOL d          12.874  17.497  37.206  0.00  0.00     0.091 H 
ATOM     10  H15 MOL d          11.661  15.582  39.332  0.00  0.00     0.091 H 
ATOM     11  H16 MOL d          14.580  15.834  38.112  0.00  0.00     0.090 H 
ENDROOT
BRANCH   4  12
ATOM     12  OB4 MOL d          12.871  17.171  39.871  0.00  0.00    -0.348 OA
BRANCH  12  13
ATOM     13  CD1 MOL d          11.705  17.886  40.401  0.00  0.00     0.159 C 
ATOM     14  CD2 MOL d          11.892  18.457  41.864  0.00  0.00     0.110 C 
ATOM     15  CD3 MOL d          12.129  17.231  42.850  0.00  0.00     0.092 C 
ATOM     16  H23 MOL d          10.995  19.011  42.177  0.00  0.00     0.094 H 
ATOM     17  CD4 MOL d          10.865  16.314  42.815  0.00  0.00     0.092 C 
ATOM     18  H24 MOL d          13.020  16.664  42.540  0.00  0.00     0.091 H 
ATOM     19  CD5 MOL d          10.656  15.768  41.286  0.00  0.00     0.089 C 
ATOM     20  H25 MOL d           9.983  16.893  43.129  0.00  0.00     0.091 H 
ATOM     21  OD5 MOL d          10.515  16.957  40.380  0.00  0.00    -0.348 OA
ATOM     22  H26 MOL d          11.536  15.181  40.987  0.00  0.00     0.090 H 
ATOM     23  H22 MOL d          11.502  18.737  39.735  0.00  0.00     0.133 H 
BRANCH  14  24
ATOM     24  OD2 MOL d          13.027  19.345  41.837  0.00  0.00    -0.388 OA
ATOM     25  H29 MOL d          13.218  19.641  42.720  0.00  0.00     0.210 HD
ENDBRANCH  14  24
BRANCH  15  26
ATOM     26  OD3 MOL d          12.293  17.712  44.160  0.00  0.00    -0.390 OA
ATOM     27  H30 MOL d          11.824  17.147  44.764  0.00  0.00     0.210 HD
ENDBRANCH  15  26
BRANCH  17  28
ATOM     28  OD4 MOL d          11.039  15.162  43.710  0.00  0.00    -0.385 OA
BRANCH  28  29
ATOM     29  CD7 MOL d          12.294  14.449  43.541  0.00  0.00     0.005 C 
ATOM     30  H32 MOL d          13.133  15.131  43.741  0.00  0.00     0.066 H 
ATOM     31  H33 MOL d          12.366  14.072  42.510  0.00  0.00     0.066 H 
ATOM     32  H34 MOL d          12.333  13.603  44.244  0.00  0.00     0.066 H 
ENDBRANCH  28  29
ENDBRANCH  17  28
BRANCH  19  33
ATOM     33  CD6 MOL d           9.389  14.870  41.184  0.00  0.00     0.043 C 
ATOM     34  H27 MOL d           9.704  13.821  41.077  0.00  0.00     0.078 H 
ATOM     35  H28 MOL d           8.808  15.171  40.300  0.00  0.00     0.078 H 
BRANCH  33  36
ATOM     36  OD6 MOL d           8.561  14.989  42.347  0.00  0.00    -0.398 OA
ATOM     37  H31 MOL d           8.152  14.152  42.530  0.00  0.00     0.209 HD
ENDBRANCH  33  36
ENDBRANCH  19  33
ENDBRANCH  12  13
ENDBRANCH   4  12
BRANCH   3  38
ATOM     38  OB3 MOL d          10.901  17.771  37.847  0.00  0.00    -0.390 OA
ATOM     39  H20 MOL d          11.202  18.665  37.958  0.00  0.00     0.210 HD
ENDBRANCH   3  38
BRANCH   5  40
ATOM     40  CB6 MOL d          14.320  14.452  39.733  0.00  0.00     0.043 C 
ATOM     41  H17 MOL d          15.229  13.909  39.435  0.00  0.00     0.078 H 
ATOM     42  H18 MOL d          13.561  13.735  40.078  0.00  0.00     0.078 H 
BRANCH  40  43
ATOM     43  OB6 MOL d          14.630  15.322  40.769  0.00  0.00    -0.398 OA
ATOM     44  H21 MOL d          13.873  15.418  41.337  0.00  0.00     0.209 HD
ENDBRANCH  40  43
ENDBRANCH   5  40
BRANCH   2  45
ATOM     45  OB2 MOL d          11.161  16.335  35.331  0.00  0.00    -0.388 OA
ATOM     46  H19 MOL d          10.436  16.928  35.488  0.00  0.00     0.210 HD
ENDBRANCH   2  45
BRANCH   1  47
ATOM     47  OA4 MOL d          13.784  15.432  35.515  0.00  0.00    -0.348 OA
BRANCH  47  48
ATOM     48  CA4 MOL d          14.416  14.650  34.651  0.00  0.00     0.090 C 
ATOM     49  CA3 MOL d          15.518  13.826  35.412  0.00  0.00     0.094 C 
ATOM     50  CA2 MOL d          15.915  12.556  34.581  0.00  0.00     0.121 C 
ATOM     51  H4  MOL d          15.089  13.494  36.369  0.00  0.00     0.091 H 
ATOM     52  CA1 MOL d          14.639  11.749  34.275  0.00  0.00     0.159 C 
ATOM     53  H2  MOL d          16.325  12.910  33.623  0.00  0.00     0.099 H 
ATOM     54  NA1 MOL d          14.721  10.428  34.240  0.00  0.00    -0.120 NA
ATOM     55  NA5 MOL d          13.394  12.401  34.011  0.00  0.00    -0.365 N 
ATOM     56  CA5 MOL d          13.262  13.867  34.108  0.00  0.00     0.059 C 
ATOM     57  H8  MOL d          12.574  11.837  33.746  0.00  0.00     0.161 HD
ATOM     58  H7  MOL d          12.397  14.081  34.753  0.00  0.00     0.079 H 
ATOM     59  H6  MOL d          14.898  15.229  33.849  0.00  0.00     0.090 H 
BRANCH  49  60
ATOM     60  OA3 MOL d          16.601  14.545  35.678  0.00  0.00    -0.390 OA
ATOM     61  H5  MOL d          17.366  14.109  35.319  0.00  0.00     0.210 HD
ENDBRANCH  49  60
BRANCH  50  62
ATOM     62  OA2 MOL d          16.867  11.795  35.144  0.00  0.00    -0.385 OA
ATOM     63  H3  MOL d          16.769  10.898  34.850  0.00  0.00     0.210 HD
ENDBRANCH  50  62
BRANCH  54  64
ATOM     64  OA7 MOL d          13.612   9.754  33.979  0.00  0.00    -0.265 OA
ATOM     65  H1  MOL d          13.351   9.264  34.750  0.00  0.00     0.247 HD
ENDBRANCH  54  64
BRANCH  56  66
ATOM     66  CA6 MOL d          12.969  14.360  32.655  0.00  0.00     0.038 C 
ATOM     67  H9  MOL d          12.349  13.612  32.139  0.00  0.00     0.077 H 
ATOM     68  H10 MOL d          13.921  14.482  32.117  0.00  0.00     0.077 H 
BRANCH  66  69
ATOM     69  OA6 MOL d          12.305  15.560  32.673  0.00  0.00    -0.399 OA
ATOM     70  H11 MOL d          12.291  15.926  31.796  0.00  0.00     0.209 HD
ENDBRANCH  66  69
ENDBRANCH  56  66
ENDBRANCH  47  48
ENDBRANCH   1  47
TORSDOF 19
ENDMDL
