MODEL 1
REMARK VINA RESULT:      -9.4      0.000      0.000
REMARK  6 active torsions:
REMARK  status: ('A' for Active; 'I' for Inactive)
REMARK    1  A    between atoms: C2_2  and  O5_5 
REMARK    2  A    between atoms: O5_5  and  C6_6 
REMARK    3  A    between atoms: C11_9  and  N16_12 
REMARK    4  A    between atoms: N16_12  and  C18_13 
REMARK    5  A    between atoms: C23_17  and  C26_19 
REMARK    6  A    between atoms: C29_21  and  C36_25 
REMARK       I    between atoms: C36_25  and  N38_27 
ROOT
ATOM      1  C18 STJ d          20.972  44.402  54.806  0.00  0.00     0.131 A 
ATOM      2  N19 STJ d          21.063  44.498  56.161  0.00  0.00    -0.224 NA
ATOM      3  C20 STJ d          22.263  44.629  56.780  0.00  0.00     0.089 A 
ATOM      4  N22 STJ d          23.402  44.661  56.047  0.00  0.00    -0.241 NA
ATOM      5  C23 STJ d          23.373  44.567  54.693  0.00  0.00     0.072 A 
ATOM      6  C24 STJ d          22.135  44.429  54.039  0.00  0.00    -0.010 A 
ATOM      7  H6  STJ d          22.311  44.709  57.860  0.00  0.00     0.146 H 
ATOM      8  H7  STJ d          22.087  44.345  52.959  0.00  0.00     0.093 H 
ENDROOT
BRANCH   1   9
ATOM      9  N16 STJ d          19.789  44.272  54.149  0.00  0.00    -0.341 N 
ATOM     10  H5  STJ d          19.068  44.963  54.400  0.00  0.00     0.167 HD
BRANCH   9  11
ATOM     11  C11 STJ d          19.422  43.369  53.212  0.00  0.00     0.033 A 
ATOM     12  C9  STJ d          20.264  42.872  52.213  0.00  0.00    -0.055 A 
ATOM     13  C7  STJ d          19.791  41.947  51.277  0.00  0.00    -0.048 A 
ATOM     14  H2  STJ d          21.294  43.206  52.165  0.00  0.00     0.087 H 
ATOM     15  C6  STJ d          18.446  41.518  51.327  0.00  0.00     0.078 A 
ATOM     16  H1  STJ d          20.456  41.561  50.514  0.00  0.00     0.087 H 
ATOM     17  C14 STJ d          17.597  42.026  52.306  0.00  0.00    -0.048 A 
ATOM     18  C12 STJ d          18.078  42.948  53.244  0.00  0.00    -0.055 A 
ATOM     19  H4  STJ d          16.562  41.706  52.343  0.00  0.00     0.087 H 
ATOM     20  H3  STJ d          17.409  43.341  54.003  0.00  0.00     0.087 H 
BRANCH  15  21
ATOM     21  O5  STJ d          17.941  40.610  50.392  0.00  0.00    -0.255 OA
BRANCH  21  22
ATOM     22  C2  STJ d          17.706  39.268  50.774  0.00  0.00     0.530 C 
ATOM     23  F1  STJ d          18.523  39.024  51.828  0.00  0.00    -0.144 F 
ATOM     24  F3  STJ d          17.983  38.442  49.727  0.00  0.00    -0.144 F 
ATOM     25  F4  STJ d          16.405  39.127  51.143  0.00  0.00    -0.144 F 
ENDBRANCH  21  22
ENDBRANCH  15  21
ENDBRANCH   9  11
ENDBRANCH   1   9
BRANCH   5  26
ATOM     26  C26 STJ d          24.647  44.596  53.940  0.00  0.00    -0.006 A 
ATOM     27  C27 STJ d          24.614  45.111  52.640  0.00  0.00    -0.056 A 
ATOM     28  C29 STJ d          25.766  45.189  51.857  0.00  0.00     0.032 A 
ATOM     29  H8  STJ d          23.672  45.456  52.231  0.00  0.00     0.086 H 
ATOM     30  C30 STJ d          26.990  44.731  52.382  0.00  0.00    -0.068 A 
ATOM     31  C32 STJ d          27.035  44.210  53.688  0.00  0.00    -0.081 A 
ATOM     32  H9  STJ d          27.892  44.780  51.782  0.00  0.00     0.085 H 
ATOM     33  C34 STJ d          25.866  44.142  54.472  0.00  0.00    -0.071 A 
ATOM     34  H10 STJ d          27.977  43.859  54.095  0.00  0.00     0.083 H 
ATOM     35  H11 STJ d          25.906  43.740  55.478  0.00  0.00     0.084 H 
BRANCH  28  36
ATOM     36  C36 STJ d          25.568  45.771  50.471  0.00  0.00     0.249 C 
ATOM     37  O37 STJ d          26.037  45.143  49.535  0.00  0.00    -0.268 OA
ATOM     38  N38 STJ d          24.944  46.954  50.269  0.00  0.00    -0.366 N 
ATOM     39  H12 STJ d          24.831  47.307  49.340  0.00  0.00     0.159 HD
ATOM     40  H13 STJ d          24.596  47.475  51.048  0.00  0.00     0.159 HD
ENDBRANCH  28  36
ENDBRANCH   5  26
TORSDOF 6
ENDMDL
MODEL 2
REMARK VINA RESULT:      -8.4      2.972      4.898
REMARK  6 active torsions:
REMARK  status: ('A' for Active; 'I' for Inactive)
REMARK    1  A    between atoms: C2_2  and  O5_5 
REMARK    2  A    between atoms: O5_5  and  C6_6 
REMARK    3  A    between atoms: C11_9  and  N16_12 
REMARK    4  A    between atoms: N16_12  and  C18_13 
REMARK    5  A    between atoms: C23_17  and  C26_19 
REMARK    6  A    between atoms: C29_21  and  C36_25 
REMARK       I    between atoms: C36_25  and  N38_27 
ROOT
ATOM      1  C18 STJ d          21.176  43.951  53.613  0.00  0.00     0.131 A 
ATOM      2  N19 STJ d          22.447  43.676  53.205  0.00  0.00    -0.224 NA
ATOM      3  C20 STJ d          23.498  43.786  54.054  0.00  0.00     0.089 A 
ATOM      4  N22 STJ d          23.297  44.180  55.334  0.00  0.00    -0.241 NA
ATOM      5  C23 STJ d          22.053  44.469  55.796  0.00  0.00     0.072 A 
ATOM      6  C24 STJ d          20.954  44.362  54.926  0.00  0.00    -0.010 A 
ATOM      7  H6  STJ d          24.500  43.558  53.708  0.00  0.00     0.146 H 
ATOM      8  H7  STJ d          19.952  44.593  55.270  0.00  0.00     0.093 H 
ENDROOT
BRANCH   1   9
ATOM      9  N16 STJ d          20.096  43.850  52.795  0.00  0.00    -0.341 N 
ATOM     10  H5  STJ d          19.698  44.747  52.480  0.00  0.00     0.167 HD
BRANCH   9  11
ATOM     11  C11 STJ d          19.468  42.745  52.333  0.00  0.00     0.033 A 
ATOM     12  C9  STJ d          20.062  41.770  51.529  0.00  0.00    -0.055 A 
ATOM     13  C7  STJ d          19.329  40.665  51.087  0.00  0.00    -0.048 A 
ATOM     14  H2  STJ d          21.104  41.871  51.245  0.00  0.00     0.087 H 
ATOM     15  C6  STJ d          17.968  40.534  51.442  0.00  0.00     0.078 A 
ATOM     16  H1  STJ d          19.804  39.909  50.473  0.00  0.00     0.087 H 
ATOM     17  C14 STJ d          17.364  41.513  52.226  0.00  0.00    -0.048 A 
ATOM     18  C12 STJ d          18.105  42.615  52.670  0.00  0.00    -0.055 A 
ATOM     19  H4  STJ d          16.317  41.422  52.494  0.00  0.00     0.087 H 
ATOM     20  H3  STJ d          17.627  43.376  53.277  0.00  0.00     0.087 H 
BRANCH  15  21
ATOM     21  O5  STJ d          17.205  39.450  50.999  0.00  0.00    -0.255 OA
BRANCH  21  22
ATOM     22  C2  STJ d          17.071  39.207  49.612  0.00  0.00     0.530 C 
ATOM     23  F1  STJ d          17.135  40.418  49.006  0.00  0.00    -0.144 F 
ATOM     24  F3  STJ d          15.878  38.593  49.372  0.00  0.00    -0.144 F 
ATOM     25  F4  STJ d          18.093  38.414  49.194  0.00  0.00    -0.144 F 
ENDBRANCH  21  22
ENDBRANCH  15  21
ENDBRANCH   9  11
ENDBRANCH   1   9
BRANCH   5  26
ATOM     26  C26 STJ d          21.890  44.906  57.201  0.00  0.00    -0.006 A 
ATOM     27  C27 STJ d          22.621  46.024  57.616  0.00  0.00    -0.056 A 
ATOM     28  C29 STJ d          22.526  46.516  58.917  0.00  0.00     0.032 A 
ATOM     29  H8  STJ d          23.277  46.519  56.909  0.00  0.00     0.086 H 
ATOM     30  C30 STJ d          21.683  45.868  59.840  0.00  0.00    -0.068 A 
ATOM     31  C32 STJ d          20.943  44.741  59.435  0.00  0.00    -0.081 A 
ATOM     32  H9  STJ d          21.603  46.236  60.857  0.00  0.00     0.085 H 
ATOM     33  C34 STJ d          21.044  44.257  58.115  0.00  0.00    -0.071 A 
ATOM     34  H10 STJ d          20.292  44.242  60.143  0.00  0.00     0.083 H 
ATOM     35  H11 STJ d          20.472  43.389  57.808  0.00  0.00     0.084 H 
BRANCH  28  36
ATOM     36  C36 STJ d          23.378  47.735  59.213  0.00  0.00     0.249 C 
ATOM     37  O37 STJ d          24.546  47.535  59.505  0.00  0.00    -0.268 OA
ATOM     38  N38 STJ d          22.870  48.989  59.203  0.00  0.00    -0.366 N 
ATOM     39  H12 STJ d          23.462  49.769  59.403  0.00  0.00     0.159 HD
ATOM     40  H13 STJ d          21.903  49.134  58.997  0.00  0.00     0.159 HD
ENDBRANCH  28  36
ENDBRANCH   5  26
TORSDOF 6
ENDMDL
MODEL 3
REMARK VINA RESULT:      -8.3      1.859      2.062
REMARK  6 active torsions:
REMARK  status: ('A' for Active; 'I' for Inactive)
REMARK    1  A    between atoms: C2_2  and  O5_5 
REMARK    2  A    between atoms: O5_5  and  C6_6 
REMARK    3  A    between atoms: C11_9  and  N16_12 
REMARK    4  A    between atoms: N16_12  and  C18_13 
REMARK    5  A    between atoms: C23_17  and  C26_19 
REMARK    6  A    between atoms: C29_21  and  C36_25 
REMARK       I    between atoms: C36_25  and  N38_27 
ROOT
ATOM      1  C18 STJ d          21.040  44.763  55.956  0.00  0.00     0.131 A 
ATOM      2  N19 STJ d          21.202  44.271  57.215  0.00  0.00    -0.224 NA
ATOM      3  C20 STJ d          22.344  44.483  57.914  0.00  0.00     0.089 A 
ATOM      4  N22 STJ d          23.356  45.192  57.358  0.00  0.00    -0.241 NA
ATOM      5  C23 STJ d          23.253  45.705  56.105  0.00  0.00     0.072 A 
ATOM      6  C24 STJ d          22.074  45.491  55.369  0.00  0.00    -0.010 A 
ATOM      7  H6  STJ d          22.448  44.086  58.917  0.00  0.00     0.146 H 
ATOM      8  H7  STJ d          21.971  45.885  54.364  0.00  0.00     0.093 H 
ENDROOT
BRANCH   1   9
ATOM      9  N16 STJ d          19.910  44.576  55.224  0.00  0.00    -0.341 N 
ATOM     10  H5  STJ d          19.102  45.147  55.509  0.00  0.00     0.167 HD
BRANCH   9  11
ATOM     11  C11 STJ d          19.693  43.748  54.177  0.00  0.00     0.033 A 
ATOM     12  C9  STJ d          20.685  43.291  53.305  0.00  0.00    -0.055 A 
ATOM     13  C7  STJ d          20.363  42.446  52.239  0.00  0.00    -0.048 A 
ATOM     14  H2  STJ d          21.715  43.595  53.458  0.00  0.00     0.087 H 
ATOM     15  C6  STJ d          19.022  42.058  52.027  0.00  0.00     0.078 A 
ATOM     16  H1  STJ d          21.143  42.089  51.576  0.00  0.00     0.087 H 
ATOM     17  C14 STJ d          18.027  42.526  52.880  0.00  0.00    -0.048 A 
ATOM     18  C12 STJ d          18.355  43.368  53.949  0.00  0.00    -0.055 A 
ATOM     19  H4  STJ d          16.994  42.238  52.715  0.00  0.00     0.087 H 
ATOM     20  H3  STJ d          17.573  43.732  54.607  0.00  0.00     0.087 H 
BRANCH  15  21
ATOM     21  O5  STJ d          18.669  41.229  50.958  0.00  0.00    -0.255 OA
BRANCH  21  22
ATOM     22  C2  STJ d          18.223  39.910  51.210  0.00  0.00     0.530 C 
ATOM     23  F1  STJ d          18.711  39.145  50.203  0.00  0.00    -0.144 F 
ATOM     24  F3  STJ d          16.861  39.889  51.237  0.00  0.00    -0.144 F 
ATOM     25  F4  STJ d          18.718  39.489  52.404  0.00  0.00    -0.144 F 
ENDBRANCH  21  22
ENDBRANCH  15  21
ENDBRANCH   9  11
ENDBRANCH   1   9
BRANCH   5  26
ATOM     26  C26 STJ d          24.392  46.464  55.541  0.00  0.00    -0.006 A 
ATOM     27  C27 STJ d          24.629  46.341  54.168  0.00  0.00    -0.056 A 
ATOM     28  C29 STJ d          25.672  47.024  53.543  0.00  0.00     0.032 A 
ATOM     29  H8  STJ d          23.987  45.699  53.576  0.00  0.00     0.086 H 
ATOM     30  C30 STJ d          26.514  47.850  54.313  0.00  0.00    -0.068 A 
ATOM     31  C32 STJ d          26.287  47.980  55.696  0.00  0.00    -0.081 A 
ATOM     32  H9  STJ d          27.333  48.382  53.842  0.00  0.00     0.085 H 
ATOM     33  C34 STJ d          25.226  47.289  56.314  0.00  0.00    -0.071 A 
ATOM     34  H10 STJ d          26.932  48.617  56.289  0.00  0.00     0.083 H 
ATOM     35  H11 STJ d          25.054  47.393  57.379  0.00  0.00     0.084 H 
BRANCH  28  36
ATOM     36  C36 STJ d          25.798  46.790  52.051  0.00  0.00     0.249 C 
ATOM     37  O37 STJ d          24.918  46.134  51.518  0.00  0.00    -0.268 OA
ATOM     38  N38 STJ d          26.856  47.239  51.338  0.00  0.00    -0.366 N 
ATOM     39  H12 STJ d          26.906  47.066  50.355  0.00  0.00     0.159 HD
ATOM     40  H13 STJ d          27.588  47.745  51.795  0.00  0.00     0.159 HD
ENDBRANCH  28  36
ENDBRANCH   5  26
TORSDOF 6
ENDMDL
MODEL 4
REMARK VINA RESULT:      -7.4      4.324      8.354
REMARK  6 active torsions:
REMARK  status: ('A' for Active; 'I' for Inactive)
REMARK    1  A    between atoms: C2_2  and  O5_5 
REMARK    2  A    between atoms: O5_5  and  C6_6 
REMARK    3  A    between atoms: C11_9  and  N16_12 
REMARK    4  A    between atoms: N16_12  and  C18_13 
REMARK    5  A    between atoms: C23_17  and  C26_19 
REMARK    6  A    between atoms: C29_21  and  C36_25 
REMARK       I    between atoms: C36_25  and  N38_27 
ROOT
ATOM      1  C18 STJ d          21.086  43.748  54.649  0.00  0.00     0.131 A 
ATOM      2  N19 STJ d          19.992  44.272  55.269  0.00  0.00    -0.224 NA
ATOM      3  C20 STJ d          18.736  43.956  54.869  0.00  0.00     0.089 A 
ATOM      4  N22 STJ d          18.550  43.107  53.829  0.00  0.00    -0.241 NA
ATOM      5  C23 STJ d          19.603  42.556  53.172  0.00  0.00     0.072 A 
ATOM      6  C24 STJ d          20.911  42.877  53.575  0.00  0.00    -0.010 A 
ATOM      7  H6  STJ d          17.880  44.381  55.380  0.00  0.00     0.146 H 
ATOM      8  H7  STJ d          21.767  42.455  53.062  0.00  0.00     0.093 H 
ENDROOT
BRANCH   1   9
ATOM      9  N16 STJ d          22.360  44.038  55.022  0.00  0.00    -0.341 N 
ATOM     10  H5  STJ d          22.671  43.603  55.902  0.00  0.00     0.167 HD
BRANCH   9  11
ATOM     11  C11 STJ d          23.280  44.814  54.405  0.00  0.00     0.033 A 
ATOM     12  C9  STJ d          23.832  45.977  54.949  0.00  0.00    -0.055 A 
ATOM     13  C7  STJ d          24.770  46.725  54.230  0.00  0.00    -0.048 A 
ATOM     14  H2  STJ d          23.531  46.302  55.938  0.00  0.00     0.087 H 
ATOM     15  C6  STJ d          25.156  46.315  52.935  0.00  0.00     0.078 A 
ATOM     16  H1  STJ d          25.199  47.619  54.667  0.00  0.00     0.087 H 
ATOM     17  C14 STJ d          24.594  45.169  52.380  0.00  0.00    -0.048 A 
ATOM     18  C12 STJ d          23.659  44.421  53.106  0.00  0.00    -0.055 A 
ATOM     19  H4  STJ d          24.880  44.855  51.382  0.00  0.00     0.087 H 
ATOM     20  H3  STJ d          23.223  43.531  52.665  0.00  0.00     0.087 H 
BRANCH  15  21
ATOM     21  O5  STJ d          26.076  47.053  52.186  0.00  0.00    -0.255 OA
BRANCH  21  22
ATOM     22  C2  STJ d          25.619  47.896  51.145  0.00  0.00     0.530 C 
ATOM     23  F1  STJ d          26.697  48.605  50.728  0.00  0.00    -0.144 F 
ATOM     24  F3  STJ d          24.639  48.714  51.621  0.00  0.00    -0.144 F 
ATOM     25  F4  STJ d          25.134  47.134  50.130  0.00  0.00    -0.144 F 
ENDBRANCH  21  22
ENDBRANCH  15  21
ENDBRANCH   9  11
ENDBRANCH   1   9
BRANCH   5  26
ATOM     26  C26 STJ d          19.345  41.642  52.036  0.00  0.00    -0.006 A 
ATOM     27  C27 STJ d          18.210  40.827  52.112  0.00  0.00    -0.056 A 
ATOM     28  C29 STJ d          17.878  39.942  51.086  0.00  0.00     0.032 A 
ATOM     29  H8  STJ d          17.575  40.885  52.987  0.00  0.00     0.086 H 
ATOM     30  C30 STJ d          18.708  39.856  49.952  0.00  0.00    -0.068 A 
ATOM     31  C32 STJ d          19.854  40.670  49.865  0.00  0.00    -0.081 A 
ATOM     32  H9  STJ d          18.466  39.168  49.151  0.00  0.00     0.085 H 
ATOM     33  C34 STJ d          20.175  41.565  50.905  0.00  0.00    -0.071 A 
ATOM     34  H10 STJ d          20.493  40.608  48.992  0.00  0.00     0.083 H 
ATOM     35  H11 STJ d          21.058  42.190  50.834  0.00  0.00     0.084 H 
BRANCH  28  36
ATOM     36  C36 STJ d          16.619  39.129  51.315  0.00  0.00     0.249 C 
ATOM     37  O37 STJ d          16.247  38.414  50.399  0.00  0.00    -0.268 OA
ATOM     38  N38 STJ d          15.903  39.217  52.459  0.00  0.00    -0.366 N 
ATOM     39  H12 STJ d          15.077  38.666  52.576  0.00  0.00     0.159 HD
ATOM     40  H13 STJ d          16.200  39.834  53.189  0.00  0.00     0.159 HD
ENDBRANCH  28  36
ENDBRANCH   5  26
TORSDOF 6
ENDMDL
MODEL 5
REMARK VINA RESULT:      -7.4      2.995      4.451
REMARK  6 active torsions:
REMARK  status: ('A' for Active; 'I' for Inactive)
REMARK    1  A    between atoms: C2_2  and  O5_5 
REMARK    2  A    between atoms: O5_5  and  C6_6 
REMARK    3  A    between atoms: C11_9  and  N16_12 
REMARK    4  A    between atoms: N16_12  and  C18_13 
REMARK    5  A    between atoms: C23_17  and  C26_19 
REMARK    6  A    between atoms: C29_21  and  C36_25 
REMARK       I    between atoms: C36_25  and  N38_27 
ROOT
ATOM      1  C18 STJ d          22.313  44.153  53.909  0.00  0.00     0.131 A 
ATOM      2  N19 STJ d          23.364  43.791  53.122  0.00  0.00    -0.224 NA
ATOM      3  C20 STJ d          24.642  43.887  53.565  0.00  0.00     0.089 A 
ATOM      4  N22 STJ d          24.893  44.356  54.811  0.00  0.00    -0.241 NA
ATOM      5  C23 STJ d          23.885  44.735  55.639  0.00  0.00     0.072 A 
ATOM      6  C24 STJ d          22.555  44.642  55.191  0.00  0.00    -0.010 A 
ATOM      7  H6  STJ d          25.463  43.588  52.923  0.00  0.00     0.146 H 
ATOM      8  H7  STJ d          21.735  44.944  55.832  0.00  0.00     0.093 H 
ENDROOT
BRANCH   1   9
ATOM      9  N16 STJ d          21.018  44.070  53.503  0.00  0.00    -0.341 N 
ATOM     10  H5  STJ d          20.474  44.940  53.586  0.00  0.00     0.167 HD
BRANCH   9  11
ATOM     11  C11 STJ d          20.341  43.010  53.006  0.00  0.00     0.033 A 
ATOM     12  C9  STJ d          19.628  42.088  53.778  0.00  0.00    -0.055 A 
ATOM     13  C7  STJ d          18.968  41.014  53.176  0.00  0.00    -0.048 A 
ATOM     14  H2  STJ d          19.588  42.209  54.855  0.00  0.00     0.087 H 
ATOM     15  C6  STJ d          19.029  40.843  51.775  0.00  0.00     0.078 A 
ATOM     16  H1  STJ d          18.409  40.311  53.784  0.00  0.00     0.087 H 
ATOM     17  C14 STJ d          19.754  41.746  51.003  0.00  0.00    -0.048 A 
ATOM     18  C12 STJ d          20.410  42.824  51.611  0.00  0.00    -0.055 A 
ATOM     19  H4  STJ d          19.811  41.615  49.929  0.00  0.00     0.087 H 
ATOM     20  H3  STJ d          20.976  43.521  51.003  0.00  0.00     0.087 H 
BRANCH  15  21
ATOM     21  O5  STJ d          18.394  39.767  51.149  0.00  0.00    -0.255 OA
BRANCH  21  22
ATOM     22  C2  STJ d          17.003  39.574  51.323  0.00  0.00     0.530 C 
ATOM     23  F1  STJ d          16.478  40.800  51.568  0.00  0.00    -0.144 F 
ATOM     24  F3  STJ d          16.790  38.724  52.366  0.00  0.00    -0.144 F 
ATOM     25  F4  STJ d          16.475  39.053  50.184  0.00  0.00    -0.144 F 
ENDBRANCH  21  22
ENDBRANCH  15  21
ENDBRANCH   9  11
ENDBRANCH   1   9
BRANCH   5  26
ATOM     26  C26 STJ d          24.215  45.250  56.987  0.00  0.00    -0.006 A 
ATOM     27  C27 STJ d          24.036  46.619  57.213  0.00  0.00    -0.056 A 
ATOM     28  C29 STJ d          24.310  47.195  58.454  0.00  0.00     0.032 A 
ATOM     29  H8  STJ d          23.677  47.245  56.406  0.00  0.00     0.086 H 
ATOM     30  C30 STJ d          24.788  46.384  59.501  0.00  0.00    -0.068 A 
ATOM     31  C32 STJ d          24.973  45.006  59.285  0.00  0.00    -0.081 A 
ATOM     32  H9  STJ d          25.011  46.820  60.468  0.00  0.00     0.085 H 
ATOM     33  C34 STJ d          24.687  44.435  58.029  0.00  0.00    -0.071 A 
ATOM     34  H10 STJ d          25.339  44.379  60.090  0.00  0.00     0.083 H 
ATOM     35  H11 STJ d          24.831  43.372  57.867  0.00  0.00     0.084 H 
BRANCH  28  36
ATOM     36  C36 STJ d          24.065  48.688  58.542  0.00  0.00     0.249 C 
ATOM     37  O37 STJ d          24.884  49.416  58.006  0.00  0.00    -0.268 OA
ATOM     38  N38 STJ d          23.015  49.207  59.220  0.00  0.00    -0.366 N 
ATOM     39  H12 STJ d          22.884  50.197  59.257  0.00  0.00     0.159 HD
ATOM     40  H13 STJ d          22.371  48.600  59.685  0.00  0.00     0.159 HD
ENDBRANCH  28  36
ENDBRANCH   5  26
TORSDOF 6
ENDMDL
MODEL 6
REMARK VINA RESULT:      -7.1      2.665      3.314
REMARK  6 active torsions:
REMARK  status: ('A' for Active; 'I' for Inactive)
REMARK    1  A    between atoms: C2_2  and  O5_5 
REMARK    2  A    between atoms: O5_5  and  C6_6 
REMARK    3  A    between atoms: C11_9  and  N16_12 
REMARK    4  A    between atoms: N16_12  and  C18_13 
REMARK    5  A    between atoms: C23_17  and  C26_19 
REMARK    6  A    between atoms: C29_21  and  C36_25 
REMARK       I    between atoms: C36_25  and  N38_27 
ROOT
ATOM      1  C18 STJ d          20.447  44.136  56.195  0.00  0.00     0.131 A 
ATOM      2  N19 STJ d          20.531  43.778  57.506  0.00  0.00    -0.224 NA
ATOM      3  C20 STJ d          21.666  43.979  58.221  0.00  0.00     0.089 A 
ATOM      4  N22 STJ d          22.747  44.541  57.629  0.00  0.00    -0.241 NA
ATOM      5  C23 STJ d          22.723  44.915  56.324  0.00  0.00     0.072 A 
ATOM      6  C24 STJ d          21.553  44.711  55.571  0.00  0.00    -0.010 A 
ATOM      7  H6  STJ d          21.708  43.691  59.265  0.00  0.00     0.146 H 
ATOM      8  H7  STJ d          21.512  44.996  54.526  0.00  0.00     0.093 H 
ENDROOT
BRANCH   1   9
ATOM      9  N16 STJ d          19.328  43.954  55.446  0.00  0.00    -0.341 N 
ATOM     10  H5  STJ d          18.461  44.340  55.848  0.00  0.00     0.167 HD
BRANCH   9  11
ATOM     11  C11 STJ d          19.186  43.341  54.249  0.00  0.00     0.033 A 
ATOM     12  C9  STJ d          20.227  43.106  53.347  0.00  0.00    -0.055 A 
ATOM     13  C7  STJ d          19.983  42.475  52.124  0.00  0.00    -0.048 A 
ATOM     14  H2  STJ d          21.235  43.415  53.600  0.00  0.00     0.087 H 
ATOM     15  C6  STJ d          18.669  42.082  51.783  0.00  0.00     0.078 A 
ATOM     16  H1  STJ d          20.800  42.288  51.438  0.00  0.00     0.087 H 
ATOM     17  C14 STJ d          17.625  42.333  52.668  0.00  0.00    -0.048 A 
ATOM     18  C12 STJ d          17.876  42.960  53.894  0.00  0.00    -0.055 A 
ATOM     19  H4  STJ d          16.613  42.041  52.407  0.00  0.00     0.087 H 
ATOM     20  H3  STJ d          17.056  43.155  54.577  0.00  0.00     0.087 H 
BRANCH  15  21
ATOM     21  O5  STJ d          18.393  41.467  50.559  0.00  0.00    -0.255 OA
BRANCH  21  22
ATOM     22  C2  STJ d          18.526  40.064  50.432  0.00  0.00     0.530 C 
ATOM     23  F1  STJ d          17.438  39.639  49.745  0.00  0.00    -0.144 F 
ATOM     24  F3  STJ d          18.584  39.501  51.671  0.00  0.00    -0.144 F 
ATOM     25  F4  STJ d          19.661  39.781  49.741  0.00  0.00    -0.144 F 
ENDBRANCH  21  22
ENDBRANCH  15  21
ENDBRANCH   9  11
ENDBRANCH   1   9
BRANCH   5  26
ATOM     26  C26 STJ d          23.936  45.515  55.724  0.00  0.00    -0.006 A 
ATOM     27  C27 STJ d          24.746  46.295  56.556  0.00  0.00    -0.056 A 
ATOM     28  C29 STJ d          25.915  46.893  56.084  0.00  0.00     0.032 A 
ATOM     29  H8  STJ d          24.459  46.437  57.591  0.00  0.00     0.086 H 
ATOM     30  C30 STJ d          26.284  46.718  54.736  0.00  0.00    -0.068 A 
ATOM     31  C32 STJ d          25.475  45.938  53.889  0.00  0.00    -0.081 A 
ATOM     32  H9  STJ d          27.185  47.183  54.354  0.00  0.00     0.085 H 
ATOM     33  C34 STJ d          24.300  45.334  54.380  0.00  0.00    -0.071 A 
ATOM     34  H10 STJ d          25.759  45.800  52.852  0.00  0.00     0.083 H 
ATOM     35  H11 STJ d          23.681  44.733  53.723  0.00  0.00     0.084 H 
BRANCH  28  36
ATOM     36  C36 STJ d          26.685  47.705  57.107  0.00  0.00     0.249 C 
ATOM     37  O37 STJ d          27.019  48.832  56.780  0.00  0.00    -0.268 OA
ATOM     38  N38 STJ d          27.035  47.200  58.312  0.00  0.00    -0.366 N 
ATOM     39  H12 STJ d          27.543  47.764  58.962  0.00  0.00     0.159 HD
ATOM     40  H13 STJ d          26.785  46.262  58.552  0.00  0.00     0.159 HD
ENDBRANCH  28  36
ENDBRANCH   5  26
TORSDOF 6
ENDMDL
MODEL 7
REMARK VINA RESULT:      -7.0      4.609      8.307
REMARK  6 active torsions:
REMARK  status: ('A' for Active; 'I' for Inactive)
REMARK    1  A    between atoms: C2_2  and  O5_5 
REMARK    2  A    between atoms: O5_5  and  C6_6 
REMARK    3  A    between atoms: C11_9  and  N16_12 
REMARK    4  A    between atoms: N16_12  and  C18_13 
REMARK    5  A    between atoms: C23_17  and  C26_19 
REMARK    6  A    between atoms: C29_21  and  C36_25 
REMARK       I    between atoms: C36_25  and  N38_27 
ROOT
ATOM      1  C18 STJ d          22.844  43.701  54.435  0.00  0.00     0.131 A 
ATOM      2  N19 STJ d          22.548  44.199  55.667  0.00  0.00    -0.224 NA
ATOM      3  C20 STJ d          21.276  44.208  56.137  0.00  0.00     0.089 A 
ATOM      4  N22 STJ d          20.268  43.721  55.373  0.00  0.00    -0.241 NA
ATOM      5  C23 STJ d          20.503  43.214  54.136  0.00  0.00     0.072 A 
ATOM      6  C24 STJ d          21.818  43.199  53.636  0.00  0.00    -0.010 A 
ATOM      7  H6  STJ d          21.064  44.606  57.123  0.00  0.00     0.146 H 
ATOM      8  H7  STJ d          22.029  42.806  52.648  0.00  0.00     0.093 H 
ENDROOT
BRANCH   1   9
ATOM      9  N16 STJ d          24.105  43.670  53.930  0.00  0.00    -0.341 N 
ATOM     10  H5  STJ d          24.604  42.776  54.044  0.00  0.00     0.167 HD
BRANCH   9  11
ATOM     11  C11 STJ d          24.800  44.642  53.297  0.00  0.00     0.033 A 
ATOM     12  C9  STJ d          25.792  44.416  52.339  0.00  0.00    -0.055 A 
ATOM     13  C7  STJ d          26.469  45.486  51.747  0.00  0.00    -0.048 A 
ATOM     14  H2  STJ d          26.038  43.400  52.052  0.00  0.00     0.087 H 
ATOM     15  C6  STJ d          26.163  46.812  52.127  0.00  0.00     0.078 A 
ATOM     16  H1  STJ d          27.229  45.298  50.997  0.00  0.00     0.087 H 
ATOM     17  C14 STJ d          25.191  47.043  53.096  0.00  0.00    -0.048 A 
ATOM     18  C12 STJ d          24.512  45.967  53.682  0.00  0.00    -0.055 A 
ATOM     19  H4  STJ d          24.958  48.058  53.397  0.00  0.00     0.087 H 
ATOM     20  H3  STJ d          23.759  46.155  54.439  0.00  0.00     0.087 H 
BRANCH  15  21
ATOM     21  O5  STJ d          26.837  47.900  51.565  0.00  0.00    -0.255 OA
BRANCH  21  22
ATOM     22  C2  STJ d          26.280  48.571  50.452  0.00  0.00     0.530 C 
ATOM     23  F1  STJ d          25.031  48.947  50.820  0.00  0.00    -0.144 F 
ATOM     24  F3  STJ d          26.252  47.729  49.381  0.00  0.00    -0.144 F 
ATOM     25  F4  STJ d          27.035  49.664  50.162  0.00  0.00    -0.144 F 
ENDBRANCH  21  22
ENDBRANCH  15  21
ENDBRANCH   9  11
ENDBRANCH   1   9
BRANCH   5  26
ATOM     26  C26 STJ d          19.365  42.703  53.338  0.00  0.00    -0.006 A 
ATOM     27  C27 STJ d          19.623  41.656  52.447  0.00  0.00    -0.056 A 
ATOM     28  C29 STJ d          18.613  41.102  51.661  0.00  0.00     0.032 A 
ATOM     29  H8  STJ d          20.631  41.267  52.366  0.00  0.00     0.086 H 
ATOM     30  C30 STJ d          17.305  41.614  51.756  0.00  0.00    -0.068 A 
ATOM     31  C32 STJ d          17.033  42.668  52.648  0.00  0.00    -0.081 A 
ATOM     32  H9  STJ d          16.512  41.197  51.146  0.00  0.00     0.085 H 
ATOM     33  C34 STJ d          18.061  43.216  53.442  0.00  0.00    -0.071 A 
ATOM     34  H10 STJ d          16.026  43.062  52.725  0.00  0.00     0.083 H 
ATOM     35  H11 STJ d          17.847  44.027  54.127  0.00  0.00     0.084 H 
BRANCH  28  36
ATOM     36  C36 STJ d          19.050  39.974  50.747  0.00  0.00     0.249 C 
ATOM     37  O37 STJ d          20.040  40.170  50.060  0.00  0.00    -0.268 OA
ATOM     38  N38 STJ d          18.358  38.816  50.651  0.00  0.00    -0.366 N 
ATOM     39  H12 STJ d          18.676  38.093  50.038  0.00  0.00     0.159 HD
ATOM     40  H13 STJ d          17.529  38.683  51.194  0.00  0.00     0.159 HD
ENDBRANCH  28  36
ENDBRANCH   5  26
TORSDOF 6
ENDMDL
MODEL 8
REMARK VINA RESULT:      -6.5      5.691      9.237
REMARK  6 active torsions:
REMARK  status: ('A' for Active; 'I' for Inactive)
REMARK    1  A    between atoms: C2_2  and  O5_5 
REMARK    2  A    between atoms: O5_5  and  C6_6 
REMARK    3  A    between atoms: C11_9  and  N16_12 
REMARK    4  A    between atoms: N16_12  and  C18_13 
REMARK    5  A    between atoms: C23_17  and  C26_19 
REMARK    6  A    between atoms: C29_21  and  C36_25 
REMARK       I    between atoms: C36_25  and  N38_27 
ROOT
ATOM      1  C18 STJ d          21.177  44.413  55.282  0.00  0.00     0.131 A 
ATOM      2  N19 STJ d          22.346  44.414  54.583  0.00  0.00    -0.224 NA
ATOM      3  C20 STJ d          22.432  43.851  53.352  0.00  0.00     0.089 A 
ATOM      4  N22 STJ d          21.342  43.267  52.797  0.00  0.00    -0.241 NA
ATOM      5  C23 STJ d          20.151  43.233  53.449  0.00  0.00     0.072 A 
ATOM      6  C24 STJ d          20.048  43.812  54.726  0.00  0.00    -0.010 A 
ATOM      7  H6  STJ d          23.372  43.868  52.813  0.00  0.00     0.146 H 
ATOM      8  H7  STJ d          19.110  43.792  55.268  0.00  0.00     0.093 H 
ENDROOT
BRANCH   1   9
ATOM      9  N16 STJ d          21.048  44.969  56.515  0.00  0.00    -0.341 N 
ATOM     10  H5  STJ d          20.090  44.988  56.892  0.00  0.00     0.167 HD
BRANCH   9  11
ATOM     11  C11 STJ d          21.996  45.501  57.320  0.00  0.00     0.033 A 
ATOM     12  C9  STJ d          23.113  44.810  57.798  0.00  0.00    -0.055 A 
ATOM     13  C7  STJ d          24.035  45.439  58.639  0.00  0.00    -0.048 A 
ATOM     14  H2  STJ d          23.265  43.774  57.513  0.00  0.00     0.087 H 
ATOM     15  C6  STJ d          23.835  46.783  59.025  0.00  0.00     0.078 A 
ATOM     16  H1  STJ d          24.904  44.896  58.994  0.00  0.00     0.087 H 
ATOM     17  C14 STJ d          22.714  47.470  58.569  0.00  0.00    -0.048 A 
ATOM     18  C12 STJ d          21.796  46.836  57.723  0.00  0.00    -0.055 A 
ATOM     19  H4  STJ d          22.551  48.499  58.870  0.00  0.00     0.087 H 
ATOM     20  H3  STJ d          20.922  47.377  57.375  0.00  0.00     0.087 H 
BRANCH  15  21
ATOM     21  O5  STJ d          24.731  47.432  59.880  0.00  0.00    -0.255 OA
BRANCH  21  22
ATOM     22  C2  STJ d          25.583  48.440  59.369  0.00  0.00     0.530 C 
ATOM     23  F1  STJ d          26.828  48.150  59.822  0.00  0.00    -0.144 F 
ATOM     24  F3  STJ d          25.163  49.657  59.812  0.00  0.00    -0.144 F 
ATOM     25  F4  STJ d          25.555  48.406  58.011  0.00  0.00    -0.144 F 
ENDBRANCH  21  22
ENDBRANCH  15  21
ENDBRANCH   9  11
ENDBRANCH   1   9
BRANCH   5  26
ATOM     26  C26 STJ d          18.995  42.574  52.801  0.00  0.00    -0.006 A 
ATOM     27  C27 STJ d          19.268  41.615  51.820  0.00  0.00    -0.056 A 
ATOM     28  C29 STJ d          18.245  40.932  51.162  0.00  0.00     0.032 A 
ATOM     29  H8  STJ d          20.299  41.397  51.566  0.00  0.00     0.086 H 
ATOM     30  C30 STJ d          16.905  41.221  51.483  0.00  0.00    -0.068 A 
ATOM     31  C32 STJ d          16.617  42.186  52.467  0.00  0.00    -0.081 A 
ATOM     32  H9  STJ d          16.100  40.704  50.974  0.00  0.00     0.085 H 
ATOM     33  C34 STJ d          17.660  42.864  53.129  0.00  0.00    -0.071 A 
ATOM     34  H10 STJ d          15.586  42.408  52.717  0.00  0.00     0.083 H 
ATOM     35  H11 STJ d          17.434  43.605  53.887  0.00  0.00     0.084 H 
BRANCH  28  36
ATOM     36  C36 STJ d          18.702  39.923  50.127  0.00  0.00     0.249 C 
ATOM     37  O37 STJ d          19.890  39.916  49.847  0.00  0.00    -0.268 OA
ATOM     38  N38 STJ d          17.837  39.095  49.498  0.00  0.00    -0.366 N 
ATOM     39  H12 STJ d          18.174  38.441  48.821  0.00  0.00     0.159 HD
ATOM     40  H13 STJ d          16.861  39.136  49.712  0.00  0.00     0.159 HD
ENDBRANCH  28  36
ENDBRANCH   5  26
TORSDOF 6
ENDMDL
