MODEL 1
REMARK VINA RESULT:      -9.7      0.000      0.000
REMARK  8 active torsions:
REMARK  status: ('A' for Active; 'I' for Inactive)
REMARK       I    between atoms: C25_25  and  N1_1 
REMARK    1  A    between atoms: C3_3  and  N5_5 
REMARK       I    between atoms: N5_5  and  C6_6 
REMARK    2  A    between atoms: C6_6  and  C7_7 
REMARK    3  A    between atoms: C24_24  and  N17_17 
REMARK    4  A    between atoms: N20_20  and  C23_23 
REMARK    5  A    between atoms: C20_32  and  C25_25 
REMARK    6  A    between atoms: C29_29  and  C20_32 
REMARK    7  A    between atoms: C20_32  and  O34_35 
REMARK    8  A    between atoms: O34_35  and  C36_34 
ROOT
ATOM      1  N1  MOL d         -41.388 -46.100 -10.006  0.00  0.00    -0.340 N 
ATOM      2  N2  MOL d         -38.942 -47.333 -12.375  0.00  0.00    -0.278 N 
ATOM      3  C3  MOL d         -40.457 -48.954 -12.124  0.00  0.00     0.160 A 
ATOM      4  N4  MOL d         -39.292 -48.663 -12.733  0.00  0.00    -0.156 NA
ATOM      5  C13 MOL d         -39.917 -46.870 -11.567  0.00  0.00     0.057 A 
ATOM      6  C14 MOL d         -40.903 -47.887 -11.370  0.00  0.00     0.033 A 
ATOM      7  C15 MOL d         -41.974 -47.411 -10.439  0.00  0.00     0.027 C 
ATOM      8  C16 MOL d         -40.224 -45.637 -10.790  0.00  0.00     0.038 C 
ATOM      9  C25 MOL d         -41.846 -45.353  -8.990  0.00  0.00     0.254 C 
ATOM     10  O26 MOL d         -41.327 -44.282  -8.678  0.00  0.00    -0.270 OA
ATOM     11  H1  MOL d         -38.102 -46.819 -12.676  0.00  0.00     0.189 HD
ATOM     12  H7  MOL d         -42.934 -47.276 -10.958  0.00  0.00     0.072 H 
ATOM     13  H8  MOL d         -42.110 -48.096  -9.590  0.00  0.00     0.072 H 
ATOM     14  H9  MOL d         -39.386 -45.347 -10.140  0.00  0.00     0.074 H 
ATOM     15  H10 MOL d         -40.485 -44.796 -11.449  0.00  0.00     0.074 H 
ENDROOT
BRANCH   3  16
ATOM     16  N5  MOL d         -41.014 -50.203 -12.291  0.00  0.00    -0.305 N 
ATOM     17  C6  MOL d         -42.307 -50.479 -12.342  0.00  0.00     0.257 C 
ATOM     18  O8  MOL d         -43.191 -49.646 -12.275  0.00  0.00    -0.267 OA
ATOM     19  H2  MOL d         -40.382 -50.973 -12.383  0.00  0.00     0.170 HD
BRANCH  17  20
ATOM     20  C7  MOL d         -42.695 -51.898 -12.510  0.00  0.00     0.032 A 
ATOM     21  C9  MOL d         -43.749 -52.364 -11.740  0.00  0.00    -0.066 A 
ATOM     22  C10 MOL d         -44.181 -53.670 -11.847  0.00  0.00    -0.056 A 
ATOM     23  H3  MOL d         -44.241 -51.694 -11.045  0.00  0.00     0.085 H 
ATOM     24  C24 MOL d         -43.533 -54.504 -12.729  0.00  0.00     0.030 A 
ATOM     25  H4  MOL d         -45.012 -54.030 -11.250  0.00  0.00     0.086 H 
ATOM     26  C11 MOL d         -42.458 -54.033 -13.506  0.00  0.00    -0.056 A 
ATOM     27  C12 MOL d         -42.031 -52.721 -13.407  0.00  0.00    -0.066 A 
ATOM     28  H5  MOL d         -41.958 -54.707 -14.191  0.00  0.00     0.086 H 
ATOM     29  H6  MOL d         -41.209 -52.350 -14.009  0.00  0.00     0.085 H 
BRANCH  24  30
ATOM     30  N17 MOL d         -43.972 -55.835 -12.843  0.00  0.00    -0.378 N 
ATOM     31  C18 MOL d         -45.038 -56.249 -12.278  0.00  0.00     0.018 C 
ATOM     32  C19 MOL d         -44.974 -57.410 -11.610  0.00  0.00     0.098 C 
ATOM     33  H11 MOL d         -45.803 -56.360 -13.060  0.00  0.00     0.066 H 
ATOM     34  H12 MOL d         -45.354 -55.474 -11.563  0.00  0.00     0.066 H 
ATOM     35  N20 MOL d         -43.939 -58.376 -11.882  0.00  0.00    -0.072 N 
ATOM     36  H13 MOL d         -45.931 -57.922 -11.785  0.00  0.00     0.078 H 
ATOM     37  H14 MOL d         -44.885 -57.151 -10.545  0.00  0.00     0.078 H 
ATOM     38  C21 MOL d         -42.751 -57.796 -12.567  0.00  0.00     0.098 C 
ATOM     39  H15 MOL d         -44.335 -59.082 -12.483  0.00  0.00     0.279 HD
ATOM     40  C22 MOL d         -43.166 -56.777 -13.625  0.00  0.00     0.018 C 
ATOM     41  H16 MOL d         -42.186 -58.606 -13.052  0.00  0.00     0.078 H 
ATOM     42  H17 MOL d         -42.113 -57.299 -11.820  0.00  0.00     0.078 H 
ATOM     43  H18 MOL d         -42.290 -56.281 -14.068  0.00  0.00     0.066 H 
ATOM     44  H19 MOL d         -43.762 -57.248 -14.421  0.00  0.00     0.066 H 
BRANCH  35  45
ATOM     45  C23 MOL d         -43.476 -59.022 -10.638  0.00  0.00     0.066 C 
ATOM     46  H20 MOL d         -43.094 -60.028 -10.867  0.00  0.00     0.068 H 
ATOM     47  H21 MOL d         -44.315 -59.101  -9.931  0.00  0.00     0.068 H 
ATOM     48  H22 MOL d         -42.674 -58.418 -10.188  0.00  0.00     0.068 H 
ENDBRANCH  35  45
ENDBRANCH  24  30
ENDBRANCH  17  20
ENDBRANCH   3  16
BRANCH   9  49
ATOM     49  C20 MOL d         -43.020 -45.848  -8.202  0.00  0.00     0.140 C 
ATOM     50  H27 MOL d         -43.814 -46.179  -8.887  0.00  0.00     0.106 H 
BRANCH  49  51
ATOM     51  C29 MOL d         -42.563 -47.019  -7.392  0.00  0.00    -0.020 A 
ATOM     52  C27 MOL d         -43.355 -48.191  -7.348  0.00  0.00    -0.074 A 
ATOM     53  C28 MOL d         -42.924 -49.300  -6.621  0.00  0.00    -0.082 A 
ATOM     54  H23 MOL d         -44.298 -48.227  -7.881  0.00  0.00     0.084 H 
ATOM     55  C31 MOL d         -41.701 -49.225  -5.925  0.00  0.00    -0.083 A 
ATOM     56  H24 MOL d         -43.520 -50.205  -6.591  0.00  0.00     0.083 H 
ATOM     57  C35 MOL d         -40.916 -48.068  -5.957  0.00  0.00    -0.082 A 
ATOM     58  H25 MOL d         -41.362 -50.081  -5.353  0.00  0.00     0.083 H 
ATOM     59  C33 MOL d         -41.347 -46.966  -6.678  0.00  0.00    -0.074 A 
ATOM     60  H28 MOL d         -39.974 -48.033  -5.421  0.00  0.00     0.083 H 
ATOM     61  H26 MOL d         -40.750 -46.062  -6.694  0.00  0.00     0.084 H 
ENDBRANCH  49  51
BRANCH  49  62
ATOM     62  O34 MOL d         -43.521 -44.771  -7.407  0.00  0.00    -0.377 OA
BRANCH  62  63
ATOM     63  C36 MOL d         -44.862 -44.966  -6.917  0.00  0.00     0.005 C 
ATOM     64  H29 MOL d         -44.848 -45.002  -5.817  0.00  0.00     0.066 H 
ATOM     65  H30 MOL d         -45.262 -45.912  -7.309  0.00  0.00     0.066 H 
ATOM     66  H31 MOL d         -45.499 -44.133  -7.248  0.00  0.00     0.066 H 
ENDBRANCH  62  63
ENDBRANCH  49  62
ENDBRANCH   9  49
TORSDOF 8
ENDMDL
MODEL 2
REMARK VINA RESULT:      -7.1      1.203      2.541
REMARK  8 active torsions:
REMARK  status: ('A' for Active; 'I' for Inactive)
REMARK       I    between atoms: C25_25  and  N1_1 
REMARK    1  A    between atoms: C3_3  and  N5_5 
REMARK       I    between atoms: N5_5  and  C6_6 
REMARK    2  A    between atoms: C6_6  and  C7_7 
REMARK    3  A    between atoms: C24_24  and  N17_17 
REMARK    4  A    between atoms: N20_20  and  C23_23 
REMARK    5  A    between atoms: C20_32  and  C25_25 
REMARK    6  A    between atoms: C29_29  and  C20_32 
REMARK    7  A    between atoms: C20_32  and  O34_35 
REMARK    8  A    between atoms: O34_35  and  C36_34 
ROOT
ATOM      1  N1  MOL d         -41.194 -47.030 -10.066  0.00  0.00    -0.340 N 
ATOM      2  N2  MOL d         -39.368 -48.100 -13.005  0.00  0.00    -0.278 N 
ATOM      3  C3  MOL d         -40.720 -49.787 -12.448  0.00  0.00     0.160 A 
ATOM      4  N4  MOL d         -39.752 -49.433 -13.313  0.00  0.00    -0.156 NA
ATOM      5  C13 MOL d         -40.129 -47.699 -11.967  0.00  0.00     0.057 A 
ATOM      6  C14 MOL d         -41.002 -48.759 -11.570  0.00  0.00     0.033 A 
ATOM      7  C15 MOL d         -41.825 -48.352 -10.389  0.00  0.00     0.027 C 
ATOM      8  C16 MOL d         -40.275 -46.499 -11.095  0.00  0.00     0.038 C 
ATOM      9  C25 MOL d         -41.412 -46.329  -8.943  0.00  0.00     0.254 C 
ATOM     10  O26 MOL d         -40.867 -45.247  -8.730  0.00  0.00    -0.270 OA
ATOM     11  H1  MOL d         -38.646 -47.545 -13.485  0.00  0.00     0.189 HD
ATOM     12  H7  MOL d         -42.888 -48.242 -10.651  0.00  0.00     0.072 H 
ATOM     13  H8  MOL d         -41.725 -49.064  -9.557  0.00  0.00     0.072 H 
ATOM     14  H9  MOL d         -39.312 -46.193 -10.661  0.00  0.00     0.074 H 
ATOM     15  H10 MOL d         -40.718 -45.653 -11.639  0.00  0.00     0.074 H 
ENDROOT
BRANCH   3  16
ATOM     16  N5  MOL d         -41.260 -51.053 -12.517  0.00  0.00    -0.305 N 
ATOM     17  C6  MOL d         -42.546 -51.356 -12.457  0.00  0.00     0.257 C 
ATOM     18  O8  MOL d         -43.442 -50.538 -12.359  0.00  0.00    -0.267 OA
ATOM     19  H2  MOL d         -40.620 -51.814 -12.624  0.00  0.00     0.170 HD
BRANCH  17  20
ATOM     20  C7  MOL d         -42.914 -52.788 -12.533  0.00  0.00     0.032 A 
ATOM     21  C9  MOL d         -42.218 -53.576 -13.436  0.00  0.00    -0.066 A 
ATOM     22  C10 MOL d         -42.491 -54.923 -13.558  0.00  0.00    -0.056 A 
ATOM     23  H3  MOL d         -41.449 -53.129 -14.054  0.00  0.00     0.085 H 
ATOM     24  C24 MOL d         -43.480 -55.465 -12.768  0.00  0.00     0.030 A 
ATOM     25  H4  MOL d         -41.939 -55.540 -14.258  0.00  0.00     0.086 H 
ATOM     26  C11 MOL d         -44.192 -54.663 -11.857  0.00  0.00    -0.056 A 
ATOM     27  C12 MOL d         -43.912 -53.315 -11.726  0.00  0.00    -0.066 A 
ATOM     28  H5  MOL d         -44.971 -55.108 -11.249  0.00  0.00     0.086 H 
ATOM     29  H6  MOL d         -44.451 -52.694 -11.020  0.00  0.00     0.085 H 
BRANCH  24  30
ATOM     30  N17 MOL d         -43.759 -56.838 -12.888  0.00  0.00    -0.378 N 
ATOM     31  C18 MOL d         -44.927 -57.273 -13.156  0.00  0.00     0.018 C 
ATOM     32  C19 MOL d         -45.392 -58.292 -12.419  0.00  0.00     0.098 C 
ATOM     33  H11 MOL d         -44.924 -57.599 -14.206  0.00  0.00     0.066 H 
ATOM     34  H12 MOL d         -45.627 -56.432 -13.035  0.00  0.00     0.066 H 
ATOM     35  N20 MOL d         -44.501 -59.165 -11.697  0.00  0.00    -0.072 N 
ATOM     36  H13 MOL d         -45.967 -58.933 -13.104  0.00  0.00     0.078 H 
ATOM     37  H14 MOL d         -46.070 -57.853 -11.673  0.00  0.00     0.078 H 
ATOM     38  C21 MOL d         -43.155 -58.573 -11.459  0.00  0.00     0.098 C 
ATOM     39  H15 MOL d         -44.384 -60.001 -12.247  0.00  0.00     0.279 HD
ATOM     40  C22 MOL d         -42.670 -57.797 -12.682  0.00  0.00     0.018 C 
ATOM     41  H16 MOL d         -42.442 -59.381 -11.241  0.00  0.00     0.078 H 
ATOM     42  H17 MOL d         -43.210 -57.890 -10.599  0.00  0.00     0.078 H 
ATOM     43  H18 MOL d         -41.719 -57.284 -12.478  0.00  0.00     0.066 H 
ATOM     44  H19 MOL d         -42.550 -58.459 -13.552  0.00  0.00     0.066 H 
BRANCH  35  45
ATOM     45  C23 MOL d         -45.070 -59.538 -10.387  0.00  0.00     0.066 C 
ATOM     46  H20 MOL d         -44.263 -59.868  -9.717  0.00  0.00     0.068 H 
ATOM     47  H21 MOL d         -45.792 -60.357 -10.521  0.00  0.00     0.068 H 
ATOM     48  H22 MOL d         -45.580 -58.669  -9.947  0.00  0.00     0.068 H 
ENDBRANCH  35  45
ENDBRANCH  24  30
ENDBRANCH  17  20
ENDBRANCH   3  16
BRANCH   9  49
ATOM     49  C20 MOL d         -42.338 -46.892  -7.909  0.00  0.00     0.140 C 
ATOM     50  H27 MOL d         -41.883 -46.799  -6.912  0.00  0.00     0.106 H 
BRANCH  49  51
ATOM     51  C29 MOL d         -43.600 -46.090  -7.942  0.00  0.00    -0.020 A 
ATOM     52  C27 MOL d         -44.038 -45.426  -6.772  0.00  0.00    -0.074 A 
ATOM     53  C28 MOL d         -45.195 -44.651  -6.799  0.00  0.00    -0.082 A 
ATOM     54  H23 MOL d         -43.471 -45.521  -5.852  0.00  0.00     0.084 H 
ATOM     55  C31 MOL d         -45.922 -44.553  -8.003  0.00  0.00    -0.083 A 
ATOM     56  H24 MOL d         -45.532 -44.131  -5.909  0.00  0.00     0.083 H 
ATOM     57  C35 MOL d         -45.500 -45.212  -9.162  0.00  0.00    -0.082 A 
ATOM     58  H25 MOL d         -46.827 -43.956  -8.030  0.00  0.00     0.083 H 
ATOM     59  C33 MOL d         -44.351 -45.985  -9.132  0.00  0.00    -0.074 A 
ATOM     60  H28 MOL d         -46.070 -45.118 -10.080  0.00  0.00     0.083 H 
ATOM     61  H26 MOL d         -44.027 -46.509 -10.024  0.00  0.00     0.084 H 
ENDBRANCH  49  51
BRANCH  49  62
ATOM     62  O34 MOL d         -42.542 -48.279  -8.190  0.00  0.00    -0.377 OA
BRANCH  62  63
ATOM     63  C36 MOL d         -43.034 -49.047  -7.075  0.00  0.00     0.005 C 
ATOM     64  H29 MOL d         -42.468 -48.783  -6.170  0.00  0.00     0.066 H 
ATOM     65  H30 MOL d         -42.911 -50.120  -7.285  0.00  0.00     0.066 H 
ATOM     66  H31 MOL d         -44.100 -48.825  -6.918  0.00  0.00     0.066 H 
ENDBRANCH  62  63
ENDBRANCH  49  62
ENDBRANCH   9  49
TORSDOF 8
ENDMDL
MODEL 3
REMARK VINA RESULT:      -7.0      1.000      2.389
REMARK  8 active torsions:
REMARK  status: ('A' for Active; 'I' for Inactive)
REMARK       I    between atoms: C25_25  and  N1_1 
REMARK    1  A    between atoms: C3_3  and  N5_5 
REMARK       I    between atoms: N5_5  and  C6_6 
REMARK    2  A    between atoms: C6_6  and  C7_7 
REMARK    3  A    between atoms: C24_24  and  N17_17 
REMARK    4  A    between atoms: N20_20  and  C23_23 
REMARK    5  A    between atoms: C20_32  and  C25_25 
REMARK    6  A    between atoms: C29_29  and  C20_32 
REMARK    7  A    between atoms: C20_32  and  O34_35 
REMARK    8  A    between atoms: O34_35  and  C36_34 
ROOT
ATOM      1  N1  MOL d         -41.177 -45.884  -9.277  0.00  0.00    -0.340 N 
ATOM      2  N2  MOL d         -39.191 -46.699 -12.194  0.00  0.00    -0.278 N 
ATOM      3  C3  MOL d         -40.579 -48.417 -11.870  0.00  0.00     0.160 A 
ATOM      4  N4  MOL d         -39.562 -47.995 -12.644  0.00  0.00    -0.156 NA
ATOM      5  C13 MOL d         -40.008 -46.387 -11.168  0.00  0.00     0.057 A 
ATOM      6  C14 MOL d         -40.906 -47.471 -10.920  0.00  0.00     0.033 A 
ATOM      7  C15 MOL d         -41.793 -47.165  -9.754  0.00  0.00     0.027 C 
ATOM      8  C16 MOL d         -40.198 -45.271 -10.200  0.00  0.00     0.038 C 
ATOM      9  C25 MOL d         -41.455 -45.286  -8.108  0.00  0.00     0.254 C 
ATOM     10  O26 MOL d         -40.919 -44.233  -7.767  0.00  0.00    -0.270 OA
ATOM     11  H1  MOL d         -38.440 -46.109 -12.580  0.00  0.00     0.189 HD
ATOM     12  H7  MOL d         -42.839 -47.022 -10.065  0.00  0.00     0.072 H 
ATOM     13  H8  MOL d         -41.744 -47.951  -8.987  0.00  0.00     0.072 H 
ATOM     14  H9  MOL d         -39.260 -45.014  -9.686  0.00  0.00     0.074 H 
ATOM     15  H10 MOL d         -40.606 -44.374 -10.688  0.00  0.00     0.074 H 
ENDROOT
BRANCH   3  16
ATOM     16  N5  MOL d         -41.120 -49.666 -12.086  0.00  0.00    -0.305 N 
ATOM     17  C6  MOL d         -42.408 -49.952 -12.182  0.00  0.00     0.257 C 
ATOM     18  O8  MOL d         -43.301 -49.129 -12.121  0.00  0.00    -0.267 OA
ATOM     19  H2  MOL d         -40.478 -50.428 -12.178  0.00  0.00     0.170 HD
BRANCH  17  20
ATOM     20  C7  MOL d         -42.777 -51.369 -12.398  0.00  0.00     0.032 A 
ATOM     21  C9  MOL d         -43.912 -51.836 -11.752  0.00  0.00    -0.066 A 
ATOM     22  C10 MOL d         -44.332 -53.140 -11.910  0.00  0.00    -0.056 A 
ATOM     23  H3  MOL d         -44.476 -51.166 -11.113  0.00  0.00     0.085 H 
ATOM     24  C24 MOL d         -43.591 -53.973 -12.718  0.00  0.00     0.030 A 
ATOM     25  H4  MOL d         -45.224 -53.500 -11.411  0.00  0.00     0.086 H 
ATOM     26  C11 MOL d         -42.435 -53.501 -13.368  0.00  0.00    -0.056 A 
ATOM     27  C12 MOL d         -42.019 -52.191 -13.218  0.00  0.00    -0.066 A 
ATOM     28  H5  MOL d         -41.862 -54.175 -13.995  0.00  0.00     0.086 H 
ATOM     29  H6  MOL d         -41.134 -51.820 -13.722  0.00  0.00     0.085 H 
BRANCH  24  30
ATOM     30  N17 MOL d         -44.017 -55.302 -12.885  0.00  0.00    -0.378 N 
ATOM     31  C18 MOL d         -45.096 -55.739 -12.366  0.00  0.00     0.018 C 
ATOM     32  C19 MOL d         -45.045 -56.920 -11.731  0.00  0.00     0.098 C 
ATOM     33  H11 MOL d         -45.836 -55.832 -13.174  0.00  0.00     0.066 H 
ATOM     34  H12 MOL d         -45.440 -54.988 -11.638  0.00  0.00     0.066 H 
ATOM     35  N20 MOL d         -43.996 -57.871 -11.999  0.00  0.00    -0.072 N 
ATOM     36  H13 MOL d         -45.993 -57.432 -11.951  0.00  0.00     0.078 H 
ATOM     37  H14 MOL d         -44.991 -56.692 -10.656  0.00  0.00     0.078 H 
ATOM     38  C21 MOL d         -42.791 -57.264 -12.630  0.00  0.00     0.098 C 
ATOM     39  H15 MOL d         -44.368 -58.561 -12.633  0.00  0.00     0.279 HD
ATOM     40  C22 MOL d         -43.181 -56.216 -13.670  0.00  0.00     0.018 C 
ATOM     41  H16 MOL d         -42.206 -58.055 -13.120  0.00  0.00     0.078 H 
ATOM     42  H17 MOL d         -42.180 -56.786 -11.849  0.00  0.00     0.078 H 
ATOM     43  H18 MOL d         -42.295 -55.702 -14.070  0.00  0.00     0.066 H 
ATOM     44  H19 MOL d         -43.749 -56.666 -14.497  0.00  0.00     0.066 H 
BRANCH  35  45
ATOM     45  C23 MOL d         -43.567 -58.551 -10.761  0.00  0.00     0.066 C 
ATOM     46  H20 MOL d         -44.452 -58.887 -10.202  0.00  0.00     0.068 H 
ATOM     47  H21 MOL d         -42.985 -57.853 -10.142  0.00  0.00     0.068 H 
ATOM     48  H22 MOL d         -42.943 -59.420 -11.018  0.00  0.00     0.068 H 
ENDBRANCH  35  45
ENDBRANCH  24  30
ENDBRANCH  17  20
ENDBRANCH   3  16
BRANCH   9  49
ATOM     49  C20 MOL d         -42.441 -45.933  -7.184  0.00  0.00     0.140 C 
ATOM     50  H27 MOL d         -42.200 -45.673  -6.143  0.00  0.00     0.106 H 
BRANCH  49  51
ATOM     51  C29 MOL d         -43.796 -45.395  -7.515  0.00  0.00    -0.020 A 
ATOM     52  C27 MOL d         -44.510 -44.652  -6.545  0.00  0.00    -0.074 A 
ATOM     53  C28 MOL d         -45.761 -44.119  -6.853  0.00  0.00    -0.082 A 
ATOM     54  H23 MOL d         -44.083 -44.497  -5.561  0.00  0.00     0.084 H 
ATOM     55  C31 MOL d         -46.301 -44.346  -8.135  0.00  0.00    -0.083 A 
ATOM     56  H24 MOL d         -46.309 -43.540  -6.119  0.00  0.00     0.083 H 
ATOM     57  C35 MOL d         -45.605 -45.085  -9.097  0.00  0.00    -0.082 A 
ATOM     58  H25 MOL d         -47.276 -43.939  -8.380  0.00  0.00     0.083 H 
ATOM     59  C33 MOL d         -44.363 -45.616  -8.788  0.00  0.00    -0.074 A 
ATOM     60  H28 MOL d         -46.035 -45.241 -10.080  0.00  0.00     0.083 H 
ATOM     61  H26 MOL d         -43.827 -46.202  -9.525  0.00  0.00     0.084 H 
ENDBRANCH  49  51
BRANCH  49  62
ATOM     62  O34 MOL d         -42.343 -47.351  -7.336  0.00  0.00    -0.377 OA
BRANCH  62  63
ATOM     63  C36 MOL d         -41.624 -48.015  -6.278  0.00  0.00     0.005 C 
ATOM     64  H29 MOL d         -40.551 -47.787  -6.364  0.00  0.00     0.066 H 
ATOM     65  H30 MOL d         -41.775 -49.102  -6.358  0.00  0.00     0.066 H 
ATOM     66  H31 MOL d         -41.997 -47.664  -5.305  0.00  0.00     0.066 H 
ENDBRANCH  62  63
ENDBRANCH  49  62
ENDBRANCH   9  49
TORSDOF 8
ENDMDL
