MODEL 1
REMARK VINA RESULT:      -9.4      0.000      0.000
REMARK  8 active torsions:
REMARK  status: ('A' for Active; 'I' for Inactive)
REMARK    1  A    between atoms: CAQ_9  and  CAL_10 
REMARK    2  A    between atoms: CAL_10  and  CAP_11 
REMARK       I    between atoms: CAP_11  and  NAM_13 
REMARK    3  A    between atoms: NAM_13  and  CAK_14 
REMARK    4  A    between atoms: CAK_14  and  CAU_15 
REMARK    5  A    between atoms: CAT_17  and  CAA_18 
REMARK    6  A    between atoms: CAV_19  and  OAC_20 
REMARK    7  A    between atoms: CAX_21  and  OAE_22 
REMARK    8  A    between atoms: CAW_23  and  OAD_24 
ROOT
ATOM      1  CAK ZX6 d          -1.852  26.132  27.172  0.00  0.00     0.024 C 
ATOM      2  H10 ZX6 d          -2.875  25.739  27.074  0.00  0.00     0.067 H 
ATOM      3  H11 ZX6 d          -1.133  25.301  27.119  0.00  0.00     0.067 H 
ENDROOT
BRANCH   1   4
ATOM      4  NAM ZX6 d          -1.731  26.745  28.506  0.00  0.00    -0.359 N 
ATOM      5  CAP ZX6 d          -2.638  26.564  29.466  0.00  0.00     0.222 C 
ATOM      6  OAB ZX6 d          -3.717  26.011  29.260  0.00  0.00    -0.273 OA
ATOM      7  H9  ZX6 d          -0.937  27.320  28.700  0.00  0.00     0.162 HD
BRANCH   5   8
ATOM      8  CAL ZX6 d          -2.394  27.193  30.843  0.00  0.00     0.035 C 
ATOM      9  H7  ZX6 d          -2.204  28.267  30.696  0.00  0.00     0.054 H 
ATOM     10  H8  ZX6 d          -3.306  27.060  31.443  0.00  0.00     0.054 H 
BRANCH   8  11
ATOM     11  CAQ ZX6 d          -1.221  26.609  31.633  0.00  0.00    -0.022 A 
ATOM     12  CAS ZX6 d          -0.781  25.291  31.690  0.00  0.00    -0.001 A 
ATOM     13  CAI ZX6 d          -1.175  24.117  31.058  0.00  0.00    -0.070 A 
ATOM     14  CAR ZX6 d           0.310  25.277  32.551  0.00  0.00     0.042 A 
ATOM     15  CAG ZX6 d          -0.475  22.935  31.288  0.00  0.00    -0.082 A 
ATOM     16  H1  ZX6 d          -2.026  24.121  30.387  0.00  0.00     0.084 H 
ATOM     17  CAF ZX6 d           0.614  22.922  32.153  0.00  0.00    -0.081 A 
ATOM     18  H2  ZX6 d          -0.780  22.022  30.792  0.00  0.00     0.083 H 
ATOM     19  CAH ZX6 d           1.007  24.097  32.788  0.00  0.00    -0.056 A 
ATOM     20  H3  ZX6 d           1.156  22.000  32.332  0.00  0.00     0.083 H 
ATOM     21  H4  ZX6 d           1.853  24.092  33.466  0.00  0.00     0.086 H 
ATOM     22  NAO ZX6 d           0.495  26.523  32.976  0.00  0.00    -0.365 N 
ATOM     23  CAJ ZX6 d          -0.422  27.319  32.427  0.00  0.00    -0.015 A 
ATOM     24  H5  ZX6 d           1.232  26.827  33.627  0.00  0.00     0.165 HD
ATOM     25  H6  ZX6 d          -0.504  28.390  32.601  0.00  0.00     0.112 H 
ENDBRANCH   8  11
ENDBRANCH   5   8
ENDBRANCH   1   4
BRANCH   1  26
ATOM     26  CAU ZX6 d          -1.590  27.054  25.976  0.00  0.00     0.144 C 
ATOM     27  NAN ZX6 d          -0.146  27.320  25.836  0.00  0.00    -0.060 N 
ATOM     28  CAT ZX6 d           0.138  28.261  24.736  0.00  0.00     0.126 C 
ATOM     29  H13 ZX6 d           0.329  26.450  25.650  0.00  0.00     0.278 HD
ATOM     30  H14 ZX6 d           0.197  27.713  26.698  0.00  0.00     0.278 HD
ATOM     31  CAV ZX6 d          -0.416  27.786  23.386  0.00  0.00     0.089 C 
ATOM     32  H15 ZX6 d          -0.338  29.222  24.979  0.00  0.00     0.087 H 
ATOM     33  CAX ZX6 d          -1.892  27.404  23.531  0.00  0.00     0.089 C 
ATOM     34  H19 ZX6 d          -0.326  28.604  22.655  0.00  0.00     0.090 H 
ATOM     35  CAW ZX6 d          -2.012  26.383  24.662  0.00  0.00     0.091 C 
ATOM     36  H21 ZX6 d          -2.476  28.302  23.779  0.00  0.00     0.091 H 
ATOM     37  H23 ZX6 d          -1.337  25.536  24.468  0.00  0.00     0.090 H 
ATOM     38  H12 ZX6 d          -2.140  27.995  26.116  0.00  0.00     0.091 H 
BRANCH  28  39
ATOM     39  CAA ZX6 d           1.649  28.476  24.631  0.00  0.00    -0.047 C 
ATOM     40  H16 ZX6 d           2.131  28.155  25.566  0.00  0.00     0.030 H 
ATOM     41  H17 ZX6 d           1.856  29.542  24.460  0.00  0.00     0.030 H 
ATOM     42  H18 ZX6 d           2.046  27.885  23.793  0.00  0.00     0.030 H 
ENDBRANCH  28  39
BRANCH  31  43
ATOM     43  OAC ZX6 d           0.321  26.654  22.912  0.00  0.00    -0.391 OA
ATOM     44  H20 ZX6 d           0.733  26.871  22.084  0.00  0.00     0.210 HD
ENDBRANCH  31  43
BRANCH  33  45
ATOM     45  OAE ZX6 d          -2.408  26.829  22.329  0.00  0.00    -0.390 OA
ATOM     46  H22 ZX6 d          -3.284  26.497  22.489  0.00  0.00     0.210 HD
ENDBRANCH  33  45
BRANCH  35  47
ATOM     47  OAD ZX6 d          -3.356  25.901  24.684  0.00  0.00    -0.391 OA
ATOM     48  H24 ZX6 d          -3.352  24.952  24.650  0.00  0.00     0.210 HD
ENDBRANCH  35  47
ENDBRANCH   1  26
TORSDOF 8
ENDMDL
MODEL 2
REMARK VINA RESULT:      -6.6      0.969      2.247
REMARK  8 active torsions:
REMARK  status: ('A' for Active; 'I' for Inactive)
REMARK    1  A    between atoms: CAQ_9  and  CAL_10 
REMARK    2  A    between atoms: CAL_10  and  CAP_11 
REMARK       I    between atoms: CAP_11  and  NAM_13 
REMARK    3  A    between atoms: NAM_13  and  CAK_14 
REMARK    4  A    between atoms: CAK_14  and  CAU_15 
REMARK    5  A    between atoms: CAT_17  and  CAA_18 
REMARK    6  A    between atoms: CAV_19  and  OAC_20 
REMARK    7  A    between atoms: CAX_21  and  OAE_22 
REMARK    8  A    between atoms: CAW_23  and  OAD_24 
ROOT
ATOM      1  CAK ZX6 d          -2.656  26.595  27.173  0.00  0.00     0.024 C 
ATOM      2  H10 ZX6 d          -3.049  27.357  27.863  0.00  0.00     0.067 H 
ATOM      3  H11 ZX6 d          -3.489  25.997  26.775  0.00  0.00     0.067 H 
ENDROOT
BRANCH   1   4
ATOM      4  NAM ZX6 d          -1.786  25.694  27.949  0.00  0.00    -0.359 N 
ATOM      5  CAP ZX6 d          -2.204  25.054  29.040  0.00  0.00     0.222 C 
ATOM      6  OAB ZX6 d          -3.286  25.293  29.573  0.00  0.00    -0.273 OA
ATOM      7  H9  ZX6 d          -0.844  25.556  27.644  0.00  0.00     0.162 HD
BRANCH   5   8
ATOM      8  CAL ZX6 d          -1.243  24.088  29.745  0.00  0.00     0.035 C 
ATOM      9  H7  ZX6 d          -1.825  23.219  30.085  0.00  0.00     0.054 H 
ATOM     10  H8  ZX6 d          -0.492  23.761  29.012  0.00  0.00     0.054 H 
BRANCH   8  11
ATOM     11  CAQ ZX6 d          -0.503  24.663  30.954  0.00  0.00    -0.022 A 
ATOM     12  CAS ZX6 d          -0.454  25.981  31.396  0.00  0.00    -0.001 A 
ATOM     13  CAI ZX6 d          -1.054  27.161  30.974  0.00  0.00    -0.070 A 
ATOM     14  CAR ZX6 d           0.356  25.987  32.527  0.00  0.00     0.042 A 
ATOM     15  CAG ZX6 d          -0.845  28.341  31.684  0.00  0.00    -0.082 A 
ATOM     16  H1  ZX6 d          -1.684  27.164  30.092  0.00  0.00     0.084 H 
ATOM     17  CAF ZX6 d          -0.032  28.346  32.813  0.00  0.00    -0.081 A 
ATOM     18  H2  ZX6 d          -1.317  29.259  31.356  0.00  0.00     0.083 H 
ATOM     19  CAH ZX6 d           0.572  27.165  33.234  0.00  0.00    -0.056 A 
ATOM     20  H3  ZX6 d           0.130  29.266  33.363  0.00  0.00     0.083 H 
ATOM     21  H4  ZX6 d           1.208  27.162  34.112  0.00  0.00     0.086 H 
ATOM     22  NAO ZX6 d           0.758  24.736  32.732  0.00  0.00    -0.365 N 
ATOM     23  CAJ ZX6 d           0.244  23.946  31.790  0.00  0.00    -0.015 A 
ATOM     24  H5  ZX6 d           1.370  24.426  33.499  0.00  0.00     0.165 HD
ATOM     25  H6  ZX6 d           0.411  22.873  31.715  0.00  0.00     0.112 H 
ENDBRANCH   8  11
ENDBRANCH   5   8
ENDBRANCH   1   4
BRANCH   1  26
ATOM     26  CAU ZX6 d          -2.000  27.325  25.996  0.00  0.00     0.144 C 
ATOM     27  NAN ZX6 d          -0.533  27.188  26.057  0.00  0.00    -0.060 N 
ATOM     28  CAT ZX6 d           0.138  27.937  24.978  0.00  0.00     0.126 C 
ATOM     29  H13 ZX6 d          -0.293  26.212  25.973  0.00  0.00     0.278 HD
ATOM     30  H14 ZX6 d          -0.210  27.538  26.946  0.00  0.00     0.278 HD
ATOM     31  CAV ZX6 d          -0.345  27.529  23.579  0.00  0.00     0.089 C 
ATOM     32  H15 ZX6 d          -0.085  29.005  25.115  0.00  0.00     0.087 H 
ATOM     33  CAX ZX6 d          -1.875  27.563  23.523  0.00  0.00     0.089 C 
ATOM     34  H19 ZX6 d           0.059  28.238  22.841  0.00  0.00     0.090 H 
ATOM     35  CAW ZX6 d          -2.415  26.696  24.660  0.00  0.00     0.091 C 
ATOM     36  H21 ZX6 d          -2.219  28.600  23.652  0.00  0.00     0.091 H 
ATOM     37  H23 ZX6 d          -1.977  25.689  24.595  0.00  0.00     0.090 H 
ATOM     38  H12 ZX6 d          -2.286  28.386  26.022  0.00  0.00     0.091 H 
BRANCH  28  39
ATOM     39  CAA ZX6 d           1.650  27.736  25.085  0.00  0.00    -0.047 C 
ATOM     40  H16 ZX6 d           1.964  26.943  24.391  0.00  0.00     0.030 H 
ATOM     41  H17 ZX6 d           1.909  27.446  26.114  0.00  0.00     0.030 H 
ATOM     42  H18 ZX6 d           2.164  28.674  24.826  0.00  0.00     0.030 H 
ENDBRANCH  28  39
BRANCH  31  43
ATOM     43  OAC ZX6 d           0.111  26.211  23.257  0.00  0.00    -0.391 OA
ATOM     44  H20 ZX6 d           0.421  26.195  22.359  0.00  0.00     0.210 HD
ENDBRANCH  31  43
BRANCH  33  45
ATOM     45  OAE ZX6 d          -2.368  27.060  22.280  0.00  0.00    -0.390 OA
ATOM     46  H22 ZX6 d          -1.944  27.517  21.564  0.00  0.00     0.210 HD
ENDBRANCH  33  45
BRANCH  35  47
ATOM     47  OAD ZX6 d          -3.831  26.590  24.504  0.00  0.00    -0.391 OA
ATOM     48  H24 ZX6 d          -4.026  26.032  23.762  0.00  0.00     0.210 HD
ENDBRANCH  35  47
ENDBRANCH   1  26
TORSDOF 8
ENDMDL
MODEL 3
REMARK VINA RESULT:      -6.6      2.395      7.883
REMARK  8 active torsions:
REMARK  status: ('A' for Active; 'I' for Inactive)
REMARK    1  A    between atoms: CAQ_9  and  CAL_10 
REMARK    2  A    between atoms: CAL_10  and  CAP_11 
REMARK       I    between atoms: CAP_11  and  NAM_13 
REMARK    3  A    between atoms: NAM_13  and  CAK_14 
REMARK    4  A    between atoms: CAK_14  and  CAU_15 
REMARK    5  A    between atoms: CAT_17  and  CAA_18 
REMARK    6  A    between atoms: CAV_19  and  OAC_20 
REMARK    7  A    between atoms: CAX_21  and  OAE_22 
REMARK    8  A    between atoms: CAW_23  and  OAD_24 
ROOT
ATOM      1  CAK ZX6 d          -2.782  27.171  30.092  0.00  0.00     0.024 C 
ATOM      2  H10 ZX6 d          -3.875  27.167  30.210  0.00  0.00     0.067 H 
ATOM      3  H11 ZX6 d          -2.436  28.201  29.921  0.00  0.00     0.067 H 
ENDROOT
BRANCH   1   4
ATOM      4  NAM ZX6 d          -2.456  26.383  28.890  0.00  0.00    -0.359 N 
ATOM      5  CAP ZX6 d          -2.962  26.661  27.689  0.00  0.00     0.222 C 
ATOM      6  OAB ZX6 d          -3.859  27.487  27.524  0.00  0.00    -0.273 OA
ATOM      7  H9  ZX6 d          -1.831  25.609  28.979  0.00  0.00     0.162 HD
BRANCH   5   8
ATOM      8  CAL ZX6 d          -2.516  25.822  26.486  0.00  0.00     0.035 C 
ATOM      9  H7  ZX6 d          -1.656  25.210  26.799  0.00  0.00     0.054 H 
ATOM     10  H8  ZX6 d          -3.351  25.164  26.203  0.00  0.00     0.054 H 
BRANCH   8  11
ATOM     11  CAQ ZX6 d          -2.102  26.618  25.246  0.00  0.00    -0.022 A 
ATOM     12  CAS ZX6 d          -0.903  27.276  24.997  0.00  0.00    -0.001 A 
ATOM     13  CAI ZX6 d           0.291  27.400  25.698  0.00  0.00    -0.070 A 
ATOM     14  CAR ZX6 d          -1.025  27.853  23.737  0.00  0.00     0.042 A 
ATOM     15  CAG ZX6 d           1.358  28.097  25.136  0.00  0.00    -0.082 A 
ATOM     16  H1  ZX6 d           0.392  26.955  26.681  0.00  0.00     0.084 H 
ATOM     17  CAF ZX6 d           1.233  28.677  23.878  0.00  0.00    -0.081 A 
ATOM     18  H2  ZX6 d           2.289  28.189  25.682  0.00  0.00     0.083 H 
ATOM     19  CAH ZX6 d           0.036  28.556  23.177  0.00  0.00    -0.056 A 
ATOM     20  H3  ZX6 d           2.064  29.221  23.444  0.00  0.00     0.083 H 
ATOM     21  H4  ZX6 d          -0.068  29.007  22.197  0.00  0.00     0.086 H 
ATOM     22  NAO ZX6 d          -2.235  27.547  23.278  0.00  0.00    -0.365 N 
ATOM     23  CAJ ZX6 d          -2.878  26.809  24.182  0.00  0.00    -0.015 A 
ATOM     24  H5  ZX6 d          -2.615  27.835  22.366  0.00  0.00     0.165 HD
ATOM     25  H6  ZX6 d          -3.889  26.420  24.067  0.00  0.00     0.112 H 
ENDBRANCH   8  11
ENDBRANCH   5   8
ENDBRANCH   1   4
BRANCH   1  26
ATOM     26  CAU ZX6 d          -2.168  26.684  31.409  0.00  0.00     0.144 C 
ATOM     27  NAN ZX6 d          -2.165  25.211  31.464  0.00  0.00    -0.060 N 
ATOM     28  CAT ZX6 d          -1.645  24.706  32.748  0.00  0.00     0.126 C 
ATOM     29  H13 ZX6 d          -1.585  24.859  30.717  0.00  0.00     0.278 HD
ATOM     30  H14 ZX6 d          -3.109  24.879  31.341  0.00  0.00     0.278 HD
ATOM     31  CAV ZX6 d          -0.234  25.222  33.065  0.00  0.00     0.089 C 
ATOM     32  H15 ZX6 d          -2.318  25.050  33.547  0.00  0.00     0.087 H 
ATOM     33  CAX ZX6 d          -0.187  26.745  32.913  0.00  0.00     0.089 C 
ATOM     34  H19 ZX6 d           0.019  24.955  34.102  0.00  0.00     0.090 H 
ATOM     35  CAW ZX6 d          -0.695  27.102  31.517  0.00  0.00     0.091 C 
ATOM     36  H21 ZX6 d          -0.836  27.205  33.672  0.00  0.00     0.091 H 
ATOM     37  H23 ZX6 d          -0.119  26.548  30.761  0.00  0.00     0.090 H 
ATOM     38  H12 ZX6 d          -2.742  27.097  32.251  0.00  0.00     0.091 H 
BRANCH  28  39
ATOM     39  CAA ZX6 d          -1.648  23.177  32.731  0.00  0.00    -0.047 C 
ATOM     40  H16 ZX6 d          -0.861  22.801  33.400  0.00  0.00     0.030 H 
ATOM     41  H17 ZX6 d          -1.459  22.822  31.707  0.00  0.00     0.030 H 
ATOM     42  H18 ZX6 d          -2.627  22.809  33.073  0.00  0.00     0.030 H 
ENDBRANCH  28  39
BRANCH  31  43
ATOM     43  OAC ZX6 d           0.725  24.628  32.184  0.00  0.00    -0.391 OA
ATOM     44  H20 ZX6 d           0.832  23.711  32.407  0.00  0.00     0.210 HD
ENDBRANCH  31  43
BRANCH  33  45
ATOM     45  OAE ZX6 d           1.142  27.248  33.067  0.00  0.00    -0.390 OA
ATOM     46  H22 ZX6 d           1.440  27.607  32.239  0.00  0.00     0.210 HD
ENDBRANCH  33  45
BRANCH  35  47
ATOM     47  OAD ZX6 d          -0.492  28.501  31.314  0.00  0.00    -0.391 OA
ATOM     48  H24 ZX6 d           0.142  28.821  31.944  0.00  0.00     0.210 HD
ENDBRANCH  35  47
ENDBRANCH   1  26
TORSDOF 8
ENDMDL
