MODEL 1
REMARK VINA RESULT:      -7.9      0.000      0.000
REMARK  7 active torsions:
REMARK  status: ('A' for Active; 'I' for Inactive)
REMARK    1  A    between atoms: P_1  and  O5'_5 
REMARK    2  A    between atoms: O5'_5  and  C5'_6 
REMARK    3  A    between atoms: C5'_6  and  C4'_7 
REMARK    4  A    between atoms: C3'_9  and  O3'_10 
REMARK    5  A    between atoms: C2'_11  and  O2'_12 
REMARK    6  A    between atoms: C1'_13  and  N1_14 
REMARK    7  A    between atoms: C6_21  and  O1_22 
ROOT
ATOM      1  C4' BMP d          38.941  38.535  36.686  0.00  0.00     0.089 C 
ATOM      2  O4' BMP d          39.858  38.820  37.749  0.00  0.00    -0.353 OA
ATOM      3  C3' BMP d          38.237  39.838  36.367  0.00  0.00     0.091 C 
ATOM      4  C2' BMP d          39.304  40.870  36.741  0.00  0.00     0.105 C 
ATOM      5  C1' BMP d          40.054  40.191  37.889  0.00  0.00     0.143 C 
ATOM      6  H3  BMP d          38.171  37.839  37.052  0.00  0.00     0.090 H 
ATOM      7  H4  BMP d          37.979  39.895  35.300  0.00  0.00     0.091 H 
ATOM      8  H6  BMP d          39.987  41.015  35.892  0.00  0.00     0.093 H 
ATOM      9  H8  BMP d          39.531  40.503  38.805  0.00  0.00     0.123 H 
ENDROOT
BRANCH   5  10
ATOM     10  N1  BMP d          41.469  40.513  38.143  0.00  0.00    -0.249 N 
ATOM     11  C6  BMP d          42.454  40.137  37.209  0.00  0.00     0.153 A 
ATOM     12  C5  BMP d          43.744  40.416  37.423  0.00  0.00     0.032 A 
ATOM     13  C4  BMP d          44.174  41.108  38.608  0.00  0.00     0.253 A 
ATOM     14  H10 BMP d          44.485  40.113  36.684  0.00  0.00     0.098 H 
ATOM     15  N3  BMP d          43.144  41.457  39.481  0.00  0.00    -0.275 N 
ATOM     16  O4  BMP d          45.310  41.418  38.914  0.00  0.00    -0.268 OA
ATOM     17  C2  BMP d          41.811  41.203  39.318  0.00  0.00     0.333 A 
ATOM     18  H9  BMP d          43.409  41.945  40.313  0.00  0.00     0.173 HD
ATOM     19  O2  BMP d          40.949  41.542  40.109  0.00  0.00    -0.246 OA
BRANCH  11  20
ATOM     20  O1  BMP d          42.056  39.544  36.176  0.00  0.00    -0.346 OA
ATOM     21  H11 BMP d          42.180  38.607  36.283  0.00  0.00     0.219 HD
ENDBRANCH  11  20
ENDBRANCH   5  10
BRANCH   4  22
ATOM     22  O2' BMP d          38.764  42.160  37.085  0.00  0.00    -0.388 OA
ATOM     23  H7  BMP d          39.032  42.798  36.436  0.00  0.00     0.210 HD
ENDBRANCH   4  22
BRANCH   1  24
ATOM     24  C5' BMP d          39.690  37.807  35.592  0.00  0.00     0.059 C 
ATOM     25  H1  BMP d          38.979  37.310  34.915  0.00  0.00     0.079 H 
ATOM     26  H2  BMP d          40.303  38.519  35.019  0.00  0.00     0.079 H 
BRANCH  24  27
ATOM     27  O5' BMP d          40.525  36.839  36.217  0.00  0.00    -0.280 OA
BRANCH  27  28
ATOM     28  P   BMP d          40.215  35.273  36.152  0.00  0.00     0.422 P 
ATOM     29  O3P BMP d          40.987  34.603  37.406  0.00  0.00    -0.617 OA
ATOM     30  O2P BMP d          38.767  35.145  36.426  0.00  0.00    -0.617 OA
ATOM     31  O1P BMP d          40.527  34.657  34.816  0.00  0.00    -0.617 OA
ENDBRANCH  27  28
ENDBRANCH  24  27
ENDBRANCH   1  24
BRANCH   3  32
ATOM     32  O3' BMP d          37.049  40.031  37.155  0.00  0.00    -0.390 OA
ATOM     33  H5  BMP d          37.217  40.684  37.825  0.00  0.00     0.210 HD
ENDBRANCH   3  32
TORSDOF 7
ENDMDL
MODEL 2
REMARK VINA RESULT:      -5.2      1.964      4.039
REMARK  7 active torsions:
REMARK  status: ('A' for Active; 'I' for Inactive)
REMARK    1  A    between atoms: P_1  and  O5'_5 
REMARK    2  A    between atoms: O5'_5  and  C5'_6 
REMARK    3  A    between atoms: C5'_6  and  C4'_7 
REMARK    4  A    between atoms: C3'_9  and  O3'_10 
REMARK    5  A    between atoms: C2'_11  and  O2'_12 
REMARK    6  A    between atoms: C1'_13  and  N1_14 
REMARK    7  A    between atoms: C6_21  and  O1_22 
ROOT
ATOM      1  C4' BMP d          39.587  37.317  35.076  0.00  0.00     0.089 C 
ATOM      2  O4' BMP d          40.736  38.068  35.489  0.00  0.00    -0.353 OA
ATOM      3  C3' BMP d          39.492  36.131  36.012  0.00  0.00     0.091 C 
ATOM      4  C2' BMP d          40.121  36.689  37.291  0.00  0.00     0.105 C 
ATOM      5  C1' BMP d          41.154  37.686  36.762  0.00  0.00     0.143 C 
ATOM      6  H3  BMP d          39.766  36.913  34.068  0.00  0.00     0.090 H 
ATOM      7  H4  BMP d          38.444  35.840  36.174  0.00  0.00     0.091 H 
ATOM      8  H6  BMP d          39.357  37.226  37.871  0.00  0.00     0.093 H 
ATOM      9  H8  BMP d          42.082  37.109  36.640  0.00  0.00     0.123 H 
ENDROOT
BRANCH   5  10
ATOM     10  N1  BMP d          41.545  38.851  37.575  0.00  0.00    -0.249 N 
ATOM     11  C6  BMP d          42.662  39.623  37.205  0.00  0.00     0.153 A 
ATOM     12  C5  BMP d          43.035  40.681  37.933  0.00  0.00     0.032 A 
ATOM     13  C4  BMP d          42.313  41.071  39.114  0.00  0.00     0.253 A 
ATOM     14  H10 BMP d          43.904  41.261  37.624  0.00  0.00     0.098 H 
ATOM     15  N3  BMP d          41.213  40.267  39.411  0.00  0.00    -0.275 N 
ATOM     16  O4  BMP d          42.551  42.007  39.853  0.00  0.00    -0.268 OA
ATOM     17  C2  BMP d          40.781  39.177  38.709  0.00  0.00     0.333 A 
ATOM     18  H9  BMP d          40.686  40.514  40.224  0.00  0.00     0.173 HD
ATOM     19  O2  BMP d          39.804  38.514  39.008  0.00  0.00    -0.246 OA
BRANCH  11  20
ATOM     20  O1  BMP d          43.272  39.273  36.165  0.00  0.00    -0.346 OA
ATOM     21  H11 BMP d          43.742  38.464  36.332  0.00  0.00     0.219 HD
ENDBRANCH  11  20
ENDBRANCH   5  10
BRANCH   4  22
ATOM     22  O2' BMP d          40.681  35.676  38.149  0.00  0.00    -0.388 OA
ATOM     23  H7  BMP d          40.264  35.719  39.001  0.00  0.00     0.210 HD
ENDBRANCH   4  22
BRANCH   1  24
ATOM     24  C5' BMP d          38.416  38.266  34.956  0.00  0.00     0.059 C 
ATOM     25  H1  BMP d          38.002  38.225  33.938  0.00  0.00     0.079 H 
ATOM     26  H2  BMP d          37.635  37.992  35.679  0.00  0.00     0.079 H 
BRANCH  24  27
ATOM     27  O5' BMP d          38.897  39.576  35.232  0.00  0.00    -0.280 OA
BRANCH  27  28
ATOM     28  P   BMP d          38.296  40.478  36.407  0.00  0.00     0.422 P 
ATOM     29  O3P BMP d          37.088  41.334  35.752  0.00  0.00    -0.617 OA
ATOM     30  O2P BMP d          37.678  39.528  37.357  0.00  0.00    -0.617 OA
ATOM     31  O1P BMP d          39.334  41.297  37.122  0.00  0.00    -0.617 OA
ENDBRANCH  27  28
ENDBRANCH  24  27
ENDBRANCH   1  24
BRANCH   3  32
ATOM     32  O3' BMP d          40.235  34.992  35.539  0.00  0.00    -0.390 OA
ATOM     33  H5  BMP d          40.382  34.390  36.259  0.00  0.00     0.210 HD
ENDBRANCH   3  32
TORSDOF 7
ENDMDL
MODEL 3
REMARK VINA RESULT:      -5.1      2.721      6.150
REMARK  7 active torsions:
REMARK  status: ('A' for Active; 'I' for Inactive)
REMARK    1  A    between atoms: P_1  and  O5'_5 
REMARK    2  A    between atoms: O5'_5  and  C5'_6 
REMARK    3  A    between atoms: C5'_6  and  C4'_7 
REMARK    4  A    between atoms: C3'_9  and  O3'_10 
REMARK    5  A    between atoms: C2'_11  and  O2'_12 
REMARK    6  A    between atoms: C1'_13  and  N1_14 
REMARK    7  A    between atoms: C6_21  and  O1_22 
ROOT
ATOM      1  C4' BMP d          40.683  40.715  37.852  0.00  0.00     0.089 C 
ATOM      2  O4' BMP d          40.090  39.412  37.915  0.00  0.00    -0.353 OA
ATOM      3  C3' BMP d          42.135  40.506  37.476  0.00  0.00     0.091 C 
ATOM      4  C2' BMP d          42.064  39.217  36.653  0.00  0.00     0.105 C 
ATOM      5  C1' BMP d          40.897  38.462  37.294  0.00  0.00     0.143 C 
ATOM      6  H3  BMP d          40.676  41.162  38.858  0.00  0.00     0.090 H 
ATOM      7  H4  BMP d          42.511  41.346  36.874  0.00  0.00     0.091 H 
ATOM      8  H6  BMP d          41.814  39.461  35.611  0.00  0.00     0.093 H 
ATOM      9  H8  BMP d          41.347  37.848  38.089  0.00  0.00     0.123 H 
ENDROOT
BRANCH   5  10
ATOM     10  N1  BMP d          40.101  37.513  36.497  0.00  0.00    -0.249 N 
ATOM     11  C6  BMP d          39.308  37.981  35.432  0.00  0.00     0.153 A 
ATOM     12  C5  BMP d          38.575  37.135  34.700  0.00  0.00     0.032 A 
ATOM     13  C4  BMP d          38.569  35.722  34.969  0.00  0.00     0.253 A 
ATOM     14  H10 BMP d          37.970  37.524  33.883  0.00  0.00     0.098 H 
ATOM     15  N3  BMP d          39.385  35.332  36.030  0.00  0.00    -0.275 N 
ATOM     16  O4  BMP d          37.950  34.858  34.378  0.00  0.00    -0.268 OA
ATOM     17  C2  BMP d          40.157  36.144  36.813  0.00  0.00     0.333 A 
ATOM     18  H9  BMP d          39.408  34.354  36.240  0.00  0.00     0.173 HD
ATOM     19  O2  BMP d          40.862  35.748  37.722  0.00  0.00    -0.246 OA
BRANCH  11  20
ATOM     20  O1  BMP d          39.335  39.216  35.207  0.00  0.00    -0.346 OA
ATOM     21  H11 BMP d          39.623  39.367  34.314  0.00  0.00     0.219 HD
ENDBRANCH  11  20
ENDBRANCH   5  10
BRANCH   4  22
ATOM     22  O2' BMP d          43.296  38.472  36.639  0.00  0.00    -0.388 OA
ATOM     23  H7  BMP d          44.030  39.076  36.648  0.00  0.00     0.210 HD
ENDBRANCH   4  22
BRANCH   1  24
ATOM     24  C5' BMP d          39.809  41.595  36.987  0.00  0.00     0.059 C 
ATOM     25  H1  BMP d          39.833  42.630  37.359  0.00  0.00     0.079 H 
ATOM     26  H2  BMP d          40.167  41.573  35.947  0.00  0.00     0.079 H 
BRANCH  24  27
ATOM     27  O5' BMP d          38.484  41.083  37.057  0.00  0.00    -0.280 OA
BRANCH  27  28
ATOM     28  P   BMP d          37.197  42.009  36.856  0.00  0.00     0.422 P 
ATOM     29  O3P BMP d          36.315  41.862  38.204  0.00  0.00    -0.617 OA
ATOM     30  O2P BMP d          37.709  43.396  36.833  0.00  0.00    -0.617 OA
ATOM     31  O1P BMP d          36.452  41.728  35.580  0.00  0.00    -0.617 OA
ENDBRANCH  27  28
ENDBRANCH  24  27
ENDBRANCH   1  24
BRANCH   3  32
ATOM     32  O3' BMP d          42.983  40.326  38.624  0.00  0.00    -0.390 OA
ATOM     33  H5  BMP d          43.589  41.056  38.686  0.00  0.00     0.210 HD
ENDBRANCH   3  32
TORSDOF 7
ENDMDL
MODEL 4
REMARK VINA RESULT:      -5.1      1.975      4.287
REMARK  7 active torsions:
REMARK  status: ('A' for Active; 'I' for Inactive)
REMARK    1  A    between atoms: P_1  and  O5'_5 
REMARK    2  A    between atoms: O5'_5  and  C5'_6 
REMARK    3  A    between atoms: C5'_6  and  C4'_7 
REMARK    4  A    between atoms: C3'_9  and  O3'_10 
REMARK    5  A    between atoms: C2'_11  and  O2'_12 
REMARK    6  A    between atoms: C1'_13  and  N1_14 
REMARK    7  A    between atoms: C6_21  and  O1_22 
ROOT
ATOM      1  C4' BMP d          39.543  37.284  35.098  0.00  0.00     0.089 C 
ATOM      2  O4' BMP d          40.689  38.049  35.490  0.00  0.00    -0.353 OA
ATOM      3  C3' BMP d          39.491  36.086  36.022  0.00  0.00     0.091 C 
ATOM      4  C2' BMP d          40.143  36.639  37.291  0.00  0.00     0.105 C 
ATOM      5  C1' BMP d          41.146  37.659  36.748  0.00  0.00     0.143 C 
ATOM      6  H3  BMP d          39.702  36.895  34.081  0.00  0.00     0.090 H 
ATOM      7  H4  BMP d          38.452  35.776  36.207  0.00  0.00     0.091 H 
ATOM      8  H6  BMP d          39.385  37.157  37.897  0.00  0.00     0.093 H 
ATOM      9  H8  BMP d          42.080  37.099  36.595  0.00  0.00     0.123 H 
ENDROOT
BRANCH   5  10
ATOM     10  N1  BMP d          41.539  38.821  37.564  0.00  0.00    -0.249 N 
ATOM     11  C6  BMP d          40.763  39.191  38.680  0.00  0.00     0.153 A 
ATOM     12  C5  BMP d          41.102  40.245  39.430  0.00  0.00     0.032 A 
ATOM     13  C4  BMP d          42.264  41.036  39.131  0.00  0.00     0.253 A 
ATOM     14  H10 BMP d          40.483  40.509  40.287  0.00  0.00     0.098 H 
ATOM     15  N3  BMP d          42.987  40.604  38.020  0.00  0.00    -0.275 N 
ATOM     16  O4  BMP d          42.673  42.010  39.734  0.00  0.00    -0.268 OA
ATOM     17  C2  BMP d          42.696  39.539  37.216  0.00  0.00     0.333 A 
ATOM     18  H9  BMP d          43.806  41.130  37.787  0.00  0.00     0.173 HD
ATOM     19  O2  BMP d          43.371  39.197  36.261  0.00  0.00    -0.246 OA
BRANCH  11  20
ATOM     20  O1  BMP d          39.759  38.481  38.931  0.00  0.00    -0.346 OA
ATOM     21  H11 BMP d          39.939  37.581  38.684  0.00  0.00     0.219 HD
ENDBRANCH  11  20
ENDBRANCH   5  10
BRANCH   4  22
ATOM     22  O2' BMP d          40.741  35.627  38.122  0.00  0.00    -0.388 OA
ATOM     23  H7  BMP d          40.245  35.547  38.928  0.00  0.00     0.210 HD
ENDBRANCH   4  22
BRANCH   1  24
ATOM     24  C5' BMP d          38.354  38.215  35.018  0.00  0.00     0.059 C 
ATOM     25  H1  BMP d          37.850  38.100  34.047  0.00  0.00     0.079 H 
ATOM     26  H2  BMP d          37.644  37.987  35.827  0.00  0.00     0.079 H 
BRANCH  24  27
ATOM     27  O5' BMP d          38.841  39.545  35.158  0.00  0.00    -0.280 OA
BRANCH  27  28
ATOM     28  P   BMP d          38.343  40.520  36.322  0.00  0.00     0.422 P 
ATOM     29  O3P BMP d          37.051  41.302  35.739  0.00  0.00    -0.617 OA
ATOM     30  O2P BMP d          37.853  39.633  37.399  0.00  0.00    -0.617 OA
ATOM     31  O1P BMP d          39.429  41.410  36.861  0.00  0.00    -0.617 OA
ENDBRANCH  27  28
ENDBRANCH  24  27
ENDBRANCH   1  24
BRANCH   3  32
ATOM     32  O3' BMP d          40.239  34.965  35.517  0.00  0.00    -0.390 OA
ATOM     33  H5  BMP d          39.825  34.157  35.796  0.00  0.00     0.210 HD
ENDBRANCH   3  32
TORSDOF 7
ENDMDL
