MODEL 1
REMARK VINA RESULT:      -5.4      0.000      0.000
REMARK  9 active torsions:
REMARK  status: ('A' for Active; 'I' for Inactive)
REMARK    1  A    between atoms: C1_1  and  C2_3 
REMARK    2  A    between atoms: C2_3  and  C3_4 
REMARK    3  A    between atoms: C3_4  and  C4_5 
REMARK    4  A    between atoms: C4_5  and  C5_6 
REMARK    5  A    between atoms: C5_6  and  C6_7 
REMARK    6  A    between atoms: C6_7  and  C7_8 
REMARK    7  A    between atoms: C7_8  and  C8_9 
REMARK    8  A    between atoms: C8_9  and  C9_10 
REMARK    9  A    between atoms: C9_10  and  C10_11 
ROOT
ATOM      1  C6  DKA d           1.431  -1.121  24.070  0.00  0.00    -0.065 C 
ATOM      2  H9  DKA d           0.680  -0.871  24.835  0.00  0.00     0.033 H 
ATOM      3  H10 DKA d           2.434  -0.870  24.446  0.00  0.00     0.033 H 
ENDROOT
BRANCH   1   4
ATOM      4  C5  DKA d           1.151  -0.301  22.810  0.00  0.00    -0.065 C 
ATOM      5  H7  DKA d           0.091  -0.420  22.539  0.00  0.00     0.033 H 
ATOM      6  H8  DKA d           1.358   0.758  23.024  0.00  0.00     0.033 H 
BRANCH   4   7
ATOM      7  C4  DKA d           2.009  -0.741  21.635  0.00  0.00    -0.065 C 
ATOM      8  H5  DKA d           2.090  -1.837  21.643  0.00  0.00     0.033 H 
ATOM      9  H6  DKA d           1.529  -0.415  20.701  0.00  0.00     0.033 H 
BRANCH   7  10
ATOM     10  C3  DKA d           3.410  -0.140  21.709  0.00  0.00    -0.056 C 
ATOM     11  H3  DKA d           3.721  -0.122  22.764  0.00  0.00     0.033 H 
ATOM     12  H4  DKA d           4.091  -0.787  21.137  0.00  0.00     0.033 H 
BRANCH  10  13
ATOM     13  C2  DKA d           3.522   1.289  21.151  0.00  0.00     0.016 C 
ATOM     14  H1  DKA d           4.268   1.302  20.343  0.00  0.00     0.049 H 
ATOM     15  H2  DKA d           2.544   1.598  20.751  0.00  0.00     0.049 H 
BRANCH  13  16
ATOM     16  C1  DKA d           3.946   2.266  22.237  0.00  0.00     0.172 C 
ATOM     17  O1  DKA d           4.580   3.292  21.992  0.00  0.00    -0.648 OA
ATOM     18  O2  DKA d           3.666   2.056  23.527  0.00  0.00    -0.648 OA
ENDBRANCH  13  16
ENDBRANCH  10  13
ENDBRANCH   7  10
ENDBRANCH   4   7
ENDBRANCH   1   4
BRANCH   1  19
ATOM     19  C7  DKA d           1.367  -2.608  23.784  0.00  0.00    -0.065 C 
ATOM     20  H11 DKA d           2.385  -3.021  23.844  0.00  0.00     0.033 H 
ATOM     21  H12 DKA d           0.969  -2.755  22.769  0.00  0.00     0.033 H 
BRANCH  19  22
ATOM     22  C8  DKA d           0.477  -3.357  24.772  0.00  0.00    -0.065 C 
ATOM     23  H13 DKA d           1.100  -4.027  25.383  0.00  0.00     0.033 H 
ATOM     24  H14 DKA d          -0.261  -3.951  24.214  0.00  0.00     0.033 H 
BRANCH  22  25
ATOM     25  C9  DKA d          -0.254  -2.383  25.685  0.00  0.00    -0.069 C 
ATOM     26  H15 DKA d          -1.333  -2.445  25.481  0.00  0.00     0.032 H 
ATOM     27  H16 DKA d           0.101  -1.363  25.475  0.00  0.00     0.032 H 
BRANCH  25  28
ATOM     28  C10 DKA d          -0.014  -2.691  27.145  0.00  0.00    -0.077 C 
ATOM     29  H17 DKA d          -0.083  -1.763  27.731  0.00  0.00     0.027 H 
ATOM     30  H18 DKA d           0.987  -3.130  27.268  0.00  0.00     0.027 H 
ATOM     31  H19 DKA d          -0.773  -3.405  27.498  0.00  0.00     0.027 H 
ENDBRANCH  25  28
ENDBRANCH  22  25
ENDBRANCH  19  22
ENDBRANCH   1  19
TORSDOF 9
ENDMDL
MODEL 2
REMARK VINA RESULT:      -5.3      3.507      6.126
REMARK  9 active torsions:
REMARK  status: ('A' for Active; 'I' for Inactive)
REMARK    1  A    between atoms: C1_1  and  C2_3 
REMARK    2  A    between atoms: C2_3  and  C3_4 
REMARK    3  A    between atoms: C3_4  and  C4_5 
REMARK    4  A    between atoms: C4_5  and  C5_6 
REMARK    5  A    between atoms: C5_6  and  C6_7 
REMARK    6  A    between atoms: C6_7  and  C7_8 
REMARK    7  A    between atoms: C7_8  and  C8_9 
REMARK    8  A    between atoms: C8_9  and  C9_10 
REMARK    9  A    between atoms: C9_10  and  C10_11 
ROOT
ATOM      1  C6  DKA d           1.314   0.259  22.528  0.00  0.00    -0.065 C 
ATOM      2  H9  DKA d           1.303   0.275  23.628  0.00  0.00     0.033 H 
ATOM      3  H10 DKA d           0.317   0.528  22.148  0.00  0.00     0.033 H 
ENDROOT
BRANCH   1   4
ATOM      4  C5  DKA d           1.665  -1.151  22.052  0.00  0.00    -0.065 C 
ATOM      5  H7  DKA d           0.965  -1.439  21.254  0.00  0.00     0.033 H 
ATOM      6  H8  DKA d           2.692  -1.144  21.656  0.00  0.00     0.033 H 
BRANCH   4   7
ATOM      7  C4  DKA d           1.579  -2.174  23.172  0.00  0.00    -0.065 C 
ATOM      8  H5  DKA d           0.787  -2.899  22.933  0.00  0.00     0.033 H 
ATOM      9  H6  DKA d           2.542  -2.697  23.253  0.00  0.00     0.033 H 
BRANCH   7  10
ATOM     10  C3  DKA d           1.259  -1.515  24.511  0.00  0.00    -0.056 C 
ATOM     11  H3  DKA d           2.131  -1.635  25.170  0.00  0.00     0.033 H 
ATOM     12  H4  DKA d           1.080  -0.444  24.332  0.00  0.00     0.033 H 
BRANCH  10  13
ATOM     13  C2  DKA d           0.028  -2.094  25.231  0.00  0.00     0.016 C 
ATOM     14  H1  DKA d          -0.536  -1.272  25.696  0.00  0.00     0.049 H 
ATOM     15  H2  DKA d          -0.610  -2.606  24.496  0.00  0.00     0.049 H 
BRANCH  13  16
ATOM     16  C1  DKA d           0.444  -3.086  26.307  0.00  0.00     0.172 C 
ATOM     17  O1  DKA d           0.764  -4.245  26.048  0.00  0.00    -0.648 OA
ATOM     18  O2  DKA d           0.473  -2.755  27.602  0.00  0.00    -0.648 OA
ENDBRANCH  13  16
ENDBRANCH  10  13
ENDBRANCH   7  10
ENDBRANCH   4   7
ENDBRANCH   1   4
BRANCH   1  19
ATOM     19  C7  DKA d           2.322   1.275  22.030  0.00  0.00    -0.065 C 
ATOM     20  H11 DKA d           1.818   1.957  21.330  0.00  0.00     0.033 H 
ATOM     21  H12 DKA d           3.130   0.742  21.508  0.00  0.00     0.033 H 
BRANCH  19  22
ATOM     22  C8  DKA d           2.931   2.099  23.162  0.00  0.00    -0.065 C 
ATOM     23  H13 DKA d           3.931   1.704  23.398  0.00  0.00     0.033 H 
ATOM     24  H14 DKA d           2.288   2.024  24.050  0.00  0.00     0.033 H 
BRANCH  22  25
ATOM     25  C9  DKA d           3.055   3.561  22.757  0.00  0.00    -0.069 C 
ATOM     26  H15 DKA d           4.062   3.733  22.348  0.00  0.00     0.032 H 
ATOM     27  H16 DKA d           2.909   4.191  23.647  0.00  0.00     0.032 H 
BRANCH  25  28
ATOM     28  C10 DKA d           2.032   3.946  21.714  0.00  0.00    -0.077 C 
ATOM     29  H17 DKA d           2.031   3.197  20.909  0.00  0.00     0.027 H 
ATOM     30  H18 DKA d           2.285   4.932  21.298  0.00  0.00     0.027 H 
ATOM     31  H19 DKA d           1.035   3.988  22.177  0.00  0.00     0.027 H 
ENDBRANCH  25  28
ENDBRANCH  22  25
ENDBRANCH  19  22
ENDBRANCH   1  19
TORSDOF 9
ENDMDL
MODEL 3
REMARK VINA RESULT:      -5.3      1.157      1.512
REMARK  9 active torsions:
REMARK  status: ('A' for Active; 'I' for Inactive)
REMARK    1  A    between atoms: C1_1  and  C2_3 
REMARK    2  A    between atoms: C2_3  and  C3_4 
REMARK    3  A    between atoms: C3_4  and  C4_5 
REMARK    4  A    between atoms: C4_5  and  C5_6 
REMARK    5  A    between atoms: C5_6  and  C6_7 
REMARK    6  A    between atoms: C6_7  and  C7_8 
REMARK    7  A    between atoms: C7_8  and  C8_9 
REMARK    8  A    between atoms: C8_9  and  C9_10 
REMARK    9  A    between atoms: C9_10  and  C10_11 
ROOT
ATOM      1  C6  DKA d           1.393  -1.184  23.854  0.00  0.00    -0.065 C 
ATOM      2  H9  DKA d           0.421  -0.791  24.186  0.00  0.00     0.033 H 
ATOM      3  H10 DKA d           2.183  -0.827  24.532  0.00  0.00     0.033 H 
ENDROOT
BRANCH   1   4
ATOM      4  C5  DKA d           1.680  -0.673  22.441  0.00  0.00    -0.065 C 
ATOM      5  H7  DKA d           2.680  -1.017  22.137  0.00  0.00     0.033 H 
ATOM      6  H8  DKA d           0.926  -1.086  21.756  0.00  0.00     0.033 H 
BRANCH   4   7
ATOM      7  C4  DKA d           1.639   0.844  22.358  0.00  0.00    -0.065 C 
ATOM      8  H5  DKA d           1.725   1.147  21.305  0.00  0.00     0.033 H 
ATOM      9  H6  DKA d           0.680   1.198  22.764  0.00  0.00     0.033 H 
BRANCH   7  10
ATOM     10  C3  DKA d           2.777   1.480  23.151  0.00  0.00    -0.056 C 
ATOM     11  H3  DKA d           2.382   2.369  23.666  0.00  0.00     0.033 H 
ATOM     12  H4  DKA d           3.126   0.750  23.896  0.00  0.00     0.033 H 
BRANCH  10  13
ATOM     13  C2  DKA d           3.983   1.914  22.300  0.00  0.00     0.016 C 
ATOM     14  H1  DKA d           4.881   1.941  22.935  0.00  0.00     0.049 H 
ATOM     15  H2  DKA d           4.131   1.187  21.488  0.00  0.00     0.049 H 
BRANCH  13  16
ATOM     16  C1  DKA d           3.757   3.293  21.699  0.00  0.00     0.172 C 
ATOM     17  O1  DKA d           3.005   4.122  22.210  0.00  0.00    -0.648 OA
ATOM     18  O2  DKA d           4.355   3.679  20.567  0.00  0.00    -0.648 OA
ENDBRANCH  13  16
ENDBRANCH  10  13
ENDBRANCH   7  10
ENDBRANCH   4   7
ENDBRANCH   1   4
BRANCH   1  19
ATOM     19  C7  DKA d           1.354  -2.698  23.894  0.00  0.00    -0.065 C 
ATOM     20  H11 DKA d           2.285  -3.062  24.352  0.00  0.00     0.033 H 
ATOM     21  H12 DKA d           1.279  -3.076  22.863  0.00  0.00     0.033 H 
BRANCH  19  22
ATOM     22  C8  DKA d           0.172  -3.232  24.698  0.00  0.00    -0.065 C 
ATOM     23  H13 DKA d           0.473  -4.161  25.208  0.00  0.00     0.033 H 
ATOM     24  H14 DKA d          -0.663  -3.443  24.015  0.00  0.00     0.033 H 
BRANCH  22  25
ATOM     25  C9  DKA d          -0.277  -2.215  25.737  0.00  0.00    -0.069 C 
ATOM     26  H15 DKA d          -1.366  -2.082  25.658  0.00  0.00     0.032 H 
ATOM     27  H16 DKA d           0.225  -1.257  25.537  0.00  0.00     0.032 H 
BRANCH  25  28
ATOM     28  C10 DKA d           0.060  -2.658  27.142  0.00  0.00    -0.077 C 
ATOM     29  H17 DKA d          -0.219  -3.714  27.270  0.00  0.00     0.027 H 
ATOM     30  H18 DKA d          -0.495  -2.041  27.864  0.00  0.00     0.027 H 
ATOM     31  H19 DKA d           1.140  -2.540  27.314  0.00  0.00     0.027 H 
ENDBRANCH  25  28
ENDBRANCH  22  25
ENDBRANCH  19  22
ENDBRANCH   1  19
TORSDOF 9
ENDMDL
MODEL 4
REMARK VINA RESULT:      -5.1      3.264      6.161
REMARK  9 active torsions:
REMARK  status: ('A' for Active; 'I' for Inactive)
REMARK    1  A    between atoms: C1_1  and  C2_3 
REMARK    2  A    between atoms: C2_3  and  C3_4 
REMARK    3  A    between atoms: C3_4  and  C4_5 
REMARK    4  A    between atoms: C4_5  and  C5_6 
REMARK    5  A    between atoms: C5_6  and  C6_7 
REMARK    6  A    between atoms: C6_7  and  C7_8 
REMARK    7  A    between atoms: C7_8  and  C8_9 
REMARK    8  A    between atoms: C8_9  and  C9_10 
REMARK    9  A    between atoms: C9_10  and  C10_11 
ROOT
ATOM      1  C6  DKA d           2.786   0.753  22.421  0.00  0.00    -0.065 C 
ATOM      2  H9  DKA d           2.663   1.162  21.407  0.00  0.00     0.033 H 
ATOM      3  H10 DKA d           3.658   0.083  22.443  0.00  0.00     0.033 H 
ENDROOT
BRANCH   1   4
ATOM      4  C5  DKA d           1.535  -0.044  22.791  0.00  0.00    -0.065 C 
ATOM      5  H7  DKA d           1.353   0.064  23.871  0.00  0.00     0.033 H 
ATOM      6  H8  DKA d           0.679   0.361  22.232  0.00  0.00     0.033 H 
BRANCH   4   7
ATOM      7  C4  DKA d           1.677  -1.522  22.466  0.00  0.00    -0.065 C 
ATOM      8  H5  DKA d           1.012  -1.768  21.625  0.00  0.00     0.033 H 
ATOM      9  H6  DKA d           2.719  -1.727  22.182  0.00  0.00     0.033 H 
BRANCH   7  10
ATOM     10  C3  DKA d           1.308  -2.397  23.661  0.00  0.00    -0.056 C 
ATOM     11  H3  DKA d           0.257  -2.703  23.551  0.00  0.00     0.033 H 
ATOM     12  H4  DKA d           1.953  -3.288  23.646  0.00  0.00     0.033 H 
BRANCH  10  13
ATOM     13  C2  DKA d           1.469  -1.710  25.028  0.00  0.00     0.016 C 
ATOM     14  H1  DKA d           2.460  -1.953  25.439  0.00  0.00     0.049 H 
ATOM     15  H2  DKA d           1.383  -0.621  24.897  0.00  0.00     0.049 H 
BRANCH  13  16
ATOM     16  C1  DKA d           0.397  -2.180  26.001  0.00  0.00     0.172 C 
ATOM     17  O1  DKA d          -0.804  -2.118  25.742  0.00  0.00    -0.648 OA
ATOM     18  O2  DKA d           0.702  -2.675  27.205  0.00  0.00    -0.648 OA
ENDBRANCH  13  16
ENDBRANCH  10  13
ENDBRANCH   7  10
ENDBRANCH   4   7
ENDBRANCH   1   4
BRANCH   1  19
ATOM     19  C7  DKA d           3.017   1.896  23.389  0.00  0.00    -0.065 C 
ATOM     20  H11 DKA d           3.655   1.538  24.209  0.00  0.00     0.033 H 
ATOM     21  H12 DKA d           2.045   2.217  23.792  0.00  0.00     0.033 H 
BRANCH  19  22
ATOM     22  C8  DKA d           3.693   3.095  22.729  0.00  0.00    -0.065 C 
ATOM     23  H13 DKA d           4.443   2.735  22.009  0.00  0.00     0.033 H 
ATOM     24  H14 DKA d           4.188   3.700  23.502  0.00  0.00     0.033 H 
BRANCH  22  25
ATOM     25  C9  DKA d           2.672   3.955  22.000  0.00  0.00    -0.069 C 
ATOM     26  H15 DKA d           2.646   4.950  22.468  0.00  0.00     0.032 H 
ATOM     27  H16 DKA d           1.682   3.483  22.086  0.00  0.00     0.032 H 
BRANCH  25  28
ATOM     28  C10 DKA d           3.011   4.113  20.536  0.00  0.00    -0.077 C 
ATOM     29  H17 DKA d           2.831   5.154  20.229  0.00  0.00     0.027 H 
ATOM     30  H18 DKA d           2.379   3.440  19.938  0.00  0.00     0.027 H 
ATOM     31  H19 DKA d           4.069   3.861  20.376  0.00  0.00     0.027 H 
ENDBRANCH  25  28
ENDBRANCH  22  25
ENDBRANCH  19  22
ENDBRANCH   1  19
TORSDOF 9
ENDMDL
MODEL 5
REMARK VINA RESULT:      -4.8      3.181      5.835
REMARK  9 active torsions:
REMARK  status: ('A' for Active; 'I' for Inactive)
REMARK    1  A    between atoms: C1_1  and  C2_3 
REMARK    2  A    between atoms: C2_3  and  C3_4 
REMARK    3  A    between atoms: C3_4  and  C4_5 
REMARK    4  A    between atoms: C4_5  and  C5_6 
REMARK    5  A    between atoms: C5_6  and  C6_7 
REMARK    6  A    between atoms: C6_7  and  C7_8 
REMARK    7  A    between atoms: C7_8  and  C8_9 
REMARK    8  A    between atoms: C8_9  and  C9_10 
REMARK    9  A    between atoms: C9_10  and  C10_11 
ROOT
ATOM      1  C6  DKA d           3.243  -0.851  21.601  0.00  0.00    -0.065 C 
ATOM      2  H9  DKA d           3.733  -1.810  21.377  0.00  0.00     0.033 H 
ATOM      3  H10 DKA d           3.600  -0.475  22.571  0.00  0.00     0.033 H 
ENDROOT
BRANCH   1   4
ATOM      4  C5  DKA d           1.732  -1.070  21.677  0.00  0.00    -0.065 C 
ATOM      5  H7  DKA d           1.260  -0.584  20.809  0.00  0.00     0.033 H 
ATOM      6  H8  DKA d           1.529  -2.151  21.648  0.00  0.00     0.033 H 
BRANCH   4   7
ATOM      7  C4  DKA d           1.130  -0.493  22.947  0.00  0.00    -0.065 C 
ATOM      8  H5  DKA d           1.473   0.545  23.066  0.00  0.00     0.033 H 
ATOM      9  H6  DKA d           0.034  -0.510  22.863  0.00  0.00     0.033 H 
BRANCH   7  10
ATOM     10  C3  DKA d           1.544  -1.295  24.178  0.00  0.00    -0.056 C 
ATOM     11  H3  DKA d           2.643  -1.325  24.214  0.00  0.00     0.033 H 
ATOM     12  H4  DKA d           1.162  -0.777  25.070  0.00  0.00     0.033 H 
BRANCH  10  13
ATOM     13  C2  DKA d           1.023  -2.743  24.202  0.00  0.00     0.016 C 
ATOM     14  H1  DKA d           0.410  -2.919  23.305  0.00  0.00     0.049 H 
ATOM     15  H2  DKA d           1.879  -3.434  24.202  0.00  0.00     0.049 H 
BRANCH  13  16
ATOM     16  C1  DKA d           0.177  -2.996  25.441  0.00  0.00     0.172 C 
ATOM     17  O1  DKA d          -0.709  -2.224  25.805  0.00  0.00    -0.648 OA
ATOM     18  O2  DKA d           0.360  -4.071  26.215  0.00  0.00    -0.648 OA
ENDBRANCH  13  16
ENDBRANCH  10  13
ENDBRANCH   7  10
ENDBRANCH   4   7
ENDBRANCH   1   4
BRANCH   1  19
ATOM     19  C7  DKA d           3.600   0.150  20.521  0.00  0.00    -0.065 C 
ATOM     20  H11 DKA d           2.966  -0.039  19.642  0.00  0.00     0.033 H 
ATOM     21  H12 DKA d           4.657   0.011  20.248  0.00  0.00     0.033 H 
BRANCH  19  22
ATOM     22  C8  DKA d           3.396   1.594  20.970  0.00  0.00    -0.065 C 
ATOM     23  H13 DKA d           2.319   1.786  21.091  0.00  0.00     0.033 H 
ATOM     24  H14 DKA d           3.805   2.271  20.206  0.00  0.00     0.033 H 
BRANCH  22  25
ATOM     25  C9  DKA d           4.102   1.852  22.294  0.00  0.00    -0.069 C 
ATOM     26  H15 DKA d           4.953   2.526  22.118  0.00  0.00     0.032 H 
ATOM     27  H16 DKA d           4.469   0.895  22.693  0.00  0.00     0.032 H 
BRANCH  25  28
ATOM     28  C10 DKA d           3.180   2.483  23.310  0.00  0.00    -0.077 C 
ATOM     29  H17 DKA d           2.507   1.716  23.720  0.00  0.00     0.027 H 
ATOM     30  H18 DKA d           2.585   3.272  22.826  0.00  0.00     0.027 H 
ATOM     31  H19 DKA d           3.776   2.921  24.124  0.00  0.00     0.027 H 
ENDBRANCH  25  28
ENDBRANCH  22  25
ENDBRANCH  19  22
ENDBRANCH   1  19
TORSDOF 9
ENDMDL
MODEL 6
REMARK VINA RESULT:      -3.7      3.149      5.544
REMARK  9 active torsions:
REMARK  status: ('A' for Active; 'I' for Inactive)
REMARK    1  A    between atoms: C1_1  and  C2_3 
REMARK    2  A    between atoms: C2_3  and  C3_4 
REMARK    3  A    between atoms: C3_4  and  C4_5 
REMARK    4  A    between atoms: C4_5  and  C5_6 
REMARK    5  A    between atoms: C5_6  and  C6_7 
REMARK    6  A    between atoms: C6_7  and  C7_8 
REMARK    7  A    between atoms: C7_8  and  C8_9 
REMARK    8  A    between atoms: C8_9  and  C9_10 
REMARK    9  A    between atoms: C9_10  and  C10_11 
ROOT
ATOM      1  C6  DKA d           2.437   1.510  23.439  0.00  0.00    -0.065 C 
ATOM      2  H9  DKA d           2.798   0.745  24.142  0.00  0.00     0.033 H 
ATOM      3  H10 DKA d           1.495   1.937  23.813  0.00  0.00     0.033 H 
ENDROOT
BRANCH   1   4
ATOM      4  C5  DKA d           2.184   0.857  22.079  0.00  0.00    -0.065 C 
ATOM      5  H7  DKA d           1.543   1.522  21.481  0.00  0.00     0.033 H 
ATOM      6  H8  DKA d           3.148   0.719  21.568  0.00  0.00     0.033 H 
BRANCH   4   7
ATOM      7  C4  DKA d           1.500  -0.495  22.209  0.00  0.00    -0.065 C 
ATOM      8  H5  DKA d           0.897  -0.503  23.128  0.00  0.00     0.033 H 
ATOM      9  H6  DKA d           0.845  -0.649  21.339  0.00  0.00     0.033 H 
BRANCH   7  10
ATOM     10  C3  DKA d           2.515  -1.632  22.272  0.00  0.00    -0.056 C 
ATOM     11  H3  DKA d           2.851  -1.735  23.315  0.00  0.00     0.033 H 
ATOM     12  H4  DKA d           2.013  -2.559  21.956  0.00  0.00     0.033 H 
BRANCH  10  13
ATOM     13  C2  DKA d           3.756  -1.431  21.385  0.00  0.00     0.016 C 
ATOM     14  H1  DKA d           4.352  -0.597  21.784  0.00  0.00     0.049 H 
ATOM     15  H2  DKA d           4.359  -2.351  21.395  0.00  0.00     0.049 H 
BRANCH  13  16
ATOM     16  C1  DKA d           3.355  -1.115  19.952  0.00  0.00     0.172 C 
ATOM     17  O1  DKA d           2.595  -1.834  19.305  0.00  0.00    -0.648 OA
ATOM     18  O2  DKA d           3.818  -0.039  19.307  0.00  0.00    -0.648 OA
ENDBRANCH  13  16
ENDBRANCH  10  13
ENDBRANCH   7  10
ENDBRANCH   4   7
ENDBRANCH   1   4
BRANCH   1  19
ATOM     19  C7  DKA d           3.472   2.611  23.335  0.00  0.00    -0.065 C 
ATOM     20  H11 DKA d           4.215   2.473  24.134  0.00  0.00     0.033 H 
ATOM     21  H12 DKA d           2.969   3.581  23.465  0.00  0.00     0.033 H 
BRANCH  19  22
ATOM     22  C8  DKA d           4.195   2.612  21.991  0.00  0.00    -0.065 C 
ATOM     23  H13 DKA d           3.709   1.889  21.319  0.00  0.00     0.033 H 
ATOM     24  H14 DKA d           5.244   2.321  22.145  0.00  0.00     0.033 H 
BRANCH  22  25
ATOM     25  C9  DKA d           4.149   3.994  21.355  0.00  0.00    -0.069 C 
ATOM     26  H15 DKA d           5.098   4.176  20.830  0.00  0.00     0.032 H 
ATOM     27  H16 DKA d           4.018   4.746  22.147  0.00  0.00     0.032 H 
BRANCH  25  28
ATOM     28  C10 DKA d           3.012   4.122  20.368  0.00  0.00    -0.077 C 
ATOM     29  H17 DKA d           2.258   4.816  20.766  0.00  0.00     0.027 H 
ATOM     30  H18 DKA d           2.554   3.135  20.206  0.00  0.00     0.027 H 
ATOM     31  H19 DKA d           3.398   4.509  19.413  0.00  0.00     0.027 H 
ENDBRANCH  25  28
ENDBRANCH  22  25
ENDBRANCH  19  22
ENDBRANCH   1  19
TORSDOF 9
ENDMDL
MODEL 7
REMARK VINA RESULT:      -3.5      3.229      6.018
REMARK  9 active torsions:
REMARK  status: ('A' for Active; 'I' for Inactive)
REMARK    1  A    between atoms: C1_1  and  C2_3 
REMARK    2  A    between atoms: C2_3  and  C3_4 
REMARK    3  A    between atoms: C3_4  and  C4_5 
REMARK    4  A    between atoms: C4_5  and  C5_6 
REMARK    5  A    between atoms: C5_6  and  C6_7 
REMARK    6  A    between atoms: C6_7  and  C7_8 
REMARK    7  A    between atoms: C7_8  and  C8_9 
REMARK    8  A    between atoms: C8_9  and  C9_10 
REMARK    9  A    between atoms: C9_10  and  C10_11 
ROOT
ATOM      1  C6  DKA d           2.122  -0.541  23.558  0.00  0.00    -0.065 C 
ATOM      2  H9  DKA d           3.039  -0.947  24.009  0.00  0.00     0.033 H 
ATOM      3  H10 DKA d           1.628   0.132  24.273  0.00  0.00     0.033 H 
ENDROOT
BRANCH   1   4
ATOM      4  C5  DKA d           1.177  -1.697  23.226  0.00  0.00    -0.065 C 
ATOM      5  H7  DKA d           0.187  -1.478  23.654  0.00  0.00     0.033 H 
ATOM      6  H8  DKA d           1.093  -1.782  22.132  0.00  0.00     0.033 H 
BRANCH   4   7
ATOM      7  C4  DKA d           1.670  -3.022  23.784  0.00  0.00    -0.065 C 
ATOM      8  H5  DKA d           0.923  -3.800  23.569  0.00  0.00     0.033 H 
ATOM      9  H6  DKA d           2.621  -3.282  23.299  0.00  0.00     0.033 H 
BRANCH   7  10
ATOM     10  C3  DKA d           1.887  -2.948  25.293  0.00  0.00    -0.056 C 
ATOM     11  H3  DKA d           2.805  -3.502  25.535  0.00  0.00     0.033 H 
ATOM     12  H4  DKA d           2.013  -1.891  25.571  0.00  0.00     0.033 H 
BRANCH  10  13
ATOM     13  C2  DKA d           0.737  -3.532  26.133  0.00  0.00     0.016 C 
ATOM     14  H1  DKA d           0.205  -4.288  25.537  0.00  0.00     0.049 H 
ATOM     15  H2  DKA d           1.154  -4.003  27.035  0.00  0.00     0.049 H 
BRANCH  13  16
ATOM     16  C1  DKA d          -0.242  -2.444  26.546  0.00  0.00     0.172 C 
ATOM     17  O1  DKA d          -0.981  -1.879  25.741  0.00  0.00    -0.648 OA
ATOM     18  O2  DKA d          -0.345  -2.028  27.813  0.00  0.00    -0.648 OA
ENDBRANCH  13  16
ENDBRANCH  10  13
ENDBRANCH   7  10
ENDBRANCH   4   7
ENDBRANCH   1   4
BRANCH   1  19
ATOM     19  C7  DKA d           2.490   0.243  22.314  0.00  0.00    -0.065 C 
ATOM     20  H11 DKA d           2.278  -0.377  21.431  0.00  0.00     0.033 H 
ATOM     21  H12 DKA d           3.564   0.476  22.350  0.00  0.00     0.033 H 
BRANCH  19  22
ATOM     22  C8  DKA d           1.709   1.549  22.193  0.00  0.00    -0.065 C 
ATOM     23  H13 DKA d           0.930   1.578  22.969  0.00  0.00     0.033 H 
ATOM     24  H14 DKA d           1.240   1.598  21.200  0.00  0.00     0.033 H 
BRANCH  22  25
ATOM     25  C9  DKA d           2.633   2.746  22.369  0.00  0.00    -0.069 C 
ATOM     26  H15 DKA d           2.754   2.947  23.443  0.00  0.00     0.032 H 
ATOM     27  H16 DKA d           2.178   3.622  21.882  0.00  0.00     0.032 H 
BRANCH  25  28
ATOM     28  C10 DKA d           3.994   2.502  21.760  0.00  0.00    -0.077 C 
ATOM     29  H17 DKA d           4.602   1.903  22.453  0.00  0.00     0.027 H 
ATOM     30  H18 DKA d           4.491   3.466  21.575  0.00  0.00     0.027 H 
ATOM     31  H19 DKA d           3.879   1.961  20.810  0.00  0.00     0.027 H 
ENDBRANCH  25  28
ENDBRANCH  22  25
ENDBRANCH  19  22
ENDBRANCH   1  19
TORSDOF 9
ENDMDL
MODEL 8
REMARK VINA RESULT:      -3.3      2.442      3.028
REMARK  9 active torsions:
REMARK  status: ('A' for Active; 'I' for Inactive)
REMARK    1  A    between atoms: C1_1  and  C2_3 
REMARK    2  A    between atoms: C2_3  and  C3_4 
REMARK    3  A    between atoms: C3_4  and  C4_5 
REMARK    4  A    between atoms: C4_5  and  C5_6 
REMARK    5  A    between atoms: C5_6  and  C6_7 
REMARK    6  A    between atoms: C6_7  and  C7_8 
REMARK    7  A    between atoms: C7_8  and  C8_9 
REMARK    8  A    between atoms: C8_9  and  C9_10 
REMARK    9  A    between atoms: C9_10  and  C10_11 
ROOT
ATOM      1  C6  DKA d           0.286  -0.849  24.303  0.00  0.00    -0.065 C 
ATOM      2  H9  DKA d          -0.668  -0.543  23.848  0.00  0.00     0.033 H 
ATOM      3  H10 DKA d           0.596  -0.097  25.044  0.00  0.00     0.033 H 
ENDROOT
BRANCH   1   4
ATOM      4  C5  DKA d           1.352  -0.943  23.211  0.00  0.00    -0.065 C 
ATOM      5  H7  DKA d           1.909  -1.882  23.340  0.00  0.00     0.033 H 
ATOM      6  H8  DKA d           0.853  -0.943  22.230  0.00  0.00     0.033 H 
BRANCH   4   7
ATOM      7  C4  DKA d           2.331   0.218  23.262  0.00  0.00    -0.065 C 
ATOM      8  H5  DKA d           1.790   1.130  23.554  0.00  0.00     0.033 H 
ATOM      9  H6  DKA d           3.108  -0.002  24.008  0.00  0.00     0.033 H 
BRANCH   7  10
ATOM     10  C3  DKA d           2.997   0.450  21.908  0.00  0.00    -0.056 C 
ATOM     11  H3  DKA d           2.700   1.445  21.545  0.00  0.00     0.033 H 
ATOM     12  H4  DKA d           4.087   0.423  22.053  0.00  0.00     0.033 H 
BRANCH  10  13
ATOM     13  C2  DKA d           2.628  -0.585  20.831  0.00  0.00     0.016 C 
ATOM     14  H1  DKA d           1.770  -1.178  21.179  0.00  0.00     0.049 H 
ATOM     15  H2  DKA d           2.358  -0.058  19.903  0.00  0.00     0.049 H 
BRANCH  13  16
ATOM     16  C1  DKA d           3.797  -1.518  20.550  0.00  0.00     0.172 C 
ATOM     17  O1  DKA d           4.590  -1.865  21.424  0.00  0.00    -0.648 OA
ATOM     18  O2  DKA d           4.037  -2.005  19.328  0.00  0.00    -0.648 OA
ENDBRANCH  13  16
ENDBRANCH  10  13
ENDBRANCH   7  10
ENDBRANCH   4   7
ENDBRANCH   1   4
BRANCH   1  19
ATOM     19  C7  DKA d           0.094  -2.180  25.000  0.00  0.00    -0.065 C 
ATOM     20  H11 DKA d          -0.153  -2.941  24.246  0.00  0.00     0.033 H 
ATOM     21  H12 DKA d          -0.738  -2.088  25.715  0.00  0.00     0.033 H 
BRANCH  19  22
ATOM     22  C8  DKA d           1.341  -2.630  25.758  0.00  0.00    -0.065 C 
ATOM     23  H13 DKA d           1.183  -2.478  26.836  0.00  0.00     0.033 H 
ATOM     24  H14 DKA d           2.201  -2.032  25.425  0.00  0.00     0.033 H 
BRANCH  22  25
ATOM     25  C9  DKA d           1.626  -4.103  25.498  0.00  0.00    -0.069 C 
ATOM     26  H15 DKA d           2.068  -4.544  26.404  0.00  0.00     0.032 H 
ATOM     27  H16 DKA d           2.339  -4.185  24.664  0.00  0.00     0.032 H 
BRANCH  25  28
ATOM     28  C10 DKA d           0.372  -4.866  25.145  0.00  0.00    -0.077 C 
ATOM     29  H17 DKA d          -0.148  -5.164  26.067  0.00  0.00     0.027 H 
ATOM     30  H18 DKA d           0.639  -5.764  24.568  0.00  0.00     0.027 H 
ATOM     31  H19 DKA d          -0.289  -4.226  24.542  0.00  0.00     0.027 H 
ENDBRANCH  25  28
ENDBRANCH  22  25
ENDBRANCH  19  22
ENDBRANCH   1  19
TORSDOF 9
ENDMDL
