MODEL 1
REMARK VINA RESULT:      -4.8      0.000      0.000
REMARK  7 active torsions:
REMARK  status: ('A' for Active; 'I' for Inactive)
REMARK    1  A    between atoms: CE_10  and  N1_1 
REMARK    2  A    between atoms: CA_3  and  N_2 
REMARK    3  A    between atoms: CA_3  and  C_4 
REMARK    4  A    between atoms: CB_7  and  CA_3 
REMARK    5  A    between atoms: CG_8  and  CB_7 
REMARK    6  A    between atoms: CD_9  and  CG_8 
REMARK    7  A    between atoms: CD_9  and  CE_10 
ROOT
ATOM      1  CB  MOL d          23.091 -16.857   7.336  0.00  0.00    -0.029 C 
ATOM      2  H5  MOL d          23.873 -17.515   6.928  0.00  0.00     0.036 H 
ATOM      3  H6  MOL d          23.103 -16.910   8.435  0.00  0.00     0.036 H 
ENDROOT
BRANCH   1   4
ATOM      4  CA  MOL d          21.715 -17.348   6.830  0.00  0.00     0.182 C 
ATOM      5  H4  MOL d          21.477 -18.297   7.333  0.00  0.00     0.101 H 
BRANCH   4   6
ATOM      6  N   MOL d          21.790 -17.586   5.364  0.00  0.00    -0.065 N 
ATOM      7  H1  MOL d          22.527 -18.246   5.167  0.00  0.00     0.275 HD
ATOM      8  H2  MOL d          21.984 -16.716   4.892  0.00  0.00     0.275 HD
ATOM      9  H3  MOL d          20.911 -17.957   5.038  0.00  0.00     0.275 HD
ENDBRANCH   4   6
BRANCH   4  10
ATOM     10  C   MOL d          20.592 -16.340   7.140  0.00  0.00     0.204 C 
ATOM     11  OXT MOL d          19.956 -15.794   6.190  0.00  0.00    -0.646 OA
ATOM     12  O   MOL d          20.303 -16.061   8.343  0.00  0.00    -0.646 OA
ENDBRANCH   4  10
ENDBRANCH   1   4
BRANCH   1  13
ATOM     13  CG  MOL d          23.389 -15.419   6.910  0.00  0.00    -0.061 C 
ATOM     14  H7  MOL d          22.603 -14.754   7.299  0.00  0.00     0.033 H 
ATOM     15  H8  MOL d          23.409 -15.360   5.812  0.00  0.00     0.033 H 
BRANCH  13  16
ATOM     16  CD  MOL d          24.733 -14.984   7.461  0.00  0.00    -0.044 C 
ATOM     17  H9  MOL d          25.544 -15.478   6.907  0.00  0.00     0.035 H 
ATOM     18  H10 MOL d          24.805 -15.245   8.528  0.00  0.00     0.035 H 
BRANCH  16  19
ATOM     19  CE  MOL d          24.827 -13.477   7.288  0.00  0.00     0.054 C 
ATOM     20  H11 MOL d          24.064 -13.161   6.560  0.00  0.00     0.073 H 
ATOM     21  H12 MOL d          24.627 -13.001   8.259  0.00  0.00     0.073 H 
BRANCH  19  22
ATOM     22  N1  MOL d          26.117 -13.034   6.818  0.00  0.00    -0.156 N 
ATOM     23  O2  MOL d          26.614 -11.906   7.290  0.00  0.00    -0.537 OA
ATOM     24  O1  MOL d          26.781 -13.707   5.902  0.00  0.00    -0.537 OA
ENDBRANCH  19  22
ENDBRANCH  16  19
ENDBRANCH  13  16
ENDBRANCH   1  13
TORSDOF 7
ENDMDL
