MODEL 1
REMARK VINA RESULT:      -5.1      0.000      0.000
REMARK  7 active torsions:
REMARK  status: ('A' for Active; 'I' for Inactive)
REMARK    1  A    between atoms: CE_10  and  N1_1 
REMARK    2  A    between atoms: CA_3  and  N_2 
REMARK    3  A    between atoms: CA_3  and  C_4 
REMARK    4  A    between atoms: CB_7  and  CA_3 
REMARK    5  A    between atoms: CG_8  and  CB_7 
REMARK    6  A    between atoms: CD_9  and  CG_8 
REMARK    7  A    between atoms: CD_9  and  CE_10 
ROOT
ATOM      1  CB  MOL d          24.245 -16.052   8.078  0.00  0.00    -0.029 C 
ATOM      2  H5  MOL d          24.154 -15.864   9.158  0.00  0.00     0.036 H 
ATOM      3  H6  MOL d          25.247 -16.451   7.858  0.00  0.00     0.036 H 
ENDROOT
BRANCH   1   4
ATOM      4  CA  MOL d          24.068 -14.714   7.324  0.00  0.00     0.182 C 
ATOM      5  H4  MOL d          23.291 -14.127   7.835  0.00  0.00     0.101 H 
BRANCH   4   6
ATOM      6  N   MOL d          23.623 -14.993   5.932  0.00  0.00    -0.065 N 
ATOM      7  H1  MOL d          24.070 -15.832   5.598  0.00  0.00     0.275 HD
ATOM      8  H2  MOL d          23.875 -14.219   5.337  0.00  0.00     0.275 HD
ATOM      9  H3  MOL d          22.622 -15.117   5.918  0.00  0.00     0.275 HD
ENDBRANCH   4   6
BRANCH   4  10
ATOM     10  C   MOL d          25.367 -13.886   7.302  0.00  0.00     0.204 C 
ATOM     11  OXT MOL d          25.330 -12.667   6.960  0.00  0.00    -0.646 OA
ATOM     12  O   MOL d          26.468 -14.423   7.628  0.00  0.00    -0.646 OA
ENDBRANCH   4  10
ENDBRANCH   1   4
BRANCH   1  13
ATOM     13  CG  MOL d          23.201 -17.093   7.671  0.00  0.00    -0.061 C 
ATOM     14  H7  MOL d          23.639 -18.099   7.754  0.00  0.00     0.033 H 
ATOM     15  H8  MOL d          22.892 -16.912   6.631  0.00  0.00     0.033 H 
BRANCH  13  16
ATOM     16  CD  MOL d          21.992 -16.996   8.580  0.00  0.00    -0.044 C 
ATOM     17  H9  MOL d          22.018 -16.050   9.141  0.00  0.00     0.035 H 
ATOM     18  H10 MOL d          21.981 -17.841   9.284  0.00  0.00     0.035 H 
BRANCH  16  19
ATOM     19  CE  MOL d          20.757 -17.042   7.695  0.00  0.00     0.054 C 
ATOM     20  H11 MOL d          20.909 -17.810   6.922  0.00  0.00     0.073 H 
ATOM     21  H12 MOL d          19.892 -17.314   8.318  0.00  0.00     0.073 H 
BRANCH  19  22
ATOM     22  N1  MOL d          20.473 -15.787   7.042  0.00  0.00    -0.156 N 
ATOM     23  O2  MOL d          20.564 -15.718   5.727  0.00  0.00    -0.537 OA
ATOM     24  O1  MOL d          20.173 -14.707   7.732  0.00  0.00    -0.537 OA
ENDBRANCH  19  22
ENDBRANCH  16  19
ENDBRANCH  13  16
ENDBRANCH   1  13
TORSDOF 7
ENDMDL
MODEL 2
REMARK VINA RESULT:      -5.0      1.458      4.982
REMARK  7 active torsions:
REMARK  status: ('A' for Active; 'I' for Inactive)
REMARK    1  A    between atoms: CE_10  and  N1_1 
REMARK    2  A    between atoms: CA_3  and  N_2 
REMARK    3  A    between atoms: CA_3  and  C_4 
REMARK    4  A    between atoms: CB_7  and  CA_3 
REMARK    5  A    between atoms: CG_8  and  CB_7 
REMARK    6  A    between atoms: CD_9  and  CG_8 
REMARK    7  A    between atoms: CD_9  and  CE_10 
ROOT
ATOM      1  CB  MOL d          22.237 -16.485   8.271  0.00  0.00    -0.029 C 
ATOM      2  H5  MOL d          22.544 -17.285   8.961  0.00  0.00     0.036 H 
ATOM      3  H6  MOL d          22.089 -15.551   8.834  0.00  0.00     0.036 H 
ENDROOT
BRANCH   1   4
ATOM      4  CA  MOL d          20.897 -16.885   7.613  0.00  0.00     0.182 C 
ATOM      5  H4  MOL d          20.138 -16.987   8.402  0.00  0.00     0.101 H 
BRANCH   4   6
ATOM      6  N   MOL d          21.060 -18.196   6.929  0.00  0.00    -0.065 N 
ATOM      7  H1  MOL d          21.887 -18.656   7.278  0.00  0.00     0.275 HD
ATOM      8  H2  MOL d          21.153 -18.048   5.936  0.00  0.00     0.275 HD
ATOM      9  H3  MOL d          20.253 -18.772   7.110  0.00  0.00     0.275 HD
ENDBRANCH   4   6
BRANCH   4  10
ATOM     10  C   MOL d          20.409 -15.826   6.605  0.00  0.00     0.204 C 
ATOM     11  OXT MOL d          19.662 -14.881   6.997  0.00  0.00    -0.646 OA
ATOM     12  O   MOL d          20.756 -15.901   5.388  0.00  0.00    -0.646 OA
ENDBRANCH   4  10
ENDBRANCH   1   4
BRANCH   1  13
ATOM     13  CG  MOL d          23.350 -16.269   7.245  0.00  0.00    -0.061 C 
ATOM     14  H7  MOL d          22.970 -15.645   6.422  0.00  0.00     0.033 H 
ATOM     15  H8  MOL d          23.673 -17.243   6.847  0.00  0.00     0.033 H 
BRANCH  13  16
ATOM     16  CD  MOL d          24.529 -15.577   7.898  0.00  0.00    -0.044 C 
ATOM     17  H9  MOL d          25.441 -16.175   7.759  0.00  0.00     0.035 H 
ATOM     18  H10 MOL d          24.339 -15.442   8.973  0.00  0.00     0.035 H 
BRANCH  16  19
ATOM     19  CE  MOL d          24.688 -14.223   7.225  0.00  0.00     0.054 C 
ATOM     20  H11 MOL d          24.324 -14.303   6.190  0.00  0.00     0.073 H 
ATOM     21  H12 MOL d          24.079 -13.488   7.772  0.00  0.00     0.073 H 
BRANCH  19  22
ATOM     22  N1  MOL d          26.053 -13.755   7.196  0.00  0.00    -0.156 N 
ATOM     23  O2  MOL d          26.600 -13.460   6.032  0.00  0.00    -0.537 OA
ATOM     24  O1  MOL d          26.769 -13.661   8.296  0.00  0.00    -0.537 OA
ENDBRANCH  19  22
ENDBRANCH  16  19
ENDBRANCH  13  16
ENDBRANCH   1  13
TORSDOF 7
ENDMDL
MODEL 3
REMARK VINA RESULT:      -4.4      1.501      4.235
REMARK  7 active torsions:
REMARK  status: ('A' for Active; 'I' for Inactive)
REMARK    1  A    between atoms: CE_10  and  N1_1 
REMARK    2  A    between atoms: CA_3  and  N_2 
REMARK    3  A    between atoms: CA_3  and  C_4 
REMARK    4  A    between atoms: CB_7  and  CA_3 
REMARK    5  A    between atoms: CG_8  and  CB_7 
REMARK    6  A    between atoms: CD_9  and  CG_8 
REMARK    7  A    between atoms: CD_9  and  CE_10 
ROOT
ATOM      1  CB  MOL d          21.443 -17.087   8.787  0.00  0.00    -0.029 C 
ATOM      2  H5  MOL d          20.821 -17.307   9.667  0.00  0.00     0.036 H 
ATOM      3  H6  MOL d          21.875 -16.080   8.886  0.00  0.00     0.036 H 
ENDROOT
BRANCH   1   4
ATOM      4  CA  MOL d          20.551 -17.122   7.525  0.00  0.00     0.182 C 
ATOM      5  H4  MOL d          19.594 -17.597   7.788  0.00  0.00     0.101 H 
BRANCH   4   6
ATOM      6  N   MOL d          21.221 -17.937   6.476  0.00  0.00    -0.065 N 
ATOM      7  H1  MOL d          21.811 -17.343   5.915  0.00  0.00     0.275 HD
ATOM      8  H2  MOL d          20.523 -18.367   5.888  0.00  0.00     0.275 HD
ATOM      9  H3  MOL d          21.781 -18.652   6.912  0.00  0.00     0.275 HD
ENDBRANCH   4   6
BRANCH   4  10
ATOM     10  C   MOL d          20.258 -15.710   6.984  0.00  0.00     0.204 C 
ATOM     11  OXT MOL d          20.133 -14.740   7.790  0.00  0.00    -0.646 OA
ATOM     12  O   MOL d          20.145 -15.519   5.736  0.00  0.00    -0.646 OA
ENDBRANCH   4  10
ENDBRANCH   1   4
BRANCH   1  13
ATOM     13  CG  MOL d          22.582 -18.106   8.724  0.00  0.00    -0.061 C 
ATOM     14  H7  MOL d          22.408 -18.795   7.884  0.00  0.00     0.033 H 
ATOM     15  H8  MOL d          22.613 -18.675   9.665  0.00  0.00     0.033 H 
BRANCH  13  16
ATOM     16  CD  MOL d          23.904 -17.393   8.525  0.00  0.00    -0.044 C 
ATOM     17  H9  MOL d          24.369 -17.720   7.583  0.00  0.00     0.035 H 
ATOM     18  H10 MOL d          24.581 -17.612   9.364  0.00  0.00     0.035 H 
BRANCH  16  19
ATOM     19  CE  MOL d          23.611 -15.903   8.470  0.00  0.00     0.054 C 
ATOM     20  H11 MOL d          22.529 -15.755   8.607  0.00  0.00     0.073 H 
ATOM     21  H12 MOL d          24.155 -15.410   9.289  0.00  0.00     0.073 H 
BRANCH  19  22
ATOM     22  N1  MOL d          24.003 -15.287   7.225  0.00  0.00    -0.156 N 
ATOM     23  O2  MOL d          24.872 -14.295   7.251  0.00  0.00    -0.537 OA
ATOM     24  O1  MOL d          23.478 -15.666   6.079  0.00  0.00    -0.537 OA
ENDBRANCH  19  22
ENDBRANCH  16  19
ENDBRANCH  13  16
ENDBRANCH   1  13
TORSDOF 7
ENDMDL
MODEL 4
REMARK VINA RESULT:      -4.3      2.046      2.458
REMARK  7 active torsions:
REMARK  status: ('A' for Active; 'I' for Inactive)
REMARK    1  A    between atoms: CE_10  and  N1_1 
REMARK    2  A    between atoms: CA_3  and  N_2 
REMARK    3  A    between atoms: CA_3  and  C_4 
REMARK    4  A    between atoms: CB_7  and  CA_3 
REMARK    5  A    between atoms: CG_8  and  CB_7 
REMARK    6  A    between atoms: CD_9  and  CG_8 
REMARK    7  A    between atoms: CD_9  and  CE_10 
ROOT
ATOM      1  CB  MOL d          23.213 -14.303   7.206  0.00  0.00    -0.029 C 
ATOM      2  H5  MOL d          22.758 -14.211   6.209  0.00  0.00     0.036 H 
ATOM      3  H6  MOL d          23.255 -13.312   7.683  0.00  0.00     0.036 H 
ENDROOT
BRANCH   1   4
ATOM      4  CA  MOL d          24.654 -14.839   7.048  0.00  0.00     0.182 C 
ATOM      5  H4  MOL d          24.766 -15.243   6.031  0.00  0.00     0.101 H 
BRANCH   4   6
ATOM      6  N   MOL d          24.878 -15.935   8.029  0.00  0.00    -0.065 N 
ATOM      7  H1  MOL d          25.115 -15.539   8.926  0.00  0.00     0.275 HD
ATOM      8  H2  MOL d          25.635 -16.521   7.711  0.00  0.00     0.275 HD
ATOM      9  H3  MOL d          24.039 -16.485   8.115  0.00  0.00     0.275 HD
ENDBRANCH   4   6
BRANCH   4  10
ATOM     10  C   MOL d          25.708 -13.733   7.248  0.00  0.00     0.204 C 
ATOM     11  OXT MOL d          26.783 -13.992   7.865  0.00  0.00    -0.646 OA
ATOM     12  O   MOL d          25.500 -12.568   6.795  0.00  0.00    -0.646 OA
ENDBRANCH   4  10
ENDBRANCH   1   4
BRANCH   1  13
ATOM     13  CG  MOL d          22.339 -15.222   8.061  0.00  0.00    -0.061 C 
ATOM     14  H7  MOL d          22.063 -14.702   8.990  0.00  0.00     0.033 H 
ATOM     15  H8  MOL d          22.902 -16.135   8.305  0.00  0.00     0.033 H 
BRANCH  13  16
ATOM     16  CD  MOL d          21.082 -15.595   7.301  0.00  0.00    -0.044 C 
ATOM     17  H9  MOL d          21.118 -15.175   6.286  0.00  0.00     0.035 H 
ATOM     18  H10 MOL d          20.196 -15.210   7.827  0.00  0.00     0.035 H 
BRANCH  16  19
ATOM     19  CE  MOL d          21.027 -17.113   7.235  0.00  0.00     0.054 C 
ATOM     20  H11 MOL d          20.961 -17.505   8.260  0.00  0.00     0.073 H 
ATOM     21  H12 MOL d          20.128 -17.405   6.671  0.00  0.00     0.073 H 
BRANCH  19  22
ATOM     22  N1  MOL d          22.179 -17.700   6.593  0.00  0.00    -0.156 N 
ATOM     23  O2  MOL d          23.013 -18.421   7.318  0.00  0.00    -0.537 OA
ATOM     24  O1  MOL d          22.434 -17.492   5.319  0.00  0.00    -0.537 OA
ENDBRANCH  19  22
ENDBRANCH  16  19
ENDBRANCH  13  16
ENDBRANCH   1  13
TORSDOF 7
ENDMDL
MODEL 5
REMARK VINA RESULT:      -2.7      1.888      2.214
REMARK  7 active torsions:
REMARK  status: ('A' for Active; 'I' for Inactive)
REMARK    1  A    between atoms: CE_10  and  N1_1 
REMARK    2  A    between atoms: CA_3  and  N_2 
REMARK    3  A    between atoms: CA_3  and  C_4 
REMARK    4  A    between atoms: CB_7  and  CA_3 
REMARK    5  A    between atoms: CG_8  and  CB_7 
REMARK    6  A    between atoms: CD_9  and  CG_8 
REMARK    7  A    between atoms: CD_9  and  CE_10 
ROOT
ATOM      1  CB  MOL d          22.591 -15.158   7.019  0.00  0.00    -0.029 C 
ATOM      2  H5  MOL d          21.656 -14.589   7.128  0.00  0.00     0.036 H 
ATOM      3  H6  MOL d          22.562 -16.040   7.676  0.00  0.00     0.036 H 
ENDROOT
BRANCH   1   4
ATOM      4  CA  MOL d          23.773 -14.259   7.448  0.00  0.00     0.182 C 
ATOM      5  H4  MOL d          23.446 -13.630   8.289  0.00  0.00     0.101 H 
BRANCH   4   6
ATOM      6  N   MOL d          24.156 -13.379   6.311  0.00  0.00    -0.065 N 
ATOM      7  H1  MOL d          24.355 -13.946   5.501  0.00  0.00     0.275 HD
ATOM      8  H2  MOL d          24.976 -12.848   6.558  0.00  0.00     0.275 HD
ATOM      9  H3  MOL d          23.397 -12.750   6.102  0.00  0.00     0.275 HD
ENDBRANCH   4   6
BRANCH   4  10
ATOM     10  C   MOL d          24.991 -15.084   7.905  0.00  0.00     0.204 C 
ATOM     11  OXT MOL d          26.141 -14.552   7.924  0.00  0.00    -0.646 OA
ATOM     12  O   MOL d          24.843 -16.291   8.263  0.00  0.00    -0.646 OA
ENDBRANCH   4  10
ENDBRANCH   1   4
BRANCH   1  13
ATOM     13  CG  MOL d          22.713 -15.629   5.569  0.00  0.00    -0.061 C 
ATOM     14  H7  MOL d          23.775 -15.648   5.281  0.00  0.00     0.033 H 
ATOM     15  H8  MOL d          22.167 -14.935   4.914  0.00  0.00     0.033 H 
BRANCH  13  16
ATOM     16  CD  MOL d          22.129 -17.020   5.426  0.00  0.00    -0.044 C 
ATOM     17  H9  MOL d          22.862 -17.690   4.955  0.00  0.00     0.035 H 
ATOM     18  H10 MOL d          21.217 -16.984   4.812  0.00  0.00     0.035 H 
BRANCH  16  19
ATOM     19  CE  MOL d          21.794 -17.515   6.824  0.00  0.00     0.054 C 
ATOM     20  H11 MOL d          21.974 -18.600   6.862  0.00  0.00     0.073 H 
ATOM     21  H12 MOL d          22.455 -17.008   7.542  0.00  0.00     0.073 H 
BRANCH  19  22
ATOM     22  N1  MOL d          20.425 -17.265   7.207  0.00  0.00    -0.156 N 
ATOM     23  O2  MOL d          19.915 -17.937   8.222  0.00  0.00    -0.537 OA
ATOM     24  O1  MOL d          19.671 -16.418   6.540  0.00  0.00    -0.537 OA
ENDBRANCH  19  22
ENDBRANCH  16  19
ENDBRANCH  13  16
ENDBRANCH   1  13
TORSDOF 7
ENDMDL
