REMARK  18 active torsions:
REMARK  status: ('A' for Active; 'I' for Inactive)
REMARK    1  A    between atoms: CBB_7  and  CBP_6 
REMARK    2  A    between atoms: OBJ_8  and  CBB_7 
REMARK    3  A    between atoms: CBM_9  and  OBJ_8 
REMARK       I    between atoms: NBI_11  and  CBM_9 
REMARK    4  A    between atoms: CBX_12  and  NBI_11 
REMARK    5  A    between atoms: CBX_12  and  CBE_13 
REMARK    6  A    between atoms: PBY_20  and  CBX_12 
REMARK    7  A    between atoms: CBE_13  and  CBQ_14 
REMARK    8  A    between atoms: CBF_36  and  PBY_20 
REMARK    9  A    between atoms: N_23  and  CA_24 
REMARK       I    between atoms: CBN_38  and  N_23 
REMARK   10  A    between atoms: CA_24  and  C_25 
REMARK   11  A    between atoms: CA_24  and  CB_28 
REMARK   12  A    between atoms: CB_28  and  CG_29 
REMARK   13  A    between atoms: CZ_32  and  OH_33 
REMARK   14  A    between atoms: CBV_37  and  CBF_36 
REMARK   15  A    between atoms: CBV_37  and  CBN_38 
REMARK   16  A    between atoms: CBV_37  and  CBC_40 
REMARK   17  A    between atoms: CBC_40  and  CBS_41 
REMARK   18  A    between atoms: CBU_45  and  CBT_46 
ROOT
ATOM      1  CBV MOL d          15.147  -5.500 -23.034  0.00  0.00     0.038 C 
ATOM      2  H28 MOL d          15.227  -6.591 -23.150  0.00  0.00     0.056 H 
ENDROOT
BRANCH   1   3
ATOM      3  CBF MOL d          15.193  -5.196 -21.521  0.00  0.00     0.021 C 
ATOM      4  H26 MOL d          14.311  -5.655 -21.050  0.00  0.00     0.050 H 
ATOM      5  H27 MOL d          16.107  -5.646 -21.106  0.00  0.00     0.050 H 
BRANCH   3   6
ATOM      6  PBY MOL d          15.197  -3.425 -21.119  0.00  0.00     0.130 P 
ATOM      7  OAG MOL d          16.724  -3.064 -20.872  0.00  0.00    -0.666 OA
ATOM      8  OAD MOL d          14.519  -2.561 -22.116  0.00  0.00    -0.666 OA
BRANCH   6   9
ATOM      9  CBX MOL d          14.416  -3.187 -19.472  0.00  0.00     0.093 C 
ATOM     10  H9  MOL d          14.867  -3.892 -18.759  0.00  0.00     0.089 H 
BRANCH   9  11
ATOM     11  NBI MOL d          14.688  -1.811 -19.044  0.00  0.00    -0.322 N 
ATOM     12  CBM MOL d          15.631  -1.470 -18.167  0.00  0.00     0.361 C 
ATOM     13  OAB MOL d          16.382  -2.275 -17.606  0.00  0.00    -0.238 OA
ATOM     14  H8  MOL d          14.129  -1.081 -19.436  0.00  0.00     0.165 HD
BRANCH  12  15
ATOM     15  OBJ MOL d          15.690  -0.135 -17.908  0.00  0.00    -0.299 OA
BRANCH  15  16
ATOM     16  CBB MOL d          16.737   0.442 -17.105  0.00  0.00     0.054 C 
ATOM     17  H6  MOL d          16.730  -0.054 -16.123  0.00  0.00     0.082 H 
ATOM     18  H7  MOL d          17.698   0.251 -17.605  0.00  0.00     0.082 H 
BRANCH  16  19
ATOM     19  CBP MOL d          16.618   1.826 -16.897  0.00  0.00    -0.034 A 
ATOM     20  CAQ MOL d          16.458   2.672 -17.999  0.00  0.00    -0.075 A 
ATOM     21  CAK MOL d          16.318   4.051 -17.815  0.00  0.00    -0.082 A 
ATOM     22  H1  MOL d          16.442   2.257 -19.000  0.00  0.00     0.084 H 
ATOM     23  CAH MOL d          16.336   4.589 -16.531  0.00  0.00    -0.083 A 
ATOM     24  H2  MOL d          16.195   4.702 -18.673  0.00  0.00     0.083 H 
ATOM     25  CAL MOL d          16.489   3.745 -15.433  0.00  0.00    -0.082 A 
ATOM     26  H3  MOL d          16.232   5.658 -16.386  0.00  0.00     0.083 H 
ATOM     27  CAR MOL d          16.627   2.366 -15.613  0.00  0.00    -0.075 A 
ATOM     28  H4  MOL d          16.501   4.161 -14.432  0.00  0.00     0.083 H 
ATOM     29  H5  MOL d          16.741   1.716 -14.753  0.00  0.00     0.084 H 
ENDBRANCH  16  19
ENDBRANCH  15  16
ENDBRANCH  12  15
ENDBRANCH   9  11
BRANCH   9  30
ATOM     30  CBE MOL d          12.898  -3.415 -19.494  0.00  0.00    -0.013 C 
ATOM     31  H10 MOL d          12.695  -4.454 -19.794  0.00  0.00     0.044 H 
ATOM     32  H11 MOL d          12.442  -2.728 -20.222  0.00  0.00     0.044 H 
BRANCH  30  33
ATOM     33  CBQ MOL d          12.278  -3.162 -18.107  0.00  0.00    -0.056 A 
ATOM     34  CAS MOL d          12.146  -4.218 -17.201  0.00  0.00    -0.077 A 
ATOM     35  CAM MOL d          11.588  -3.991 -15.941  0.00  0.00    -0.082 A 
ATOM     36  H12 MOL d          12.477  -5.213 -17.476  0.00  0.00     0.084 H 
ATOM     37  CAI MOL d          11.166  -2.710 -15.582  0.00  0.00    -0.083 A 
ATOM     38  H13 MOL d          11.482  -4.811 -15.240  0.00  0.00     0.083 H 
ATOM     39  CAN MOL d          11.305  -1.650 -16.482  0.00  0.00    -0.082 A 
ATOM     40  H14 MOL d          10.730  -2.537 -14.605  0.00  0.00     0.083 H 
ATOM     41  CAT MOL d          11.859  -1.880 -17.744  0.00  0.00    -0.077 A 
ATOM     42  H15 MOL d          10.984  -0.653 -16.202  0.00  0.00     0.083 H 
ATOM     43  H16 MOL d          11.964  -1.060 -18.445  0.00  0.00     0.084 H 
ENDBRANCH  30  33
ENDBRANCH   9  30
ENDBRANCH   6   9
ENDBRANCH   3   6
ENDBRANCH   1   3
BRANCH   1  44
ATOM     44  CBN MOL d          13.791  -5.076 -23.632  0.00  0.00     0.223 C 
ATOM     45  N   MOL d          13.802  -4.729 -24.921  0.00  0.00    -0.346 N 
ATOM     46  H17 MOL d          14.677  -4.663 -25.401  0.00  0.00     0.163 HD
ATOM     47  OAC MOL d          12.771  -5.098 -22.943  0.00  0.00    -0.273 OA
BRANCH  45  48
ATOM     48  CA  MOL d          12.561  -4.441 -25.653  0.00  0.00     0.100 C 
ATOM     49  H18 MOL d          11.898  -3.850 -25.003  0.00  0.00     0.090 H 
BRANCH  48  50
ATOM     50  C   MOL d          11.885  -5.795 -25.964  0.00  0.00     0.197 C 
ATOM     51  OXT MOL d          12.489  -6.816 -25.588  0.00  0.00    -0.646 OA
ATOM     52  O   MOL d          10.758  -5.797 -26.504  0.00  0.00    -0.646 OA
ENDBRANCH  48  50
BRANCH  48  53
ATOM     53  CB  MOL d          12.801  -3.638 -26.938  0.00  0.00    -0.013 C 
ATOM     54  H19 MOL d          12.815  -2.572 -26.667  0.00  0.00     0.043 H 
ATOM     55  H20 MOL d          11.956  -3.833 -27.615  0.00  0.00     0.043 H 
BRANCH  53  56
ATOM     56  CG  MOL d          14.092  -3.937 -27.709  0.00  0.00    -0.056 A 
ATOM     57  CD1 MOL d          14.091  -4.888 -28.729  0.00  0.00    -0.074 A 
ATOM     58  CE1 MOL d          15.266  -5.151 -29.442  0.00  0.00    -0.051 A 
ATOM     59  H21 MOL d          13.180  -5.424 -28.970  0.00  0.00     0.084 H 
ATOM     60  CZ  MOL d          16.435  -4.449 -29.139  0.00  0.00     0.065 A 
ATOM     61  H22 MOL d          15.269  -5.898 -30.228  0.00  0.00     0.087 H 
ATOM     62  CE2 MOL d          16.434  -3.492 -28.126  0.00  0.00    -0.051 A 
ATOM     63  CD2 MOL d          15.264  -3.235 -27.411  0.00  0.00    -0.074 A 
ATOM     64  H24 MOL d          17.342  -2.947 -27.894  0.00  0.00     0.087 H 
ATOM     65  H25 MOL d          15.264  -2.490 -26.623  0.00  0.00     0.084 H 
BRANCH  60  66
ATOM     66  OH  MOL d          17.585  -4.689 -29.834  0.00  0.00    -0.361 OA
ATOM     67  H23 MOL d          18.277  -4.130 -29.501  0.00  0.00     0.217 HD
ENDBRANCH  60  66
ENDBRANCH  53  56
ENDBRANCH  48  53
ENDBRANCH  45  48
ENDBRANCH   1  44
BRANCH   1  68
ATOM     68  CBC MOL d          16.340  -4.882 -23.784  0.00  0.00    -0.006 C 
ATOM     69  H29 MOL d          17.185  -4.825 -23.082  0.00  0.00     0.044 H 
ATOM     70  H30 MOL d          16.052  -3.867 -24.094  0.00  0.00     0.044 H 
BRANCH  68  71
ATOM     71  CBS MOL d          16.820  -5.640 -25.039  0.00  0.00     0.082 A 
ATOM     72  CBA MOL d          16.298  -6.656 -25.733  0.00  0.00    -0.021 A 
ATOM     73  CBU MOL d          17.105  -6.947 -26.772  0.00  0.00     0.097 A 
ATOM     74  H31 MOL d          15.367  -7.168 -25.496  0.00  0.00     0.091 H 
ATOM     75  NBG MOL d          18.146  -6.123 -26.741  0.00  0.00    -0.128 NA
ATOM     76  OBK MOL d          17.984  -5.276 -25.637  0.00  0.00    -0.217 OA
BRANCH  73  77
ATOM     77  CBT MOL d          16.937  -7.942 -27.740  0.00  0.00    -0.005 A 
ATOM     78  CAU MOL d          16.174  -9.077 -27.480  0.00  0.00    -0.071 A 
ATOM     79  CAO MOL d          16.022 -10.070 -28.449  0.00  0.00    -0.082 A 
ATOM     80  H32 MOL d          15.693  -9.191 -26.515  0.00  0.00     0.084 H 
ATOM     81  CAJ MOL d          16.635  -9.936 -29.692  0.00  0.00    -0.083 A 
ATOM     82  H33 MOL d          15.425 -10.948 -28.233  0.00  0.00     0.083 H 
ATOM     83  CAP MOL d          17.404  -8.800 -29.960  0.00  0.00    -0.082 A 
ATOM     84  H34 MOL d          16.517 -10.706 -30.445  0.00  0.00     0.083 H 
ATOM     85  CAV MOL d          17.560  -7.812 -28.983  0.00  0.00    -0.071 A 
ATOM     86  H35 MOL d          17.880  -8.685 -30.927  0.00  0.00     0.083 H 
ATOM     87  H36 MOL d          18.169  -6.939 -29.192  0.00  0.00     0.084 H 
ENDBRANCH  73  77
ENDBRANCH  68  71
ENDBRANCH   1  68
TORSDOF 18
