MODEL 1
REMARK VINA RESULT:      -9.6      0.000      0.000
REMARK  18 active torsions:
REMARK  status: ('A' for Active; 'I' for Inactive)
REMARK    1  A    between atoms: CBB_7  and  CBP_6 
REMARK    2  A    between atoms: OBJ_8  and  CBB_7 
REMARK    3  A    between atoms: CBM_9  and  OBJ_8 
REMARK       I    between atoms: NBI_11  and  CBM_9 
REMARK    4  A    between atoms: CBX_12  and  NBI_11 
REMARK    5  A    between atoms: CBX_12  and  CBE_13 
REMARK    6  A    between atoms: PBY_20  and  CBX_12 
REMARK    7  A    between atoms: CBE_13  and  CBQ_14 
REMARK    8  A    between atoms: CBF_36  and  PBY_20 
REMARK    9  A    between atoms: N_23  and  CA_24 
REMARK       I    between atoms: CBN_38  and  N_23 
REMARK   10  A    between atoms: CA_24  and  C_25 
REMARK   11  A    between atoms: CA_24  and  CB_28 
REMARK   12  A    between atoms: CB_28  and  CG_29 
REMARK   13  A    between atoms: CZ_32  and  OH_33 
REMARK   14  A    between atoms: CBV_37  and  CBF_36 
REMARK   15  A    between atoms: CBV_37  and  CBN_38 
REMARK   16  A    between atoms: CBV_37  and  CBC_40 
REMARK   17  A    between atoms: CBC_40  and  CBS_41 
REMARK   18  A    between atoms: CBU_45  and  CBT_46 
ROOT
ATOM      1  CBV MOL d          14.929  -5.089 -22.202  0.00  0.00     0.038 C 
ATOM      2  H28 MOL d          13.921  -5.505 -22.059  0.00  0.00     0.056 H 
ENDROOT
BRANCH   1   3
ATOM      3  CBF MOL d          15.258  -4.247 -20.951  0.00  0.00     0.021 C 
ATOM      4  H26 MOL d          15.642  -4.922 -20.171  0.00  0.00     0.050 H 
ATOM      5  H27 MOL d          16.036  -3.517 -21.220  0.00  0.00     0.050 H 
BRANCH   3   6
ATOM      6  PBY MOL d          13.838  -3.341 -20.271  0.00  0.00     0.130 P 
ATOM      7  OAG MOL d          14.067  -1.831 -20.710  0.00  0.00    -0.666 OA
ATOM      8  OAD MOL d          12.513  -3.891 -20.647  0.00  0.00    -0.666 OA
BRANCH   6   9
ATOM      9  CBX MOL d          13.984  -3.294 -18.439  0.00  0.00     0.093 C 
ATOM     10  H9  MOL d          14.662  -4.096 -18.116  0.00  0.00     0.089 H 
BRANCH   9  11
ATOM     11  NBI MOL d          14.547  -1.992 -18.070  0.00  0.00    -0.322 N 
ATOM     12  CBM MOL d          15.852  -1.728 -18.008  0.00  0.00     0.361 C 
ATOM     13  OAB MOL d          16.739  -2.553 -18.249  0.00  0.00    -0.238 OA
ATOM     14  H8  MOL d          13.911  -1.253 -17.849  0.00  0.00     0.165 HD
BRANCH  12  15
ATOM     15  OBJ MOL d          16.142  -0.455 -17.625  0.00  0.00    -0.299 OA
BRANCH  15  16
ATOM     16  CBB MOL d          15.348   0.251 -16.653  0.00  0.00     0.054 C 
ATOM     17  H6  MOL d          14.336   0.380 -17.065  0.00  0.00     0.082 H 
ATOM     18  H7  MOL d          15.296  -0.362 -15.741  0.00  0.00     0.082 H 
BRANCH  16  19
ATOM     19  CBP MOL d          15.843   1.518 -16.303  0.00  0.00    -0.034 A 
ATOM     20  CAQ MOL d          16.163   2.430 -17.313  0.00  0.00    -0.075 A 
ATOM     21  CAK MOL d          16.639   3.704 -16.988  0.00  0.00    -0.082 A 
ATOM     22  H1  MOL d          16.042   2.149 -18.353  0.00  0.00     0.084 H 
ATOM     23  CAH MOL d          16.795   4.071 -15.654  0.00  0.00    -0.083 A 
ATOM     24  H2  MOL d          16.887   4.407 -17.775  0.00  0.00     0.083 H 
ATOM     25  CAL MOL d          16.469   3.164 -14.648  0.00  0.00    -0.082 A 
ATOM     26  H3  MOL d          17.168   5.056 -15.399  0.00  0.00     0.083 H 
ATOM     27  CAR MOL d          15.991   1.891 -14.969  0.00  0.00    -0.075 A 
ATOM     28  H4  MOL d          16.588   3.448 -13.608  0.00  0.00     0.083 H 
ATOM     29  H5  MOL d          15.736   1.193 -14.180  0.00  0.00     0.084 H 
ENDBRANCH  16  19
ENDBRANCH  15  16
ENDBRANCH  12  15
ENDBRANCH   9  11
BRANCH   9  30
ATOM     30  CBE MOL d          12.634  -3.477 -17.730  0.00  0.00    -0.013 C 
ATOM     31  H10 MOL d          12.682  -4.373 -17.094  0.00  0.00     0.044 H 
ATOM     32  H11 MOL d          11.846  -3.605 -18.486  0.00  0.00     0.044 H 
BRANCH  30  33
ATOM     33  CBQ MOL d          12.298  -2.256 -16.854  0.00  0.00    -0.056 A 
ATOM     34  CAS MOL d          11.697  -1.132 -17.428  0.00  0.00    -0.077 A 
ATOM     35  CAM MOL d          11.386  -0.025 -16.635  0.00  0.00    -0.082 A 
ATOM     36  H12 MOL d          11.471  -1.120 -18.488  0.00  0.00     0.084 H 
ATOM     37  CAI MOL d          11.670  -0.039 -15.269  0.00  0.00    -0.083 A 
ATOM     38  H13 MOL d          10.924   0.848 -17.082  0.00  0.00     0.083 H 
ATOM     39  CAN MOL d          12.263  -1.165 -14.690  0.00  0.00    -0.082 A 
ATOM     40  H14 MOL d          11.432   0.823 -14.657  0.00  0.00     0.083 H 
ATOM     41  CAT MOL d          12.577  -2.270 -15.485  0.00  0.00    -0.077 A 
ATOM     42  H15 MOL d          12.478  -1.180 -13.627  0.00  0.00     0.083 H 
ATOM     43  H16 MOL d          13.040  -3.142 -15.039  0.00  0.00     0.084 H 
ENDBRANCH  30  33
ENDBRANCH   9  30
ENDBRANCH   6   9
ENDBRANCH   3   6
ENDBRANCH   1   3
BRANCH   1  44
ATOM     44  CBN MOL d          14.881  -4.198 -23.459  0.00  0.00     0.223 C 
ATOM     45  N   MOL d          14.249  -4.711 -24.517  0.00  0.00    -0.346 N 
ATOM     46  H17 MOL d          13.933  -5.659 -24.484  0.00  0.00     0.163 HD
ATOM     47  OAC MOL d          15.378  -3.071 -23.445  0.00  0.00    -0.273 OA
BRANCH  45  48
ATOM     48  CA  MOL d          14.005  -3.918 -25.729  0.00  0.00     0.100 C 
ATOM     49  H18 MOL d          13.947  -2.855 -25.449  0.00  0.00     0.090 H 
BRANCH  48  50
ATOM     50  C   MOL d          12.641  -4.362 -26.304  0.00  0.00     0.197 C 
ATOM     51  OXT MOL d          12.192  -5.446 -25.891  0.00  0.00    -0.646 OA
ATOM     52  O   MOL d          12.037  -3.595 -27.084  0.00  0.00    -0.646 OA
ENDBRANCH  48  50
BRANCH  48  53
ATOM     53  CB  MOL d          15.118  -4.071 -26.774  0.00  0.00    -0.013 C 
ATOM     54  H19 MOL d          16.077  -4.110 -26.236  0.00  0.00     0.043 H 
ATOM     55  H20 MOL d          15.095  -3.179 -27.418  0.00  0.00     0.043 H 
BRANCH  53  56
ATOM     56  CG  MOL d          15.047  -5.302 -27.685  0.00  0.00    -0.056 A 
ATOM     57  CD1 MOL d          14.539  -5.185 -28.978  0.00  0.00    -0.074 A 
ATOM     58  CE1 MOL d          14.487  -6.306 -29.814  0.00  0.00    -0.051 A 
ATOM     59  H21 MOL d          14.184  -4.225 -29.336  0.00  0.00     0.084 H 
ATOM     60  CZ  MOL d          14.958  -7.538 -29.355  0.00  0.00     0.065 A 
ATOM     61  H22 MOL d          14.082  -6.218 -30.816  0.00  0.00     0.087 H 
ATOM     62  CE2 MOL d          15.474  -7.654 -28.065  0.00  0.00    -0.051 A 
ATOM     63  CD2 MOL d          15.520  -6.537 -27.230  0.00  0.00    -0.074 A 
ATOM     64  H24 MOL d          15.841  -8.610 -27.712  0.00  0.00     0.087 H 
ATOM     65  H25 MOL d          15.922  -6.628 -26.227  0.00  0.00     0.084 H 
BRANCH  60  66
ATOM     66  OH  MOL d          14.922  -8.637 -30.164  0.00  0.00    -0.361 OA
ATOM     67  H23 MOL d          14.384  -9.308 -29.760  0.00  0.00     0.217 HD
ENDBRANCH  60  66
ENDBRANCH  53  56
ENDBRANCH  48  53
ENDBRANCH  45  48
ENDBRANCH   1  44
BRANCH   1  68
ATOM     68  CBC MOL d          15.887  -6.282 -22.363  0.00  0.00    -0.006 C 
ATOM     69  H29 MOL d          16.294  -6.523 -21.370  0.00  0.00     0.044 H 
ATOM     70  H30 MOL d          16.705  -5.969 -23.028  0.00  0.00     0.044 H 
BRANCH  68  71
ATOM     71  CBS MOL d          15.274  -7.572 -22.946  0.00  0.00     0.082 A 
ATOM     72  CBA MOL d          14.968  -7.941 -24.194  0.00  0.00    -0.021 A 
ATOM     73  CBU MOL d          14.462  -9.190 -24.178  0.00  0.00     0.097 A 
ATOM     74  H31 MOL d          15.107  -7.329 -25.083  0.00  0.00     0.091 H 
ATOM     75  NBG MOL d          14.438  -9.619 -22.921  0.00  0.00    -0.128 NA
ATOM     76  OBK MOL d          14.953  -8.597 -22.114  0.00  0.00    -0.217 OA
BRANCH  73  77
ATOM     77  CBT MOL d          14.011  -9.949 -25.262  0.00  0.00    -0.005 A 
ATOM     78  CAU MOL d          14.578 -11.185 -25.560  0.00  0.00    -0.071 A 
ATOM     79  CAO MOL d          14.128 -11.930 -26.651  0.00  0.00    -0.082 A 
ATOM     80  H32 MOL d          15.378 -11.573 -24.939  0.00  0.00     0.084 H 
ATOM     81  CAJ MOL d          13.101 -11.443 -27.457  0.00  0.00    -0.083 A 
ATOM     82  H33 MOL d          14.578 -12.891 -26.872  0.00  0.00     0.083 H 
ATOM     83  CAP MOL d          12.528 -10.203 -27.164  0.00  0.00    -0.082 A 
ATOM     84  H34 MOL d          12.751 -12.021 -28.303  0.00  0.00     0.083 H 
ATOM     85  CAV MOL d          12.988  -9.456 -26.075  0.00  0.00    -0.071 A 
ATOM     86  H35 MOL d          11.725  -9.819 -27.783  0.00  0.00     0.083 H 
ATOM     87  H36 MOL d          12.548  -8.488 -25.861  0.00  0.00     0.084 H 
ENDBRANCH  73  77
ENDBRANCH  68  71
ENDBRANCH   1  68
TORSDOF 18
ENDMDL
MODEL 2
REMARK VINA RESULT:      -8.4      2.177      3.776
REMARK  18 active torsions:
REMARK  status: ('A' for Active; 'I' for Inactive)
REMARK    1  A    between atoms: CBB_7  and  CBP_6 
REMARK    2  A    between atoms: OBJ_8  and  CBB_7 
REMARK    3  A    between atoms: CBM_9  and  OBJ_8 
REMARK       I    between atoms: NBI_11  and  CBM_9 
REMARK    4  A    between atoms: CBX_12  and  NBI_11 
REMARK    5  A    between atoms: CBX_12  and  CBE_13 
REMARK    6  A    between atoms: PBY_20  and  CBX_12 
REMARK    7  A    between atoms: CBE_13  and  CBQ_14 
REMARK    8  A    between atoms: CBF_36  and  PBY_20 
REMARK    9  A    between atoms: N_23  and  CA_24 
REMARK       I    between atoms: CBN_38  and  N_23 
REMARK   10  A    between atoms: CA_24  and  C_25 
REMARK   11  A    between atoms: CA_24  and  CB_28 
REMARK   12  A    between atoms: CB_28  and  CG_29 
REMARK   13  A    between atoms: CZ_32  and  OH_33 
REMARK   14  A    between atoms: CBV_37  and  CBF_36 
REMARK   15  A    between atoms: CBV_37  and  CBN_38 
REMARK   16  A    between atoms: CBV_37  and  CBC_40 
REMARK   17  A    between atoms: CBC_40  and  CBS_41 
REMARK   18  A    between atoms: CBU_45  and  CBT_46 
ROOT
ATOM      1  CBV MOL d          15.314  -5.883 -22.793  0.00  0.00     0.038 C 
ATOM      2  H28 MOL d          15.781  -6.870 -22.658  0.00  0.00     0.056 H 
ENDROOT
BRANCH   1   3
ATOM      3  CBF MOL d          14.784  -5.435 -21.414  0.00  0.00     0.021 C 
ATOM      4  H26 MOL d          13.711  -5.677 -21.362  0.00  0.00     0.050 H 
ATOM      5  H27 MOL d          15.325  -5.995 -20.638  0.00  0.00     0.050 H 
BRANCH   3   6
ATOM      6  PBY MOL d          14.985  -3.661 -21.082  0.00  0.00     0.130 P 
ATOM      7  OAG MOL d          16.538  -3.468 -20.810  0.00  0.00    -0.666 OA
ATOM      8  OAD MOL d          14.433  -2.767 -22.129  0.00  0.00    -0.666 OA
BRANCH   6   9
ATOM      9  CBX MOL d          14.202  -3.266 -19.466  0.00  0.00     0.093 C 
ATOM     10  H9  MOL d          14.735  -3.806 -18.671  0.00  0.00     0.089 H 
BRANCH   9  11
ATOM     11  NBI MOL d          14.327  -1.821 -19.251  0.00  0.00    -0.322 N 
ATOM     12  CBM MOL d          15.015  -1.267 -18.254  0.00  0.00     0.361 C 
ATOM     13  OAB MOL d          15.621  -1.907 -17.388  0.00  0.00    -0.238 OA
ATOM     14  H8  MOL d          13.866  -1.211 -19.896  0.00  0.00     0.165 HD
BRANCH  12  15
ATOM     15  OBJ MOL d          14.977   0.094 -18.243  0.00  0.00    -0.299 OA
BRANCH  15  16
ATOM     16  CBB MOL d          16.173   0.892 -18.311  0.00  0.00     0.054 C 
ATOM     17  H6  MOL d          16.989   0.331 -17.831  0.00  0.00     0.082 H 
ATOM     18  H7  MOL d          16.416   1.057 -19.371  0.00  0.00     0.082 H 
BRANCH  16  19
ATOM     19  CBP MOL d          16.076   2.145 -17.684  0.00  0.00    -0.034 A 
ATOM     20  CAQ MOL d          14.916   2.907 -17.854  0.00  0.00    -0.075 A 
ATOM     21  CAK MOL d          14.789   4.148 -17.223  0.00  0.00    -0.082 A 
ATOM     22  H1  MOL d          14.112   2.534 -18.477  0.00  0.00     0.084 H 
ATOM     23  CAH MOL d          15.818   4.632 -16.420  0.00  0.00    -0.083 A 
ATOM     24  H2  MOL d          13.887   4.735 -17.359  0.00  0.00     0.083 H 
ATOM     25  CAL MOL d          16.971   3.869 -16.245  0.00  0.00    -0.082 A 
ATOM     26  H3  MOL d          15.723   5.595 -15.933  0.00  0.00     0.083 H 
ATOM     27  CAR MOL d          17.101   2.627 -16.872  0.00  0.00    -0.075 A 
ATOM     28  H4  MOL d          17.773   4.242 -15.618  0.00  0.00     0.083 H 
ATOM     29  H5  MOL d          17.999   2.038 -16.728  0.00  0.00     0.084 H 
ENDBRANCH  16  19
ENDBRANCH  15  16
ENDBRANCH  12  15
ENDBRANCH   9  11
BRANCH   9  30
ATOM     30  CBE MOL d          12.718  -3.654 -19.413  0.00  0.00    -0.013 C 
ATOM     31  H10 MOL d          12.601  -4.680 -19.793  0.00  0.00     0.044 H 
ATOM     32  H11 MOL d          12.142  -2.962 -20.045  0.00  0.00     0.044 H 
BRANCH  30  33
ATOM     33  CBQ MOL d          12.177  -3.587 -17.972  0.00  0.00    -0.056 A 
ATOM     34  CAS MOL d          11.605  -2.404 -17.498  0.00  0.00    -0.077 A 
ATOM     35  CAM MOL d          11.111  -2.341 -16.193  0.00  0.00    -0.082 A 
ATOM     36  H12 MOL d          11.545  -1.534 -18.143  0.00  0.00     0.084 H 
ATOM     37  CAI MOL d          11.182  -3.460 -15.362  0.00  0.00    -0.083 A 
ATOM     38  H13 MOL d          10.671  -1.421 -15.825  0.00  0.00     0.083 H 
ATOM     39  CAN MOL d          11.745  -4.648 -15.836  0.00  0.00    -0.082 A 
ATOM     40  H14 MOL d          10.801  -3.408 -14.349  0.00  0.00     0.083 H 
ATOM     41  CAT MOL d          12.244  -4.707 -17.140  0.00  0.00    -0.077 A 
ATOM     42  H15 MOL d          11.795  -5.520 -15.194  0.00  0.00     0.083 H 
ATOM     43  H16 MOL d          12.685  -5.627 -17.508  0.00  0.00     0.084 H 
ENDBRANCH  30  33
ENDBRANCH   9  30
ENDBRANCH   6   9
ENDBRANCH   3   6
ENDBRANCH   1   3
BRANCH   1  44
ATOM     44  CBN MOL d          14.152  -6.062 -23.790  0.00  0.00     0.223 C 
ATOM     45  N   MOL d          14.142  -7.204 -24.480  0.00  0.00    -0.346 N 
ATOM     46  H17 MOL d          14.919  -7.830 -24.399  0.00  0.00     0.163 HD
ATOM     47  OAC MOL d          13.282  -5.197 -23.896  0.00  0.00    -0.273 OA
BRANCH  45  48
ATOM     48  CA  MOL d          13.021  -7.567 -25.358  0.00  0.00     0.100 C 
ATOM     49  H18 MOL d          12.111  -7.069 -24.989  0.00  0.00     0.090 H 
BRANCH  48  50
ATOM     50  C   MOL d          12.833  -9.097 -25.257  0.00  0.00     0.197 C 
ATOM     51  OXT MOL d          12.053  -9.615 -26.077  0.00  0.00    -0.646 OA
ATOM     52  O   MOL d          13.511  -9.734 -24.423  0.00  0.00    -0.646 OA
ENDBRANCH  48  50
BRANCH  48  53
ATOM     53  CB  MOL d          13.240  -7.134 -26.813  0.00  0.00    -0.013 C 
ATOM     54  H19 MOL d          13.460  -6.056 -26.810  0.00  0.00     0.043 H 
ATOM     55  H20 MOL d          12.302  -7.315 -27.359  0.00  0.00     0.043 H 
BRANCH  53  56
ATOM     56  CG  MOL d          14.366  -7.835 -27.581  0.00  0.00    -0.056 A 
ATOM     57  CD1 MOL d          15.397  -8.467 -26.885  0.00  0.00    -0.074 A 
ATOM     58  CE1 MOL d          16.418  -9.118 -27.585  0.00  0.00    -0.051 A 
ATOM     59  H21 MOL d          15.407  -8.453 -25.801  0.00  0.00     0.084 H 
ATOM     60  CZ  MOL d          16.394  -9.147 -28.982  0.00  0.00     0.065 A 
ATOM     61  H22 MOL d          17.225  -9.601 -27.045  0.00  0.00     0.087 H 
ATOM     62  CE2 MOL d          15.360  -8.523 -29.677  0.00  0.00    -0.051 A 
ATOM     63  CD2 MOL d          14.346  -7.868 -28.978  0.00  0.00    -0.074 A 
ATOM     64  H24 MOL d          15.343  -8.548 -30.761  0.00  0.00     0.087 H 
ATOM     65  H25 MOL d          13.541  -7.383 -29.520  0.00  0.00     0.084 H 
BRANCH  60  66
ATOM     66  OH  MOL d          17.379  -9.788 -29.676  0.00  0.00    -0.361 OA
ATOM     67  H23 MOL d          18.227  -9.504 -29.357  0.00  0.00     0.217 HD
ENDBRANCH  60  66
ENDBRANCH  53  56
ENDBRANCH  48  53
ENDBRANCH  45  48
ENDBRANCH   1  44
BRANCH   1  68
ATOM     68  CBC MOL d          16.407  -4.940 -23.326  0.00  0.00    -0.006 C 
ATOM     69  H29 MOL d          17.201  -4.884 -22.568  0.00  0.00     0.044 H 
ATOM     70  H30 MOL d          15.956  -3.946 -23.459  0.00  0.00     0.044 H 
BRANCH  68  71
ATOM     71  CBS MOL d          17.060  -5.344 -24.664  0.00  0.00     0.082 A 
ATOM     72  CBA MOL d          16.703  -5.148 -25.937  0.00  0.00    -0.021 A 
ATOM     73  CBU MOL d          17.632  -5.690 -26.749  0.00  0.00     0.097 A 
ATOM     74  H31 MOL d          15.803  -4.631 -26.266  0.00  0.00     0.091 H 
ATOM     75  NBG MOL d          18.580  -6.238 -25.998  0.00  0.00    -0.128 NA
ATOM     76  OBK MOL d          18.233  -6.029 -24.657  0.00  0.00    -0.217 OA
BRANCH  73  77
ATOM     77  CBT MOL d          17.644  -5.716 -28.147  0.00  0.00    -0.005 A 
ATOM     78  CAU MOL d          18.661  -6.360 -28.846  0.00  0.00    -0.071 A 
ATOM     79  CAO MOL d          18.669  -6.370 -30.242  0.00  0.00    -0.082 A 
ATOM     80  H32 MOL d          19.454  -6.859 -28.301  0.00  0.00     0.084 H 
ATOM     81  CAJ MOL d          17.657  -5.733 -30.954  0.00  0.00    -0.083 A 
ATOM     82  H33 MOL d          19.467  -6.876 -30.773  0.00  0.00     0.083 H 
ATOM     83  CAP MOL d          16.633  -5.083 -30.259  0.00  0.00    -0.082 A 
ATOM     84  H34 MOL d          17.662  -5.741 -32.037  0.00  0.00     0.083 H 
ATOM     85  CAV MOL d          16.633  -5.068 -28.861  0.00  0.00    -0.071 A 
ATOM     86  H35 MOL d          15.837  -4.589 -30.805  0.00  0.00     0.083 H 
ATOM     87  H36 MOL d          15.843  -4.550 -28.327  0.00  0.00     0.084 H 
ENDBRANCH  73  77
ENDBRANCH  68  71
ENDBRANCH   1  68
TORSDOF 18
ENDMDL
MODEL 3
REMARK VINA RESULT:      -8.3      2.164      4.275
REMARK  18 active torsions:
REMARK  status: ('A' for Active; 'I' for Inactive)
REMARK    1  A    between atoms: CBB_7  and  CBP_6 
REMARK    2  A    between atoms: OBJ_8  and  CBB_7 
REMARK    3  A    between atoms: CBM_9  and  OBJ_8 
REMARK       I    between atoms: NBI_11  and  CBM_9 
REMARK    4  A    between atoms: CBX_12  and  NBI_11 
REMARK    5  A    between atoms: CBX_12  and  CBE_13 
REMARK    6  A    between atoms: PBY_20  and  CBX_12 
REMARK    7  A    between atoms: CBE_13  and  CBQ_14 
REMARK    8  A    between atoms: CBF_36  and  PBY_20 
REMARK    9  A    between atoms: N_23  and  CA_24 
REMARK       I    between atoms: CBN_38  and  N_23 
REMARK   10  A    between atoms: CA_24  and  C_25 
REMARK   11  A    between atoms: CA_24  and  CB_28 
REMARK   12  A    between atoms: CB_28  and  CG_29 
REMARK   13  A    between atoms: CZ_32  and  OH_33 
REMARK   14  A    between atoms: CBV_37  and  CBF_36 
REMARK   15  A    between atoms: CBV_37  and  CBN_38 
REMARK   16  A    between atoms: CBV_37  and  CBC_40 
REMARK   17  A    between atoms: CBC_40  and  CBS_41 
REMARK   18  A    between atoms: CBU_45  and  CBT_46 
ROOT
ATOM      1  CBV MOL d          15.563  -6.349 -22.839  0.00  0.00     0.038 C 
ATOM      2  H28 MOL d          16.209  -7.212 -22.621  0.00  0.00     0.056 H 
ENDROOT
BRANCH   1   3
ATOM      3  CBF MOL d          14.840  -5.976 -21.527  0.00  0.00     0.021 C 
ATOM      4  H26 MOL d          13.870  -6.494 -21.508  0.00  0.00     0.050 H 
ATOM      5  H27 MOL d          15.456  -6.321 -20.683  0.00  0.00     0.050 H 
BRANCH   3   6
ATOM      6  PBY MOL d          14.540  -4.197 -21.324  0.00  0.00     0.130 P 
ATOM      7  OAG MOL d          15.980  -3.528 -21.386  0.00  0.00    -0.666 OA
ATOM      8  OAD MOL d          13.558  -3.621 -22.275  0.00  0.00    -0.666 OA
BRANCH   6   9
ATOM      9  CBX MOL d          13.981  -3.880 -19.601  0.00  0.00     0.093 C 
ATOM     10  H9  MOL d          14.177  -4.775 -18.993  0.00  0.00     0.089 H 
BRANCH   9  11
ATOM     11  NBI MOL d          14.759  -2.751 -19.081  0.00  0.00    -0.322 N 
ATOM     12  CBM MOL d          14.576  -1.482 -19.444  0.00  0.00     0.361 C 
ATOM     13  OAB MOL d          13.735  -1.110 -20.269  0.00  0.00    -0.238 OA
ATOM     14  H8  MOL d          15.473  -2.946 -18.409  0.00  0.00     0.165 HD
BRANCH  12  15
ATOM     15  OBJ MOL d          15.427  -0.606 -18.843  0.00  0.00    -0.299 OA
BRANCH  15  16
ATOM     16  CBB MOL d          14.988   0.683 -18.372  0.00  0.00     0.054 C 
ATOM     17  H6  MOL d          15.852   1.365 -18.385  0.00  0.00     0.082 H 
ATOM     18  H7  MOL d          14.217   1.056 -19.062  0.00  0.00     0.082 H 
BRANCH  16  19
ATOM     19  CBP MOL d          14.452   0.679 -17.074  0.00  0.00    -0.034 A 
ATOM     20  CAQ MOL d          14.782  -0.362 -16.201  0.00  0.00    -0.075 A 
ATOM     21  CAK MOL d          14.276  -0.377 -14.898  0.00  0.00    -0.082 A 
ATOM     22  H1  MOL d          15.433  -1.162 -16.536  0.00  0.00     0.084 H 
ATOM     23  CAH MOL d          13.441   0.649 -14.462  0.00  0.00    -0.083 A 
ATOM     24  H2  MOL d          14.534  -1.187 -14.225  0.00  0.00     0.083 H 
ATOM     25  CAL MOL d          13.118   1.689 -15.330  0.00  0.00    -0.082 A 
ATOM     26  H3  MOL d          13.044   0.637 -13.453  0.00  0.00     0.083 H 
ATOM     27  CAR MOL d          13.624   1.708 -16.633  0.00  0.00    -0.075 A 
ATOM     28  H4  MOL d          12.470   2.490 -14.993  0.00  0.00     0.083 H 
ATOM     29  H5  MOL d          13.371   2.524 -17.300  0.00  0.00     0.084 H 
ENDBRANCH  16  19
ENDBRANCH  15  16
ENDBRANCH  12  15
ENDBRANCH   9  11
BRANCH   9  30
ATOM     30  CBE MOL d          12.486  -3.543 -19.512  0.00  0.00    -0.013 C 
ATOM     31  H10 MOL d          11.905  -4.370 -19.948  0.00  0.00     0.044 H 
ATOM     32  H11 MOL d          12.291  -2.621 -20.078  0.00  0.00     0.044 H 
BRANCH  30  33
ATOM     33  CBQ MOL d          12.049  -3.338 -18.050  0.00  0.00    -0.056 A 
ATOM     34  CAS MOL d          12.138  -4.397 -17.142  0.00  0.00    -0.077 A 
ATOM     35  CAM MOL d          11.746  -4.213 -15.814  0.00  0.00    -0.082 A 
ATOM     36  H12 MOL d          12.511  -5.361 -17.468  0.00  0.00     0.084 H 
ATOM     37  CAI MOL d          11.270  -2.971 -15.390  0.00  0.00    -0.083 A 
ATOM     38  H13 MOL d          11.812  -5.035 -15.111  0.00  0.00     0.083 H 
ATOM     39  CAN MOL d          11.189  -1.908 -16.293  0.00  0.00    -0.082 A 
ATOM     40  H14 MOL d          10.963  -2.832 -14.360  0.00  0.00     0.083 H 
ATOM     41  CAT MOL d          11.576  -2.095 -17.622  0.00  0.00    -0.077 A 
ATOM     42  H15 MOL d          10.825  -0.941 -15.963  0.00  0.00     0.083 H 
ATOM     43  H16 MOL d          11.510  -1.273 -18.325  0.00  0.00     0.084 H 
ENDBRANCH  30  33
ENDBRANCH   9  30
ENDBRANCH   6   9
ENDBRANCH   3   6
ENDBRANCH   1   3
BRANCH   1  44
ATOM     44  CBN MOL d          14.548  -6.798 -23.909  0.00  0.00     0.223 C 
ATOM     45  N   MOL d          14.787  -7.978 -24.485  0.00  0.00    -0.346 N 
ATOM     46  H17 MOL d          15.640  -8.458 -24.278  0.00  0.00     0.163 HD
ATOM     47  OAC MOL d          13.568  -6.100 -24.171  0.00  0.00    -0.273 OA
BRANCH  45  48
ATOM     48  CA  MOL d          13.829  -8.591 -25.415  0.00  0.00     0.100 C 
ATOM     49  H18 MOL d          12.812  -8.450 -25.017  0.00  0.00     0.090 H 
BRANCH  48  50
ATOM     50  C   MOL d          14.143 -10.103 -25.470  0.00  0.00     0.197 C 
ATOM     51  OXT MOL d          15.170 -10.478 -24.877  0.00  0.00    -0.646 OA
ATOM     52  O   MOL d          13.332 -10.867 -26.036  0.00  0.00    -0.646 OA
ENDBRANCH  48  50
BRANCH  48  53
ATOM     53  CB  MOL d          13.878  -7.967 -26.816  0.00  0.00    -0.013 C 
ATOM     54  H19 MOL d          14.137  -6.905 -26.699  0.00  0.00     0.043 H 
ATOM     55  H20 MOL d          12.873  -8.054 -27.254  0.00  0.00     0.043 H 
BRANCH  53  56
ATOM     56  CG  MOL d          14.872  -8.579 -27.810  0.00  0.00    -0.056 A 
ATOM     57  CD1 MOL d          14.409  -9.171 -28.985  0.00  0.00    -0.074 A 
ATOM     58  CE1 MOL d          15.317  -9.717 -29.899  0.00  0.00    -0.051 A 
ATOM     59  H21 MOL d          13.345  -9.208 -29.191  0.00  0.00     0.084 H 
ATOM     60  CZ  MOL d          16.688  -9.655 -29.638  0.00  0.00     0.065 A 
ATOM     61  H22 MOL d          14.957 -10.187 -30.807  0.00  0.00     0.087 H 
ATOM     62  CE2 MOL d          17.152  -9.056 -28.469  0.00  0.00    -0.051 A 
ATOM     63  CD2 MOL d          16.246  -8.517 -27.555  0.00  0.00    -0.074 A 
ATOM     64  H24 MOL d          18.216  -9.007 -28.270  0.00  0.00     0.087 H 
ATOM     65  H25 MOL d          16.607  -8.051 -26.645  0.00  0.00     0.084 H 
BRANCH  60  66
ATOM     66  OH  MOL d          17.584 -10.175 -30.527  0.00  0.00    -0.361 OA
ATOM     67  H23 MOL d          18.332 -10.522 -30.054  0.00  0.00     0.217 HD
ENDBRANCH  60  66
ENDBRANCH  53  56
ENDBRANCH  48  53
ENDBRANCH  45  48
ENDBRANCH   1  44
BRANCH   1  68
ATOM     68  CBC MOL d          16.480  -5.217 -23.335  0.00  0.00    -0.006 C 
ATOM     69  H29 MOL d          17.514  -5.482 -23.069  0.00  0.00     0.044 H 
ATOM     70  H30 MOL d          16.190  -4.296 -22.810  0.00  0.00     0.044 H 
BRANCH  68  71
ATOM     71  CBS MOL d          16.443  -4.928 -24.850  0.00  0.00     0.082 A 
ATOM     72  CBA MOL d          17.031  -5.518 -25.895  0.00  0.00    -0.021 A 
ATOM     73  CBU MOL d          16.662  -4.889 -27.028  0.00  0.00     0.097 A 
ATOM     74  H31 MOL d          17.703  -6.373 -25.840  0.00  0.00     0.091 H 
ATOM     75  NBG MOL d          15.843  -3.893 -26.709  0.00  0.00    -0.128 NA
ATOM     76  OBK MOL d          15.689  -3.899 -25.317  0.00  0.00    -0.217 OA
BRANCH  73  77
ATOM     77  CBT MOL d          17.051  -5.179 -28.339  0.00  0.00    -0.005 A 
ATOM     78  CAU MOL d          16.107  -5.406 -29.336  0.00  0.00    -0.071 A 
ATOM     79  CAO MOL d          16.506  -5.706 -30.640  0.00  0.00    -0.082 A 
ATOM     80  H32 MOL d          15.050  -5.351 -29.098  0.00  0.00     0.084 H 
ATOM     81  CAJ MOL d          17.859  -5.781 -30.959  0.00  0.00    -0.083 A 
ATOM     82  H33 MOL d          15.760  -5.881 -31.406  0.00  0.00     0.083 H 
ATOM     83  CAP MOL d          18.813  -5.555 -29.963  0.00  0.00    -0.082 A 
ATOM     84  H34 MOL d          18.170  -6.013 -31.971  0.00  0.00     0.083 H 
ATOM     85  CAV MOL d          18.408  -5.264 -28.657  0.00  0.00    -0.071 A 
ATOM     86  H35 MOL d          19.869  -5.606 -30.204  0.00  0.00     0.083 H 
ATOM     87  H36 MOL d          19.153  -5.103 -27.885  0.00  0.00     0.084 H 
ENDBRANCH  73  77
ENDBRANCH  68  71
ENDBRANCH   1  68
TORSDOF 18
ENDMDL
MODEL 4
REMARK VINA RESULT:      -7.3      2.186      4.569
REMARK  18 active torsions:
REMARK  status: ('A' for Active; 'I' for Inactive)
REMARK    1  A    between atoms: CBB_7  and  CBP_6 
REMARK    2  A    between atoms: OBJ_8  and  CBB_7 
REMARK    3  A    between atoms: CBM_9  and  OBJ_8 
REMARK       I    between atoms: NBI_11  and  CBM_9 
REMARK    4  A    between atoms: CBX_12  and  NBI_11 
REMARK    5  A    between atoms: CBX_12  and  CBE_13 
REMARK    6  A    between atoms: PBY_20  and  CBX_12 
REMARK    7  A    between atoms: CBE_13  and  CBQ_14 
REMARK    8  A    between atoms: CBF_36  and  PBY_20 
REMARK    9  A    between atoms: N_23  and  CA_24 
REMARK       I    between atoms: CBN_38  and  N_23 
REMARK   10  A    between atoms: CA_24  and  C_25 
REMARK   11  A    between atoms: CA_24  and  CB_28 
REMARK   12  A    between atoms: CB_28  and  CG_29 
REMARK   13  A    between atoms: CZ_32  and  OH_33 
REMARK   14  A    between atoms: CBV_37  and  CBF_36 
REMARK   15  A    between atoms: CBV_37  and  CBN_38 
REMARK   16  A    between atoms: CBV_37  and  CBC_40 
REMARK   17  A    between atoms: CBC_40  and  CBS_41 
REMARK   18  A    between atoms: CBU_45  and  CBT_46 
ROOT
ATOM      1  CBV MOL d          15.524  -7.114 -23.284  0.00  0.00     0.038 C 
ATOM      2  H28 MOL d          15.831  -8.159 -23.128  0.00  0.00     0.056 H 
ENDROOT
BRANCH   1   3
ATOM      3  CBF MOL d          14.832  -6.641 -21.987  0.00  0.00     0.021 C 
ATOM      4  H26 MOL d          13.817  -7.064 -21.965  0.00  0.00     0.050 H 
ATOM      5  H27 MOL d          15.408  -7.022 -21.131  0.00  0.00     0.050 H 
BRANCH   3   6
ATOM      6  PBY MOL d          14.702  -4.837 -21.830  0.00  0.00     0.130 P 
ATOM      7  OAG MOL d          16.199  -4.310 -21.895  0.00  0.00    -0.666 OA
ATOM      8  OAD MOL d          13.785  -4.194 -22.804  0.00  0.00    -0.666 OA
BRANCH   6   9
ATOM      9  CBX MOL d          14.164  -4.426 -20.121  0.00  0.00     0.093 C 
ATOM     10  H9  MOL d          14.239  -5.329 -19.498  0.00  0.00     0.089 H 
BRANCH   9  11
ATOM     11  NBI MOL d          15.068  -3.393 -19.605  0.00  0.00    -0.322 N 
ATOM     12  CBM MOL d          15.026  -2.111 -19.963  0.00  0.00     0.361 C 
ATOM     13  OAB MOL d          14.224  -1.644 -20.779  0.00  0.00    -0.238 OA
ATOM     14  H8  MOL d          15.762  -3.670 -18.940  0.00  0.00     0.165 HD
BRANCH  12  15
ATOM     15  OBJ MOL d          15.975  -1.338 -19.368  0.00  0.00    -0.299 OA
BRANCH  15  16
ATOM     16  CBB MOL d          16.372  -1.535 -17.998  0.00  0.00     0.054 C 
ATOM     17  H6  MOL d          15.843  -2.419 -17.610  0.00  0.00     0.082 H 
ATOM     18  H7  MOL d          17.456  -1.720 -17.978  0.00  0.00     0.082 H 
BRANCH  16  19
ATOM     19  CBP MOL d          16.095  -0.452 -17.148  0.00  0.00    -0.034 A 
ATOM     20  CAQ MOL d          14.900  -0.440 -16.422  0.00  0.00    -0.075 A 
ATOM     21  CAK MOL d          14.612   0.619 -15.555  0.00  0.00    -0.082 A 
ATOM     22  H1  MOL d          14.194  -1.255 -16.531  0.00  0.00     0.084 H 
ATOM     23  CAH MOL d          15.517   1.667 -15.409  0.00  0.00    -0.083 A 
ATOM     24  H2  MOL d          13.684   0.623 -14.995  0.00  0.00     0.083 H 
ATOM     25  CAL MOL d          16.710   1.651 -16.128  0.00  0.00    -0.082 A 
ATOM     26  H3  MOL d          15.294   2.491 -14.741  0.00  0.00     0.083 H 
ATOM     27  CAR MOL d          17.002   0.594 -16.993  0.00  0.00    -0.075 A 
ATOM     28  H4  MOL d          17.417   2.465 -16.014  0.00  0.00     0.083 H 
ATOM     29  H5  MOL d          17.935   0.587 -17.545  0.00  0.00     0.084 H 
ENDBRANCH  16  19
ENDBRANCH  15  16
ENDBRANCH  12  15
ENDBRANCH   9  11
BRANCH   9  30
ATOM     30  CBE MOL d          12.721  -3.906 -20.059  0.00  0.00    -0.013 C 
ATOM     31  H10 MOL d          12.049  -4.658 -20.500  0.00  0.00     0.044 H 
ATOM     32  H11 MOL d          12.651  -2.971 -20.634  0.00  0.00     0.044 H 
BRANCH  30  33
ATOM     33  CBQ MOL d          12.289  -3.636 -18.606  0.00  0.00    -0.056 A 
ATOM     34  CAS MOL d          11.865  -2.358 -18.232  0.00  0.00    -0.077 A 
ATOM     35  CAM MOL d          11.469  -2.111 -16.916  0.00  0.00    -0.082 A 
ATOM     36  H12 MOL d          11.844  -1.558 -18.964  0.00  0.00     0.084 H 
ATOM     37  CAI MOL d          11.491  -3.139 -15.973  0.00  0.00    -0.083 A 
ATOM     38  H13 MOL d          11.145  -1.118 -16.625  0.00  0.00     0.083 H 
ATOM     39  CAN MOL d          11.905  -4.421 -16.345  0.00  0.00    -0.082 A 
ATOM     40  H14 MOL d          11.186  -2.944 -14.951  0.00  0.00     0.083 H 
ATOM     41  CAT MOL d          12.305  -4.665 -17.662  0.00  0.00    -0.077 A 
ATOM     42  H15 MOL d          11.915  -5.223 -15.616  0.00  0.00     0.083 H 
ATOM     43  H16 MOL d          12.630  -5.658 -17.952  0.00  0.00     0.084 H 
ENDBRANCH  30  33
ENDBRANCH   9  30
ENDBRANCH   6   9
ENDBRANCH   3   6
ENDBRANCH   1   3
BRANCH   1  44
ATOM     44  CBN MOL d          14.533  -7.100 -24.464  0.00  0.00     0.223 C 
ATOM     45  N   MOL d          14.740  -8.016 -25.414  0.00  0.00    -0.346 N 
ATOM     46  H17 MOL d          15.562  -8.585 -25.372  0.00  0.00     0.163 HD
ATOM     47  OAC MOL d          13.597  -6.301 -24.484  0.00  0.00    -0.273 OA
BRANCH  45  48
ATOM     48  CA  MOL d          13.793  -8.208 -26.520  0.00  0.00     0.100 C 
ATOM     49  H18 MOL d          13.373  -7.229 -26.799  0.00  0.00     0.090 H 
BRANCH  48  50
ATOM     50  C   MOL d          12.655  -9.114 -25.999  0.00  0.00     0.197 C 
ATOM     51  OXT MOL d          11.579  -8.551 -25.726  0.00  0.00    -0.646 OA
ATOM     52  O   MOL d          12.843 -10.348 -25.944  0.00  0.00    -0.646 OA
ENDBRANCH  48  50
BRANCH  48  53
ATOM     53  CB  MOL d          14.450  -8.812 -27.768  0.00  0.00    -0.013 C 
ATOM     54  H19 MOL d          13.646  -9.177 -28.424  0.00  0.00     0.043 H 
ATOM     55  H20 MOL d          15.069  -9.661 -27.440  0.00  0.00     0.043 H 
BRANCH  53  56
ATOM     56  CG  MOL d          15.340  -7.882 -28.600  0.00  0.00    -0.056 A 
ATOM     57  CD1 MOL d          14.791  -6.757 -29.215  0.00  0.00    -0.074 A 
ATOM     58  CE1 MOL d          15.607  -5.901 -29.963  0.00  0.00    -0.051 A 
ATOM     59  H21 MOL d          13.733  -6.546 -29.115  0.00  0.00     0.084 H 
ATOM     60  CZ  MOL d          16.973  -6.167 -30.079  0.00  0.00     0.065 A 
ATOM     61  H22 MOL d          15.179  -5.032 -30.451  0.00  0.00     0.087 H 
ATOM     62  CE2 MOL d          17.524  -7.286 -29.457  0.00  0.00    -0.051 A 
ATOM     63  CD2 MOL d          16.709  -8.143 -28.717  0.00  0.00    -0.074 A 
ATOM     64  H24 MOL d          18.585  -7.490 -29.547  0.00  0.00     0.087 H 
ATOM     65  H25 MOL d          17.138  -9.014 -28.233  0.00  0.00     0.084 H 
BRANCH  60  66
ATOM     66  OH  MOL d          17.781  -5.334 -30.797  0.00  0.00    -0.361 OA
ATOM     67  H23 MOL d          17.425  -5.226 -31.671  0.00  0.00     0.217 HD
ENDBRANCH  60  66
ENDBRANCH  53  56
ENDBRANCH  48  53
ENDBRANCH  45  48
ENDBRANCH   1  44
BRANCH   1  68
ATOM     68  CBC MOL d          16.804  -6.312 -23.581  0.00  0.00    -0.006 C 
ATOM     69  H29 MOL d          17.636  -7.027 -23.667  0.00  0.00     0.044 H 
ATOM     70  H30 MOL d          16.984  -5.640 -22.729  0.00  0.00     0.044 H 
BRANCH  68  71
ATOM     71  CBS MOL d          16.786  -5.454 -24.863  0.00  0.00     0.082 A 
ATOM     72  CBA MOL d          16.116  -4.347 -25.197  0.00  0.00    -0.021 A 
ATOM     73  CBU MOL d          16.467  -3.973 -26.443  0.00  0.00     0.097 A 
ATOM     74  H31 MOL d          15.399  -3.829 -24.563  0.00  0.00     0.091 H 
ATOM     75  NBG MOL d          17.356  -4.842 -26.910  0.00  0.00    -0.128 NA
ATOM     76  OBK MOL d          17.575  -5.801 -25.913  0.00  0.00    -0.217 OA
BRANCH  73  77
ATOM     77  CBT MOL d          16.000  -2.878 -27.177  0.00  0.00    -0.005 A 
ATOM     78  CAU MOL d          14.920  -3.002 -28.046  0.00  0.00    -0.071 A 
ATOM     79  CAO MOL d          14.468  -1.906 -28.782  0.00  0.00    -0.082 A 
ATOM     80  H32 MOL d          14.424  -3.961 -28.152  0.00  0.00     0.084 H 
ATOM     81  CAJ MOL d          15.097  -0.670 -28.656  0.00  0.00    -0.083 A 
ATOM     82  H33 MOL d          13.626  -2.017 -29.455  0.00  0.00     0.083 H 
ATOM     83  CAP MOL d          16.183  -0.537 -27.786  0.00  0.00    -0.082 A 
ATOM     84  H34 MOL d          14.747   0.182 -29.227  0.00  0.00     0.083 H 
ATOM     85  CAV MOL d          16.637  -1.641 -27.057  0.00  0.00    -0.071 A 
ATOM     86  H35 MOL d          16.674   0.423 -27.677  0.00  0.00     0.083 H 
ATOM     87  H36 MOL d          17.488  -1.535 -26.394  0.00  0.00     0.084 H 
ENDBRANCH  73  77
ENDBRANCH  68  71
ENDBRANCH   1  68
TORSDOF 18
ENDMDL
