MODEL 1
REMARK VINA RESULT:      -8.7      0.000      0.000
REMARK  8 active torsions:
REMARK  status: ('A' for Active; 'I' for Inactive)
REMARK    1  A    between atoms: CAU_6  and  OAS_7 
REMARK    2  A    between atoms: OAS_7  and  CAV_8 
REMARK    3  A    between atoms: CAT_13  and  CAQ_14 
REMARK    4  A    between atoms: CAQ_14  and  CAP_15 
REMARK    5  A    between atoms: CAP_15  and  CAR_16 
REMARK    6  A    between atoms: CAR_16  and  CAW_17 
REMARK    7  A    between atoms: CAW_17  and  PAX_18 
REMARK    8  A    between atoms: CAW_17  and  SAY_22 
ROOT
ATOM      1  CAV B65 d          15.200  52.170  39.514  0.00  0.00     0.076 A 
ATOM      2  CAO B65 d          15.617  51.903  38.212  0.00  0.00    -0.044 A 
ATOM      3  CAN B65 d          15.894  51.622  40.585  0.00  0.00    -0.050 A 
ATOM      4  CAJ B65 d          16.993  50.806  40.346  0.00  0.00    -0.080 A 
ATOM      5  CAK B65 d          17.401  50.531  39.043  0.00  0.00    -0.077 A 
ATOM      6  CAT B65 d          16.707  51.083  37.971  0.00  0.00    -0.056 A 
ATOM      7  H6  B65 d          15.082  52.341  37.378  0.00  0.00     0.088 H 
ATOM      8  H7  B65 d          15.581  51.829  41.602  0.00  0.00     0.087 H 
ATOM      9  H8  B65 d          17.537  50.379  41.181  0.00  0.00     0.083 H 
ATOM     10  H9  B65 d          18.256  49.890  38.865  0.00  0.00     0.084 H 
ENDROOT
BRANCH   6  11
ATOM     11  CAQ B65 d          17.092  50.761  36.523  0.00  0.00    -0.041 C 
ATOM     12  H10 B65 d          16.195  50.832  35.891  0.00  0.00     0.040 H 
ATOM     13  H11 B65 d          17.490  49.737  36.480  0.00  0.00     0.040 H 
BRANCH  11  14
ATOM     14  CAP B65 d          18.152  51.728  35.990  0.00  0.00    -0.059 C 
ATOM     15  H12 B65 d          18.255  51.597  34.903  0.00  0.00     0.033 H 
ATOM     16  H13 B65 d          19.117  51.520  36.478  0.00  0.00     0.033 H 
BRANCH  14  17
ATOM     17  CAR B65 d          17.727  53.164  36.294  0.00  0.00    -0.034 C 
ATOM     18  H14 B65 d          17.150  53.170  37.231  0.00  0.00     0.036 H 
ATOM     19  H15 B65 d          17.093  53.525  35.471  0.00  0.00     0.036 H 
BRANCH  17  20
ATOM     20  CAW B65 d          18.919  54.114  36.446  0.00  0.00     0.169 C 
ATOM     21  H16 B65 d          19.685  53.840  35.707  0.00  0.00     0.090 H 
BRANCH  20  22
ATOM     22  PAX B65 d          19.655  53.988  38.126  0.00  0.00     0.281 P 
ATOM     23  OAB B65 d          18.435  53.899  39.173  0.00  0.00    -0.639 OA
ATOM     24  OAC B65 d          20.414  52.567  38.170  0.00  0.00    -0.639 OA
ATOM     25  OAA B65 d          20.565  55.117  38.430  0.00  0.00    -0.639 OA
ENDBRANCH  20  22
BRANCH  20  26
ATOM     26  SAY B65 d          18.371  55.829  36.125  0.00  0.00     0.119 S 
ATOM     27  OAF B65 d          19.514  56.657  35.892  0.00  0.00    -0.594 OA
ATOM     28  OAE B65 d          17.620  56.352  37.312  0.00  0.00    -0.594 OA
ATOM     29  OAD B65 d          17.457  55.848  34.932  0.00  0.00    -0.594 OA
ENDBRANCH  20  26
ENDBRANCH  17  20
ENDBRANCH  14  17
ENDBRANCH  11  14
ENDBRANCH   6  11
BRANCH   1  30
ATOM     30  OAS B65 d          14.044  52.867  39.667  0.00  0.00    -0.311 OA
BRANCH  30  31
ATOM     31  CAU B65 d          14.114  53.991  40.438  0.00  0.00     0.076 A 
ATOM     32  CAL B65 d          15.029  54.985  40.136  0.00  0.00    -0.050 A 
ATOM     33  CAH B65 d          14.969  56.204  40.817  0.00  0.00    -0.080 A 
ATOM     34  H1  B65 d          15.787  54.819  39.378  0.00  0.00     0.087 H 
ATOM     35  CAG B65 d          13.999  56.417  41.791  0.00  0.00    -0.083 A 
ATOM     36  H2  B65 d          15.681  56.987  40.585  0.00  0.00     0.083 H 
ATOM     37  CAI B65 d          13.087  55.416  42.092  0.00  0.00    -0.080 A 
ATOM     38  H3  B65 d          13.957  57.365  42.314  0.00  0.00     0.083 H 
ATOM     39  CAM B65 d          13.147  54.198  41.416  0.00  0.00    -0.050 A 
ATOM     40  H4  B65 d          12.331  55.581  42.850  0.00  0.00     0.083 H 
ATOM     41  H5  B65 d          12.440  53.412  41.654  0.00  0.00     0.087 H 
ENDBRANCH  30  31
ENDBRANCH   1  30
TORSDOF 8
ENDMDL
MODEL 2
REMARK VINA RESULT:      -8.5      3.000      4.114
REMARK  8 active torsions:
REMARK  status: ('A' for Active; 'I' for Inactive)
REMARK    1  A    between atoms: CAU_6  and  OAS_7 
REMARK    2  A    between atoms: OAS_7  and  CAV_8 
REMARK    3  A    between atoms: CAT_13  and  CAQ_14 
REMARK    4  A    between atoms: CAQ_14  and  CAP_15 
REMARK    5  A    between atoms: CAP_15  and  CAR_16 
REMARK    6  A    between atoms: CAR_16  and  CAW_17 
REMARK    7  A    between atoms: CAW_17  and  PAX_18 
REMARK    8  A    between atoms: CAW_17  and  SAY_22 
ROOT
ATOM      1  CAV B65 d          15.058  56.244  38.923  0.00  0.00     0.076 A 
ATOM      2  CAO B65 d          16.173  55.929  38.150  0.00  0.00    -0.044 A 
ATOM      3  CAN B65 d          13.873  56.616  38.301  0.00  0.00    -0.050 A 
ATOM      4  CAJ B65 d          13.815  56.679  36.914  0.00  0.00    -0.080 A 
ATOM      5  CAK B65 d          14.935  56.374  36.144  0.00  0.00    -0.077 A 
ATOM      6  CAT B65 d          16.120  55.998  36.767  0.00  0.00    -0.056 A 
ATOM      7  H6  B65 d          17.094  55.626  38.635  0.00  0.00     0.088 H 
ATOM      8  H7  B65 d          12.998  56.856  38.894  0.00  0.00     0.087 H 
ATOM      9  H8  B65 d          12.890  56.967  36.427  0.00  0.00     0.083 H 
ATOM     10  H9  B65 d          14.883  56.429  35.063  0.00  0.00     0.084 H 
ENDROOT
BRANCH   6  11
ATOM     11  CAQ B65 d          17.388  55.708  35.957  0.00  0.00    -0.041 C 
ATOM     12  H10 B65 d          17.333  56.252  35.002  0.00  0.00     0.040 H 
ATOM     13  H11 B65 d          17.446  54.628  35.760  0.00  0.00     0.040 H 
BRANCH  11  14
ATOM     14  CAP B65 d          18.650  56.145  36.704  0.00  0.00    -0.059 C 
ATOM     15  H12 B65 d          18.367  56.717  37.600  0.00  0.00     0.033 H 
ATOM     16  H13 B65 d          19.267  56.775  36.046  0.00  0.00     0.033 H 
BRANCH  14  17
ATOM     17  CAR B65 d          19.447  54.909  37.120  0.00  0.00    -0.034 C 
ATOM     18  H14 B65 d          20.520  55.153  37.087  0.00  0.00     0.036 H 
ATOM     19  H15 B65 d          19.234  54.098  36.408  0.00  0.00     0.036 H 
BRANCH  17  20
ATOM     20  CAW B65 d          19.098  54.427  38.531  0.00  0.00     0.169 C 
ATOM     21  H16 B65 d          18.295  55.063  38.932  0.00  0.00     0.090 H 
BRANCH  20  22
ATOM     22  PAX B65 d          20.552  54.543  39.649  0.00  0.00     0.281 P 
ATOM     23  OAB B65 d          20.958  56.098  39.739  0.00  0.00    -0.639 OA
ATOM     24  OAC B65 d          20.021  54.112  41.109  0.00  0.00    -0.639 OA
ATOM     25  OAA B65 d          21.683  53.700  39.195  0.00  0.00    -0.639 OA
ENDBRANCH  20  22
BRANCH  20  26
ATOM     26  SAY B65 d          18.501  52.700  38.450  0.00  0.00     0.119 S 
ATOM     27  OAF B65 d          17.388  52.623  37.554  0.00  0.00    -0.594 OA
ATOM     28  OAE B65 d          18.068  52.249  39.811  0.00  0.00    -0.594 OA
ATOM     29  OAD B65 d          19.615  51.806  37.980  0.00  0.00    -0.594 OA
ENDBRANCH  20  26
ENDBRANCH  17  20
ENDBRANCH  14  17
ENDBRANCH  11  14
ENDBRANCH   6  11
BRANCH   1  30
ATOM     30  OAS B65 d          15.226  56.286  40.270  0.00  0.00    -0.311 OA
BRANCH  30  31
ATOM     31  CAU B65 d          14.277  55.652  41.018  0.00  0.00     0.076 A 
ATOM     32  CAL B65 d          13.559  56.355  41.971  0.00  0.00    -0.050 A 
ATOM     33  CAH B65 d          12.472  55.743  42.600  0.00  0.00    -0.080 A 
ATOM     34  H1  B65 d          13.838  57.371  42.226  0.00  0.00     0.087 H 
ATOM     35  CAG B65 d          12.114  54.440  42.275  0.00  0.00    -0.083 A 
ATOM     36  H2  B65 d          11.904  56.288  43.346  0.00  0.00     0.083 H 
ATOM     37  CAI B65 d          12.840  53.739  41.323  0.00  0.00    -0.080 A 
ATOM     38  H3  B65 d          11.269  53.971  42.765  0.00  0.00     0.083 H 
ATOM     39  CAM B65 d          13.927  54.346  40.695  0.00  0.00    -0.050 A 
ATOM     40  H4  B65 d          12.562  52.723  41.068  0.00  0.00     0.083 H 
ATOM     41  H5  B65 d          14.500  53.798  39.955  0.00  0.00     0.087 H 
ENDBRANCH  30  31
ENDBRANCH   1  30
TORSDOF 8
ENDMDL
MODEL 3
REMARK VINA RESULT:      -8.4      1.038      2.294
REMARK  8 active torsions:
REMARK  status: ('A' for Active; 'I' for Inactive)
REMARK    1  A    between atoms: CAU_6  and  OAS_7 
REMARK    2  A    between atoms: OAS_7  and  CAV_8 
REMARK    3  A    between atoms: CAT_13  and  CAQ_14 
REMARK    4  A    between atoms: CAQ_14  and  CAP_15 
REMARK    5  A    between atoms: CAP_15  and  CAR_16 
REMARK    6  A    between atoms: CAR_16  and  CAW_17 
REMARK    7  A    between atoms: CAW_17  and  PAX_18 
REMARK    8  A    between atoms: CAW_17  and  SAY_22 
ROOT
ATOM      1  CAV B65 d          15.188  52.315  39.577  0.00  0.00     0.076 A 
ATOM      2  CAO B65 d          15.711  52.255  38.287  0.00  0.00    -0.044 A 
ATOM      3  CAN B65 d          15.799  51.602  40.601  0.00  0.00    -0.050 A 
ATOM      4  CAJ B65 d          16.922  50.830  40.327  0.00  0.00    -0.080 A 
ATOM      5  CAK B65 d          17.436  50.763  39.034  0.00  0.00    -0.077 A 
ATOM      6  CAT B65 d          16.825  51.479  38.010  0.00  0.00    -0.056 A 
ATOM      7  H6  B65 d          15.242  52.821  37.492  0.00  0.00     0.088 H 
ATOM      8  H7  B65 d          15.404  51.649  41.609  0.00  0.00     0.087 H 
ATOM      9  H8  B65 d          17.401  50.275  41.125  0.00  0.00     0.083 H 
ATOM     10  H9  B65 d          18.308  50.155  38.827  0.00  0.00     0.084 H 
ENDROOT
BRANCH   6  11
ATOM     11  CAQ B65 d          17.328  51.388  36.565  0.00  0.00    -0.041 C 
ATOM     12  H10 B65 d          16.899  52.218  35.985  0.00  0.00     0.040 H 
ATOM     13  H11 B65 d          17.000  50.431  36.133  0.00  0.00     0.040 H 
BRANCH  11  14
ATOM     14  CAP B65 d          18.855  51.467  36.491  0.00  0.00    -0.059 C 
ATOM     15  H12 B65 d          19.219  50.802  35.694  0.00  0.00     0.033 H 
ATOM     16  H13 B65 d          19.286  51.154  37.454  0.00  0.00     0.033 H 
BRANCH  14  17
ATOM     17  CAR B65 d          19.274  52.905  36.187  0.00  0.00    -0.034 C 
ATOM     18  H14 B65 d          18.908  53.174  35.185  0.00  0.00     0.036 H 
ATOM     19  H15 B65 d          20.372  52.962  36.204  0.00  0.00     0.036 H 
BRANCH  17  20
ATOM     20  CAW B65 d          18.716  53.910  37.199  0.00  0.00     0.169 C 
ATOM     21  H16 B65 d          17.790  53.500  37.628  0.00  0.00     0.090 H 
BRANCH  20  22
ATOM     22  PAX B65 d          18.328  55.515  36.392  0.00  0.00     0.281 P 
ATOM     23  OAB B65 d          17.491  55.185  35.057  0.00  0.00    -0.639 OA
ATOM     24  OAC B65 d          17.326  56.282  37.395  0.00  0.00    -0.639 OA
ATOM     25  OAA B65 d          19.544  56.310  36.102  0.00  0.00    -0.639 OA
ENDBRANCH  20  22
BRANCH  20  26
ATOM     26  SAY B65 d          19.933  54.157  38.541  0.00  0.00     0.119 S 
ATOM     27  OAF B65 d          21.137  53.450  38.227  0.00  0.00    -0.594 OA
ATOM     28  OAE B65 d          19.378  53.633  39.831  0.00  0.00    -0.594 OA
ATOM     29  OAD B65 d          20.213  55.625  38.699  0.00  0.00    -0.594 OA
ENDBRANCH  20  26
ENDBRANCH  17  20
ENDBRANCH  14  17
ENDBRANCH  11  14
ENDBRANCH   6  11
BRANCH   1  30
ATOM     30  OAS B65 d          14.018  52.984  39.744  0.00  0.00    -0.311 OA
BRANCH  30  31
ATOM     31  CAU B65 d          14.059  54.084  40.550  0.00  0.00     0.076 A 
ATOM     32  CAL B65 d          14.975  55.093  40.303  0.00  0.00    -0.050 A 
ATOM     33  CAH B65 d          14.888  56.290  41.019  0.00  0.00    -0.080 A 
ATOM     34  H1  B65 d          15.752  54.956  39.559  0.00  0.00     0.087 H 
ATOM     35  CAG B65 d          13.893  56.466  41.973  0.00  0.00    -0.083 A 
ATOM     36  H2  B65 d          15.600  57.085  40.829  0.00  0.00     0.083 H 
ATOM     37  CAI B65 d          12.981  55.450  42.221  0.00  0.00    -0.080 A 
ATOM     38  H3  B65 d          13.830  57.397  42.525  0.00  0.00     0.083 H 
ATOM     39  CAM B65 d          13.067  54.254  41.510  0.00  0.00    -0.050 A 
ATOM     40  H4  B65 d          12.205  55.587  42.964  0.00  0.00     0.083 H 
ATOM     41  H5  B65 d          12.360  53.456  41.705  0.00  0.00     0.087 H 
ENDBRANCH  30  31
ENDBRANCH   1  30
TORSDOF 8
ENDMDL
MODEL 4
REMARK VINA RESULT:      -8.4      1.751      2.822
REMARK  8 active torsions:
REMARK  status: ('A' for Active; 'I' for Inactive)
REMARK    1  A    between atoms: CAU_6  and  OAS_7 
REMARK    2  A    between atoms: OAS_7  and  CAV_8 
REMARK    3  A    between atoms: CAT_13  and  CAQ_14 
REMARK    4  A    between atoms: CAQ_14  and  CAP_15 
REMARK    5  A    between atoms: CAP_15  and  CAR_16 
REMARK    6  A    between atoms: CAR_16  and  CAW_17 
REMARK    7  A    between atoms: CAW_17  and  PAX_18 
REMARK    8  A    between atoms: CAW_17  and  SAY_22 
ROOT
ATOM      1  CAV B65 d          15.335  52.483  39.257  0.00  0.00     0.076 A 
ATOM      2  CAO B65 d          15.921  52.376  37.997  0.00  0.00    -0.044 A 
ATOM      3  CAN B65 d          15.847  51.748  40.319  0.00  0.00    -0.050 A 
ATOM      4  CAJ B65 d          16.934  50.907  40.111  0.00  0.00    -0.080 A 
ATOM      5  CAK B65 d          17.511  50.794  38.849  0.00  0.00    -0.077 A 
ATOM      6  CAT B65 d          16.999  51.532  37.787  0.00  0.00    -0.056 A 
ATOM      7  H6  B65 d          15.529  52.959  37.173  0.00  0.00     0.088 H 
ATOM      8  H7  B65 d          15.402  51.830  41.303  0.00  0.00     0.087 H 
ATOM      9  H8  B65 d          17.336  50.334  40.939  0.00  0.00     0.083 H 
ATOM     10  H9  B65 d          18.355  50.132  38.694  0.00  0.00     0.084 H 
ENDROOT
BRANCH   6  11
ATOM     11  CAQ B65 d          17.572  51.394  36.372  0.00  0.00    -0.041 C 
ATOM     12  H10 B65 d          17.378  52.323  35.816  0.00  0.00     0.040 H 
ATOM     13  H11 B65 d          17.074  50.554  35.867  0.00  0.00     0.040 H 
BRANCH  11  14
ATOM     14  CAP B65 d          19.081  51.135  36.394  0.00  0.00    -0.059 C 
ATOM     15  H12 B65 d          19.387  50.669  35.446  0.00  0.00     0.033 H 
ATOM     16  H13 B65 d          19.325  50.462  37.230  0.00  0.00     0.033 H 
BRANCH  14  17
ATOM     17  CAR B65 d          19.820  52.461  36.573  0.00  0.00    -0.034 C 
ATOM     18  H14 B65 d          19.091  53.283  36.507  0.00  0.00     0.036 H 
ATOM     19  H15 B65 d          20.560  52.562  35.767  0.00  0.00     0.036 H 
BRANCH  17  20
ATOM     20  CAW B65 d          20.545  52.557  37.919  0.00  0.00     0.169 C 
ATOM     21  H16 B65 d          20.171  51.760  38.578  0.00  0.00     0.090 H 
BRANCH  20  22
ATOM     22  PAX B65 d          20.233  54.179  38.725  0.00  0.00     0.281 P 
ATOM     23  OAB B65 d          20.232  55.293  37.563  0.00  0.00    -0.639 OA
ATOM     24  OAC B65 d          18.731  54.103  39.303  0.00  0.00    -0.639 OA
ATOM     25  OAA B65 d          21.224  54.483  39.784  0.00  0.00    -0.639 OA
ENDBRANCH  20  22
BRANCH  20  26
ATOM     26  SAY B65 d          22.339  52.317  37.658  0.00  0.00     0.119 S 
ATOM     27  OAF B65 d          23.042  53.487  38.088  0.00  0.00    -0.594 OA
ATOM     28  OAE B65 d          22.613  52.087  36.203  0.00  0.00    -0.594 OA
ATOM     29  OAD B65 d          22.802  51.113  38.430  0.00  0.00    -0.594 OA
ENDBRANCH  20  26
ENDBRANCH  17  20
ENDBRANCH  14  17
ENDBRANCH  11  14
ENDBRANCH   6  11
BRANCH   1  30
ATOM     30  OAS B65 d          14.200  53.222  39.355  0.00  0.00    -0.311 OA
BRANCH  30  31
ATOM     31  CAU B65 d          14.180  54.175  40.331  0.00  0.00     0.076 A 
ATOM     32  CAL B65 d          15.048  55.252  40.268  0.00  0.00    -0.050 A 
ATOM     33  CAH B65 d          14.896  56.309  41.169  0.00  0.00    -0.080 A 
ATOM     34  H1  B65 d          15.837  55.276  39.525  0.00  0.00     0.087 H 
ATOM     35  CAG B65 d          13.886  56.279  42.123  0.00  0.00    -0.083 A 
ATOM     36  H2  B65 d          15.571  57.157  41.124  0.00  0.00     0.083 H 
ATOM     37  CAI B65 d          13.022  55.196  42.185  0.00  0.00    -0.080 A 
ATOM     38  H3  B65 d          13.772  57.103  42.818  0.00  0.00     0.083 H 
ATOM     39  CAM B65 d          13.173  54.138  41.289  0.00  0.00    -0.050 A 
ATOM     40  H4  B65 d          12.233  55.171  42.928  0.00  0.00     0.083 H 
ATOM     41  H5  B65 d          12.503  53.287  41.339  0.00  0.00     0.087 H 
ENDBRANCH  30  31
ENDBRANCH   1  30
TORSDOF 8
ENDMDL
MODEL 5
REMARK VINA RESULT:      -8.3      2.149      3.468
REMARK  8 active torsions:
REMARK  status: ('A' for Active; 'I' for Inactive)
REMARK    1  A    between atoms: CAU_6  and  OAS_7 
REMARK    2  A    between atoms: OAS_7  and  CAV_8 
REMARK    3  A    between atoms: CAT_13  and  CAQ_14 
REMARK    4  A    between atoms: CAQ_14  and  CAP_15 
REMARK    5  A    between atoms: CAP_15  and  CAR_16 
REMARK    6  A    between atoms: CAR_16  and  CAW_17 
REMARK    7  A    between atoms: CAW_17  and  PAX_18 
REMARK    8  A    between atoms: CAW_17  and  SAY_22 
ROOT
ATOM      1  CAV B65 d          15.637  54.969  39.004  0.00  0.00     0.076 A 
ATOM      2  CAO B65 d          16.159  53.725  38.659  0.00  0.00    -0.044 A 
ATOM      3  CAN B65 d          15.024  55.751  38.032  0.00  0.00    -0.050 A 
ATOM      4  CAJ B65 d          14.946  55.286  36.725  0.00  0.00    -0.080 A 
ATOM      5  CAK B65 d          15.479  54.046  36.381  0.00  0.00    -0.077 A 
ATOM      6  CAT B65 d          16.089  53.263  37.355  0.00  0.00    -0.056 A 
ATOM      7  H6  B65 d          16.626  53.110  39.420  0.00  0.00     0.088 H 
ATOM      8  H7  B65 d          14.609  56.718  38.292  0.00  0.00     0.087 H 
ATOM      9  H8  B65 d          14.466  55.894  35.966  0.00  0.00     0.083 H 
ATOM     10  H9  B65 d          15.418  53.693  35.359  0.00  0.00     0.084 H 
ENDROOT
BRANCH   6  11
ATOM     11  CAQ B65 d          16.735  51.918  37.005  0.00  0.00    -0.041 C 
ATOM     12  H10 B65 d          16.041  51.342  36.376  0.00  0.00     0.040 H 
ATOM     13  H11 B65 d          16.932  51.364  37.935  0.00  0.00     0.040 H 
BRANCH  11  14
ATOM     14  CAP B65 d          18.054  52.102  36.249  0.00  0.00    -0.059 C 
ATOM     15  H12 B65 d          18.152  53.151  35.932  0.00  0.00     0.033 H 
ATOM     16  H13 B65 d          18.063  51.448  35.364  0.00  0.00     0.033 H 
BRANCH  14  17
ATOM     17  CAR B65 d          19.220  51.735  37.167  0.00  0.00    -0.034 C 
ATOM     18  H14 B65 d          19.475  50.676  37.006  0.00  0.00     0.036 H 
ATOM     19  H15 B65 d          18.906  51.882  38.210  0.00  0.00     0.036 H 
BRANCH  17  20
ATOM     20  CAW B65 d          20.467  52.584  36.906  0.00  0.00     0.169 C 
ATOM     21  H16 B65 d          20.378  53.046  35.912  0.00  0.00     0.090 H 
BRANCH  20  22
ATOM     22  PAX B65 d          21.989  51.554  36.939  0.00  0.00     0.281 P 
ATOM     23  OAB B65 d          21.744  50.315  35.942  0.00  0.00    -0.639 OA
ATOM     24  OAC B65 d          23.150  52.460  36.286  0.00  0.00    -0.639 OA
ATOM     25  OAA B65 d          22.336  51.103  38.308  0.00  0.00    -0.639 OA
ENDBRANCH  20  22
BRANCH  20  26
ATOM     26  SAY B65 d          20.573  53.906  38.166  0.00  0.00     0.119 S 
ATOM     27  OAF B65 d          19.770  53.550  39.296  0.00  0.00    -0.594 OA
ATOM     28  OAE B65 d          20.069  55.195  37.592  0.00  0.00    -0.594 OA
ATOM     29  OAD B65 d          22.006  54.091  38.579  0.00  0.00    -0.594 OA
ENDBRANCH  20  26
ENDBRANCH  17  20
ENDBRANCH  14  17
ENDBRANCH  11  14
ENDBRANCH   6  11
BRANCH   1  30
ATOM     30  OAS B65 d          15.864  55.412  40.267  0.00  0.00    -0.311 OA
BRANCH  30  31
ATOM     31  CAU B65 d          14.785  55.443  41.101  0.00  0.00     0.076 A 
ATOM     32  CAL B65 d          14.550  56.554  41.893  0.00  0.00    -0.050 A 
ATOM     33  CAH B65 d          13.350  56.650  42.604  0.00  0.00    -0.080 A 
ATOM     34  H1  B65 d          15.290  57.343  41.962  0.00  0.00     0.087 H 
ATOM     35  CAG B65 d          12.401  55.638  42.517  0.00  0.00    -0.083 A 
ATOM     36  H2  B65 d          13.159  57.518  43.224  0.00  0.00     0.083 H 
ATOM     37  CAI B65 d          12.643  54.525  41.726  0.00  0.00    -0.080 A 
ATOM     38  H3  B65 d          11.471  55.718  43.070  0.00  0.00     0.083 H 
ATOM     39  CAM B65 d          13.840  54.426  41.018  0.00  0.00    -0.050 A 
ATOM     40  H4  B65 d          11.903  53.736  41.657  0.00  0.00     0.083 H 
ATOM     41  H5  B65 d          14.035  53.554  40.404  0.00  0.00     0.087 H 
ENDBRANCH  30  31
ENDBRANCH   1  30
TORSDOF 8
ENDMDL
MODEL 6
REMARK VINA RESULT:      -8.2      2.771      4.189
REMARK  8 active torsions:
REMARK  status: ('A' for Active; 'I' for Inactive)
REMARK    1  A    between atoms: CAU_6  and  OAS_7 
REMARK    2  A    between atoms: OAS_7  and  CAV_8 
REMARK    3  A    between atoms: CAT_13  and  CAQ_14 
REMARK    4  A    between atoms: CAQ_14  and  CAP_15 
REMARK    5  A    between atoms: CAP_15  and  CAR_16 
REMARK    6  A    between atoms: CAR_16  and  CAW_17 
REMARK    7  A    between atoms: CAW_17  and  PAX_18 
REMARK    8  A    between atoms: CAW_17  and  SAY_22 
ROOT
ATOM      1  CAV B65 d          14.987  56.294  38.969  0.00  0.00     0.076 A 
ATOM      2  CAO B65 d          16.094  55.745  38.324  0.00  0.00    -0.044 A 
ATOM      3  CAN B65 d          13.879  56.679  38.226  0.00  0.00    -0.050 A 
ATOM      4  CAJ B65 d          13.888  56.521  36.846  0.00  0.00    -0.080 A 
ATOM      5  CAK B65 d          15.000  55.982  36.202  0.00  0.00    -0.077 A 
ATOM      6  CAT B65 d          16.108  55.594  36.947  0.00  0.00    -0.056 A 
ATOM      7  H6  B65 d          16.953  55.433  38.906  0.00  0.00     0.088 H 
ATOM      8  H7  B65 d          13.011  57.101  38.720  0.00  0.00     0.087 H 
ATOM      9  H8  B65 d          13.023  56.819  36.265  0.00  0.00     0.083 H 
ATOM     10  H9  B65 d          15.000  55.866  35.125  0.00  0.00     0.084 H 
ENDROOT
BRANCH   6  11
ATOM     11  CAQ B65 d          17.370  55.048  36.270  0.00  0.00    -0.041 C 
ATOM     12  H10 B65 d          17.407  55.417  35.235  0.00  0.00     0.040 H 
ATOM     13  H11 B65 d          17.325  53.949  36.266  0.00  0.00     0.040 H 
BRANCH  11  14
ATOM     14  CAP B65 d          18.641  55.489  37.001  0.00  0.00    -0.059 C 
ATOM     15  H12 B65 d          18.374  56.168  37.825  0.00  0.00     0.033 H 
ATOM     16  H13 B65 d          19.306  56.012  36.297  0.00  0.00     0.033 H 
BRANCH  14  17
ATOM     17  CAR B65 d          19.356  54.261  37.562  0.00  0.00    -0.034 C 
ATOM     18  H14 B65 d          19.395  54.347  38.659  0.00  0.00     0.036 H 
ATOM     19  H15 B65 d          20.379  54.235  37.160  0.00  0.00     0.036 H 
BRANCH  17  20
ATOM     20  CAW B65 d          18.652  52.950  37.199  0.00  0.00     0.169 C 
ATOM     21  H16 B65 d          17.846  53.169  36.484  0.00  0.00     0.090 H 
BRANCH  20  22
ATOM     22  PAX B65 d          17.917  52.158  38.686  0.00  0.00     0.281 P 
ATOM     23  OAB B65 d          18.408  53.003  39.965  0.00  0.00    -0.639 OA
ATOM     24  OAC B65 d          16.326  52.378  38.561  0.00  0.00    -0.639 OA
ATOM     25  OAA B65 d          18.276  50.724  38.798  0.00  0.00    -0.639 OA
ENDBRANCH  20  22
BRANCH  20  26
ATOM     26  SAY B65 d          19.853  51.818  36.410  0.00  0.00     0.119 S 
ATOM     27  OAF B65 d          20.675  52.556  35.500  0.00  0.00    -0.594 OA
ATOM     28  OAE B65 d          19.123  50.749  35.657  0.00  0.00    -0.594 OA
ATOM     29  OAD B65 d          20.699  51.167  37.470  0.00  0.00    -0.594 OA
ENDBRANCH  20  26
ENDBRANCH  17  20
ENDBRANCH  14  17
ENDBRANCH  11  14
ENDBRANCH   6  11
BRANCH   1  30
ATOM     30  OAS B65 d          15.101  56.538  40.301  0.00  0.00    -0.311 OA
BRANCH  30  31
ATOM     31  CAU B65 d          14.192  55.919  41.108  0.00  0.00     0.076 A 
ATOM     32  CAL B65 d          13.547  56.633  42.104  0.00  0.00    -0.050 A 
ATOM     33  CAH B65 d          12.493  56.040  42.803  0.00  0.00    -0.080 A 
ATOM     34  H1  B65 d          13.858  57.645  42.341  0.00  0.00     0.087 H 
ATOM     35  CAG B65 d          12.095  54.742  42.502  0.00  0.00    -0.083 A 
ATOM     36  H2  B65 d          11.983  56.594  43.582  0.00  0.00     0.083 H 
ATOM     37  CAI B65 d          12.746  54.029  41.506  0.00  0.00    -0.080 A 
ATOM     38  H3  B65 d          11.275  54.287  43.046  0.00  0.00     0.083 H 
ATOM     39  CAM B65 d          13.801  54.619  40.810  0.00  0.00    -0.050 A 
ATOM     40  H4  B65 d          12.437  53.018  41.271  0.00  0.00     0.083 H 
ATOM     41  H5  B65 d          14.317  54.062  40.035  0.00  0.00     0.087 H 
ENDBRANCH  30  31
ENDBRANCH   1  30
TORSDOF 8
ENDMDL
MODEL 7
REMARK VINA RESULT:      -8.2      2.608      4.316
REMARK  8 active torsions:
REMARK  status: ('A' for Active; 'I' for Inactive)
REMARK    1  A    between atoms: CAU_6  and  OAS_7 
REMARK    2  A    between atoms: OAS_7  and  CAV_8 
REMARK    3  A    between atoms: CAT_13  and  CAQ_14 
REMARK    4  A    between atoms: CAQ_14  and  CAP_15 
REMARK    5  A    between atoms: CAP_15  and  CAR_16 
REMARK    6  A    between atoms: CAR_16  and  CAW_17 
REMARK    7  A    between atoms: CAW_17  and  PAX_18 
REMARK    8  A    between atoms: CAW_17  and  SAY_22 
ROOT
ATOM      1  CAV B65 d          14.966  56.585  38.616  0.00  0.00     0.076 A 
ATOM      2  CAO B65 d          16.102  56.551  37.809  0.00  0.00    -0.044 A 
ATOM      3  CAN B65 d          13.708  56.645  38.030  0.00  0.00    -0.050 A 
ATOM      4  CAJ B65 d          13.596  56.679  36.646  0.00  0.00    -0.080 A 
ATOM      5  CAK B65 d          14.733  56.656  35.842  0.00  0.00    -0.077 A 
ATOM      6  CAT B65 d          15.992  56.593  36.429  0.00  0.00    -0.056 A 
ATOM      7  H6  B65 d          17.083  56.491  38.267  0.00  0.00     0.088 H 
ATOM      8  H7  B65 d          12.819  56.666  38.650  0.00  0.00     0.087 H 
ATOM      9  H8  B65 d          12.614  56.725  36.187  0.00  0.00     0.083 H 
ATOM     10  H9  B65 d          14.637  56.688  34.763  0.00  0.00     0.084 H 
ENDROOT
BRANCH   6  11
ATOM     11  CAQ B65 d          17.268  56.621  35.580  0.00  0.00    -0.041 C 
ATOM     12  H10 B65 d          17.665  57.646  35.568  0.00  0.00     0.040 H 
ATOM     13  H11 B65 d          17.020  56.311  34.555  0.00  0.00     0.040 H 
BRANCH  11  14
ATOM     14  CAP B65 d          18.340  55.680  36.137  0.00  0.00    -0.059 C 
ATOM     15  H12 B65 d          18.518  55.914  37.197  0.00  0.00     0.033 H 
ATOM     16  H13 B65 d          19.274  55.811  35.571  0.00  0.00     0.033 H 
BRANCH  14  17
ATOM     17  CAR B65 d          17.863  54.234  36.007  0.00  0.00    -0.034 C 
ATOM     18  H14 B65 d          18.410  53.755  35.181  0.00  0.00     0.036 H 
ATOM     19  H15 B65 d          16.787  54.238  35.780  0.00  0.00     0.036 H 
BRANCH  17  20
ATOM     20  CAW B65 d          18.091  53.419  37.283  0.00  0.00     0.169 C 
ATOM     21  H16 B65 d          18.315  54.110  38.108  0.00  0.00     0.090 H 
BRANCH  20  22
ATOM     22  PAX B65 d          19.508  52.264  37.086  0.00  0.00     0.281 P 
ATOM     23  OAB B65 d          19.637  51.935  35.515  0.00  0.00    -0.639 OA
ATOM     24  OAC B65 d          20.821  53.102  37.499  0.00  0.00    -0.639 OA
ATOM     25  OAA B65 d          19.352  51.034  37.899  0.00  0.00    -0.639 OA
ENDBRANCH  20  22
BRANCH  20  26
ATOM     26  SAY B65 d          16.570  52.487  37.687  0.00  0.00     0.119 S 
ATOM     27  OAF B65 d          15.429  53.221  37.231  0.00  0.00    -0.594 OA
ATOM     28  OAE B65 d          16.471  52.296  39.169  0.00  0.00    -0.594 OA
ATOM     29  OAD B65 d          16.621  51.136  37.030  0.00  0.00    -0.594 OA
ENDBRANCH  20  26
ENDBRANCH  17  20
ENDBRANCH  14  17
ENDBRANCH  11  14
ENDBRANCH   6  11
BRANCH   1  30
ATOM     30  OAS B65 d          15.158  56.679  39.958  0.00  0.00    -0.311 OA
BRANCH  30  31
ATOM     31  CAU B65 d          14.358  55.899  40.739  0.00  0.00     0.076 A 
ATOM     32  CAL B65 d          13.618  56.467  41.763  0.00  0.00    -0.050 A 
ATOM     33  CAH B65 d          12.669  55.693  42.436  0.00  0.00    -0.080 A 
ATOM     34  H1  B65 d          13.774  57.504  42.039  0.00  0.00     0.087 H 
ATOM     35  CAG B65 d          12.470  54.363  42.084  0.00  0.00    -0.083 A 
ATOM     36  H2  B65 d          12.085  56.133  43.237  0.00  0.00     0.083 H 
ATOM     37  CAI B65 d          13.217  53.798  41.061  0.00  0.00    -0.080 A 
ATOM     38  H3  B65 d          11.732  53.768  42.609  0.00  0.00     0.083 H 
ATOM     39  CAM B65 d          14.167  54.567  40.389  0.00  0.00    -0.050 A 
ATOM     40  H4  B65 d          13.063  52.761  40.785  0.00  0.00     0.083 H 
ATOM     41  H5  B65 d          14.756  54.126  39.594  0.00  0.00     0.087 H 
ENDBRANCH  30  31
ENDBRANCH   1  30
TORSDOF 8
ENDMDL
MODEL 8
REMARK VINA RESULT:      -8.2      1.761      4.447
REMARK  8 active torsions:
REMARK  status: ('A' for Active; 'I' for Inactive)
REMARK    1  A    between atoms: CAU_6  and  OAS_7 
REMARK    2  A    between atoms: OAS_7  and  CAV_8 
REMARK    3  A    between atoms: CAT_13  and  CAQ_14 
REMARK    4  A    between atoms: CAQ_14  and  CAP_15 
REMARK    5  A    between atoms: CAP_15  and  CAR_16 
REMARK    6  A    between atoms: CAR_16  and  CAW_17 
REMARK    7  A    between atoms: CAW_17  and  PAX_18 
REMARK    8  A    between atoms: CAW_17  and  SAY_22 
ROOT
ATOM      1  CAV B65 d          14.984  54.151  39.671  0.00  0.00     0.076 A 
ATOM      2  CAO B65 d          15.515  54.317  38.393  0.00  0.00    -0.044 A 
ATOM      3  CAN B65 d          14.506  55.256  40.366  0.00  0.00    -0.050 A 
ATOM      4  CAJ B65 d          14.571  56.515  39.782  0.00  0.00    -0.080 A 
ATOM      5  CAK B65 d          15.112  56.679  38.509  0.00  0.00    -0.077 A 
ATOM      6  CAT B65 d          15.587  55.573  37.813  0.00  0.00    -0.056 A 
ATOM      7  H6  B65 d          15.875  53.454  37.847  0.00  0.00     0.088 H 
ATOM      8  H7  B65 d          14.086  55.135  41.357  0.00  0.00     0.087 H 
ATOM      9  H8  B65 d          14.197  57.377  40.322  0.00  0.00     0.083 H 
ATOM     10  H9  B65 d          15.163  57.666  38.064  0.00  0.00     0.084 H 
ENDROOT
BRANCH   6  11
ATOM     11  CAQ B65 d          16.239  55.721  36.434  0.00  0.00    -0.041 C 
ATOM     12  H10 B65 d          17.105  56.393  36.519  0.00  0.00     0.040 H 
ATOM     13  H11 B65 d          15.506  56.154  35.738  0.00  0.00     0.040 H 
BRANCH  11  14
ATOM     14  CAP B65 d          16.710  54.373  35.883  0.00  0.00    -0.059 C 
ATOM     15  H12 B65 d          16.410  54.282  34.828  0.00  0.00     0.033 H 
ATOM     16  H13 B65 d          16.253  53.558  36.465  0.00  0.00     0.033 H 
BRANCH  14  17
ATOM     17  CAR B65 d          18.232  54.284  35.989  0.00  0.00    -0.034 C 
ATOM     18  H14 B65 d          18.633  55.296  36.158  0.00  0.00     0.036 H 
ATOM     19  H15 B65 d          18.628  53.887  35.044  0.00  0.00     0.036 H 
BRANCH  17  20
ATOM     20  CAW B65 d          18.693  53.378  37.134  0.00  0.00     0.169 C 
ATOM     21  H16 B65 d          17.806  52.978  37.647  0.00  0.00     0.090 H 
BRANCH  20  22
ATOM     22  PAX B65 d          19.703  54.312  38.353  0.00  0.00     0.281 P 
ATOM     23  OAB B65 d          19.712  55.851  37.881  0.00  0.00    -0.639 OA
ATOM     24  OAC B65 d          18.886  54.252  39.741  0.00  0.00    -0.639 OA
ATOM     25  OAA B65 d          21.074  53.766  38.488  0.00  0.00    -0.639 OA
ENDBRANCH  20  22
BRANCH  20  26
ATOM     26  SAY B65 d          19.660  51.984  36.450  0.00  0.00     0.119 S 
ATOM     27  OAF B65 d          20.764  52.497  35.696  0.00  0.00    -0.594 OA
ATOM     28  OAE B65 d          18.793  51.159  35.550  0.00  0.00    -0.594 OA
ATOM     29  OAD B65 d          20.151  51.115  37.574  0.00  0.00    -0.594 OA
ENDBRANCH  20  26
ENDBRANCH  17  20
ENDBRANCH  14  17
ENDBRANCH  11  14
ENDBRANCH   6  11
BRANCH   1  30
ATOM     30  OAS B65 d          15.072  52.915  40.226  0.00  0.00    -0.311 OA
BRANCH  30  31
ATOM     31  CAU B65 d          15.748  51.975  39.505  0.00  0.00     0.076 A 
ATOM     32  CAL B65 d          16.748  51.226  40.102  0.00  0.00    -0.050 A 
ATOM     33  CAH B65 d          17.305  50.148  39.410  0.00  0.00    -0.080 A 
ATOM     34  H1  B65 d          17.096  51.475  41.099  0.00  0.00     0.087 H 
ATOM     35  CAG B65 d          16.861  49.829  38.132  0.00  0.00    -0.083 A 
ATOM     36  H2  B65 d          18.087  49.556  39.873  0.00  0.00     0.083 H 
ATOM     37  CAI B65 d          15.862  50.585  37.536  0.00  0.00    -0.080 A 
ATOM     38  H3  B65 d          17.296  48.991  37.601  0.00  0.00     0.083 H 
ATOM     39  CAM B65 d          15.306  51.664  38.224  0.00  0.00    -0.050 A 
ATOM     40  H4  B65 d          15.514  50.338  36.540  0.00  0.00     0.083 H 
ATOM     41  H5  B65 d          14.529  52.260  37.758  0.00  0.00     0.087 H 
ENDBRANCH  30  31
ENDBRANCH   1  30
TORSDOF 8
ENDMDL
MODEL 9
REMARK VINA RESULT:      -7.8      1.907      2.832
REMARK  8 active torsions:
REMARK  status: ('A' for Active; 'I' for Inactive)
REMARK    1  A    between atoms: CAU_6  and  OAS_7 
REMARK    2  A    between atoms: OAS_7  and  CAV_8 
REMARK    3  A    between atoms: CAT_13  and  CAQ_14 
REMARK    4  A    between atoms: CAQ_14  and  CAP_15 
REMARK    5  A    between atoms: CAP_15  and  CAR_16 
REMARK    6  A    between atoms: CAR_16  and  CAW_17 
REMARK    7  A    between atoms: CAW_17  and  PAX_18 
REMARK    8  A    between atoms: CAW_17  and  SAY_22 
ROOT
ATOM      1  CAV B65 d          15.069  53.312  39.258  0.00  0.00     0.076 A 
ATOM      2  CAO B65 d          15.717  53.258  38.026  0.00  0.00    -0.044 A 
ATOM      3  CAN B65 d          15.391  52.389  40.245  0.00  0.00    -0.050 A 
ATOM      4  CAJ B65 d          16.350  51.416  39.990  0.00  0.00    -0.080 A 
ATOM      5  CAK B65 d          16.988  51.358  38.753  0.00  0.00    -0.077 A 
ATOM      6  CAT B65 d          16.667  52.284  37.767  0.00  0.00    -0.056 A 
ATOM      7  H6  B65 d          15.475  53.986  37.261  0.00  0.00     0.088 H 
ATOM      8  H7  B65 d          14.897  52.427  41.209  0.00  0.00     0.087 H 
ATOM      9  H8  B65 d          16.604  50.696  40.760  0.00  0.00     0.083 H 
ATOM     10  H9  B65 d          17.731  50.593  38.560  0.00  0.00     0.084 H 
ENDROOT
BRANCH   6  11
ATOM     11  CAQ B65 d          17.308  52.219  36.375  0.00  0.00    -0.041 C 
ATOM     12  H10 B65 d          17.830  53.167  36.179  0.00  0.00     0.040 H 
ATOM     13  H11 B65 d          16.516  52.075  35.626  0.00  0.00     0.040 H 
BRANCH  11  14
ATOM     14  CAP B65 d          18.310  51.067  36.267  0.00  0.00    -0.059 C 
ATOM     15  H12 B65 d          18.765  51.070  35.265  0.00  0.00     0.033 H 
ATOM     16  H13 B65 d          17.790  50.111  36.431  0.00  0.00     0.033 H 
BRANCH  14  17
ATOM     17  CAR B65 d          19.401  51.243  37.322  0.00  0.00    -0.034 C 
ATOM     18  H14 B65 d          19.869  50.265  37.512  0.00  0.00     0.036 H 
ATOM     19  H15 B65 d          18.938  51.613  38.248  0.00  0.00     0.036 H 
BRANCH  17  20
ATOM     20  CAW B65 d          20.489  52.231  36.890  0.00  0.00     0.169 C 
ATOM     21  H16 B65 d          20.234  52.622  35.894  0.00  0.00     0.090 H 
BRANCH  20  22
ATOM     22  PAX B65 d          22.130  51.408  36.794  0.00  0.00     0.281 P 
ATOM     23  OAB B65 d          22.056  50.341  35.591  0.00  0.00    -0.639 OA
ATOM     24  OAC B65 d          23.171  52.552  36.344  0.00  0.00    -0.639 OA
ATOM     25  OAA B65 d          22.519  50.772  38.076  0.00  0.00    -0.639 OA
ENDBRANCH  20  22
BRANCH  20  26
ATOM     26  SAY B65 d          20.549  53.622  38.076  0.00  0.00     0.119 S 
ATOM     27  OAF B65 d          19.596  53.397  39.120  0.00  0.00    -0.594 OA
ATOM     28  OAE B65 d          20.214  54.902  37.372  0.00  0.00    -0.594 OA
ATOM     29  OAD B65 d          21.935  53.735  38.646  0.00  0.00    -0.594 OA
ENDBRANCH  20  26
ENDBRANCH  17  20
ENDBRANCH  14  17
ENDBRANCH  11  14
ENDBRANCH   6  11
BRANCH   1  30
ATOM     30  OAS B65 d          14.055  54.205  39.390  0.00  0.00    -0.311 OA
BRANCH  30  31
ATOM     31  CAU B65 d          13.968  54.849  40.589  0.00  0.00     0.076 A 
ATOM     32  CAL B65 d          14.807  55.915  40.869  0.00  0.00    -0.050 A 
ATOM     33  CAH B65 d          14.588  56.678  42.019  0.00  0.00    -0.080 A 
ATOM     34  H1  B65 d          15.626  56.155  40.201  0.00  0.00     0.087 H 
ATOM     35  CAG B65 d          13.539  56.369  42.877  0.00  0.00    -0.083 A 
ATOM     36  H2  B65 d          15.240  57.515  42.243  0.00  0.00     0.083 H 
ATOM     37  CAI B65 d          12.704  55.298  42.595  0.00  0.00    -0.080 A 
ATOM     38  H3  B65 d          13.373  56.965  43.767  0.00  0.00     0.083 H 
ATOM     39  CAM B65 d          12.922  54.533  41.450  0.00  0.00    -0.050 A 
ATOM     40  H4  B65 d          11.886  55.056  43.263  0.00  0.00     0.083 H 
ATOM     41  H5  B65 d          12.275  53.691  41.229  0.00  0.00     0.087 H 
ENDBRANCH  30  31
ENDBRANCH   1  30
TORSDOF 8
ENDMDL
MODEL 10
REMARK VINA RESULT:      -7.8      2.654      3.803
REMARK  8 active torsions:
REMARK  status: ('A' for Active; 'I' for Inactive)
REMARK    1  A    between atoms: CAU_6  and  OAS_7 
REMARK    2  A    between atoms: OAS_7  and  CAV_8 
REMARK    3  A    between atoms: CAT_13  and  CAQ_14 
REMARK    4  A    between atoms: CAQ_14  and  CAP_15 
REMARK    5  A    between atoms: CAP_15  and  CAR_16 
REMARK    6  A    between atoms: CAR_16  and  CAW_17 
REMARK    7  A    between atoms: CAW_17  and  PAX_18 
REMARK    8  A    between atoms: CAW_17  and  SAY_22 
ROOT
ATOM      1  CAV B65 d          15.639  52.873  38.967  0.00  0.00     0.076 A 
ATOM      2  CAO B65 d          15.623  52.108  37.802  0.00  0.00    -0.044 A 
ATOM      3  CAN B65 d          16.207  52.352  40.123  0.00  0.00    -0.050 A 
ATOM      4  CAJ B65 d          16.744  51.071  40.108  0.00  0.00    -0.080 A 
ATOM      5  CAK B65 d          16.716  50.305  38.945  0.00  0.00    -0.077 A 
ATOM      6  CAT B65 d          16.151  50.828  37.787  0.00  0.00    -0.056 A 
ATOM      7  H6  B65 d          15.192  52.520  36.897  0.00  0.00     0.088 H 
ATOM      8  H7  B65 d          16.230  52.942  41.032  0.00  0.00     0.087 H 
ATOM      9  H8  B65 d          17.189  50.664  41.009  0.00  0.00     0.083 H 
ATOM     10  H9  B65 d          17.134  49.305  38.943  0.00  0.00     0.084 H 
ENDROOT
BRANCH   6  11
ATOM     11  CAQ B65 d          16.053  49.996  36.504  0.00  0.00    -0.041 C 
ATOM     12  H10 B65 d          15.375  50.503  35.801  0.00  0.00     0.040 H 
ATOM     13  H11 B65 d          15.648  49.004  36.752  0.00  0.00     0.040 H 
BRANCH  11  14
ATOM     14  CAP B65 d          17.419  49.821  35.836  0.00  0.00    -0.059 C 
ATOM     15  H12 B65 d          17.280  49.477  34.800  0.00  0.00     0.033 H 
ATOM     16  H13 B65 d          18.008  49.076  36.394  0.00  0.00     0.033 H 
BRANCH  14  17
ATOM     17  CAR B65 d          18.158  51.158  35.835  0.00  0.00    -0.034 C 
ATOM     18  H14 B65 d          17.649  51.843  36.530  0.00  0.00     0.036 H 
ATOM     19  H15 B65 d          18.126  51.577  34.819  0.00  0.00     0.036 H 
BRANCH  17  20
ATOM     20  CAW B65 d          19.623  51.025  36.264  0.00  0.00     0.169 C 
ATOM     21  H16 B65 d          19.715  50.164  36.941  0.00  0.00     0.090 H 
BRANCH  20  22
ATOM     22  PAX B65 d          20.192  52.531  37.151  0.00  0.00     0.281 P 
ATOM     23  OAB B65 d          19.823  53.795  36.224  0.00  0.00    -0.639 OA
ATOM     24  OAC B65 d          19.278  52.636  38.473  0.00  0.00    -0.639 OA
ATOM     25  OAA B65 d          21.638  52.484  37.473  0.00  0.00    -0.639 OA
ENDBRANCH  20  22
BRANCH  20  26
ATOM     26  SAY B65 d          20.661  50.732  34.787  0.00  0.00     0.119 S 
ATOM     27  OAF B65 d          20.808  51.956  34.059  0.00  0.00    -0.594 OA
ATOM     28  OAE B65 d          20.010  49.711  33.904  0.00  0.00    -0.594 OA
ATOM     29  OAD B65 d          22.005  50.212  35.215  0.00  0.00    -0.594 OA
ENDBRANCH  20  26
ENDBRANCH  17  20
ENDBRANCH  14  17
ENDBRANCH  11  14
ENDBRANCH   6  11
BRANCH   1  30
ATOM     30  OAS B65 d          14.982  54.061  38.941  0.00  0.00    -0.311 OA
BRANCH  30  31
ATOM     31  CAU B65 d          15.475  55.007  38.091  0.00  0.00     0.076 A 
ATOM     32  CAL B65 d          16.843  55.186  37.968  0.00  0.00    -0.050 A 
ATOM     33  CAH B65 d          17.338  56.026  36.968  0.00  0.00    -0.080 A 
ATOM     34  H1  B65 d          17.523  54.678  38.642  0.00  0.00     0.087 H 
ATOM     35  CAG B65 d          16.467  56.679  36.104  0.00  0.00    -0.083 A 
ATOM     36  H2  B65 d          18.408  56.169  36.864  0.00  0.00     0.083 H 
ATOM     37  CAI B65 d          15.097  56.501  36.234  0.00  0.00    -0.080 A 
ATOM     38  H3  B65 d          16.857  57.329  35.329  0.00  0.00     0.083 H 
ATOM     39  CAM B65 d          14.600  55.665  37.234  0.00  0.00    -0.050 A 
ATOM     40  H4  B65 d          14.417  57.009  35.562  0.00  0.00     0.083 H 
ATOM     41  H5  B65 d          13.530  55.528  37.342  0.00  0.00     0.087 H 
ENDBRANCH  30  31
ENDBRANCH   1  30
TORSDOF 8
ENDMDL
