MODEL 1
REMARK VINA RESULT:      -5.1      0.000      0.000
REMARK  5 active torsions:
REMARK  status: ('A' for Active; 'I' for Inactive)
REMARK    1  A    between atoms: C4_2  and  C2_3 
REMARK       I    between atoms: C4_2  and  N_7 
REMARK    2  A    between atoms: C2_3  and  C1_4 
REMARK    3  A    between atoms: C2_3  and  C3_6 
REMARK    4  A    between atoms: C1_4  and  S_5 
REMARK    5  A    between atoms: C8_8  and  C9_9 
ROOT
ATOM      1  O1  X8Z d          29.913   3.510 -43.384  0.00  0.00    -0.273 OA
ATOM      2  C4  X8Z d          28.895   4.236 -43.614  0.00  0.00     0.225 C 
ATOM      3  N   X8Z d          29.065   5.451 -44.181  0.00  0.00    -0.337 N 
ATOM      4  C8  X8Z d          30.430   5.991 -44.534  0.00  0.00     0.098 C 
ATOM      5  C5  X8Z d          28.009   6.470 -44.539  0.00  0.00    -0.001 C 
ATOM      6  C6  X8Z d          28.731   7.650 -45.077  0.00  0.00    -0.048 C 
ATOM      7  C7  X8Z d          30.181   7.296 -45.240  0.00  0.00    -0.035 C 
ATOM      8  H8  X8Z d          30.953   5.292 -45.203  0.00  0.00     0.089 H 
ATOM      9  H9  X8Z d          27.434   6.750 -43.644  0.00  0.00     0.064 H 
ATOM     10  H10 X8Z d          27.328   6.062 -45.300  0.00  0.00     0.064 H 
ATOM     11  H11 X8Z d          28.633   8.494 -44.378  0.00  0.00     0.035 H 
ATOM     12  H12 X8Z d          28.307   7.930 -46.053  0.00  0.00     0.035 H 
ATOM     13  H13 X8Z d          30.421   7.192 -46.309  0.00  0.00     0.036 H 
ATOM     14  H14 X8Z d          30.809   8.083 -44.797  0.00  0.00     0.036 H 
ENDROOT
BRANCH   2  15
ATOM     15  C2  X8Z d          27.511   3.710 -43.224  0.00  0.00     0.028 C 
ATOM     16  H1  X8Z d          26.778   3.962 -44.005  0.00  0.00     0.055 H 
BRANCH  15  17
ATOM     17  C1  X8Z d          27.594   2.184 -43.096  0.00  0.00    -0.015 C 
ATOM     18  H2  X8Z d          27.266   1.906 -42.083  0.00  0.00     0.049 H 
ATOM     19  H3  X8Z d          28.643   1.885 -43.237  0.00  0.00     0.049 H 
BRANCH  17  20
ATOM     20  S   X8Z d          26.591   1.280 -44.276  0.00  0.00    -0.181 SA
ATOM     21  H4  X8Z d          26.473   1.834 -45.110  0.00  0.00     0.101 HD
ENDBRANCH  17  20
ENDBRANCH  15  17
BRANCH  15  22
ATOM     22  C3  X8Z d          27.108   4.404 -41.913  0.00  0.00    -0.064 C 
ATOM     23  H5  X8Z d          26.209   5.014 -42.083  0.00  0.00     0.028 H 
ATOM     24  H6  X8Z d          27.931   5.050 -41.572  0.00  0.00     0.028 H 
ATOM     25  H7  X8Z d          26.897   3.645 -41.146  0.00  0.00     0.028 H 
ENDBRANCH  15  22
ENDBRANCH   2  15
BRANCH   4  26
ATOM     26  C9  X8Z d          31.281   6.209 -43.262  0.00  0.00     0.196 C 
ATOM     27  O3  X8Z d          30.864   6.826 -42.302  0.00  0.00    -0.646 OA
ATOM     28  O2  X8Z d          32.463   5.701 -43.266  0.00  0.00    -0.646 OA
ENDBRANCH   4  26
TORSDOF 5
ENDMDL
MODEL 2
REMARK VINA RESULT:      -4.5      2.580      4.655
REMARK  5 active torsions:
REMARK  status: ('A' for Active; 'I' for Inactive)
REMARK    1  A    between atoms: C4_2  and  C2_3 
REMARK       I    between atoms: C4_2  and  N_7 
REMARK    2  A    between atoms: C2_3  and  C1_4 
REMARK    3  A    between atoms: C2_3  and  C3_6 
REMARK    4  A    between atoms: C1_4  and  S_5 
REMARK    5  A    between atoms: C8_8  and  C9_9 
ROOT
ATOM      1  O1  X8Z d          30.812   4.888 -43.758  0.00  0.00    -0.273 OA
ATOM      2  C4  X8Z d          29.961   5.812 -43.958  0.00  0.00     0.225 C 
ATOM      3  N   X8Z d          28.701   5.660 -43.494  0.00  0.00    -0.337 N 
ATOM      4  C8  X8Z d          28.258   4.416 -42.761  0.00  0.00     0.098 C 
ATOM      5  C5  X8Z d          27.540   6.617 -43.617  0.00  0.00    -0.001 C 
ATOM      6  C6  X8Z d          26.374   5.943 -42.992  0.00  0.00    -0.048 C 
ATOM      7  C7  X8Z d          26.846   4.688 -42.317  0.00  0.00    -0.035 C 
ATOM      8  H8  X8Z d          28.903   4.240 -41.889  0.00  0.00     0.089 H 
ATOM      9  H9  X8Z d          27.334   6.830 -44.676  0.00  0.00     0.064 H 
ATOM     10  H10 X8Z d          27.763   7.556 -43.090  0.00  0.00     0.064 H 
ATOM     11  H11 X8Z d          25.633   5.691 -43.765  0.00  0.00     0.035 H 
ATOM     12  H12 X8Z d          25.915   6.612 -42.248  0.00  0.00     0.035 H 
ATOM     13  H13 X8Z d          26.819   4.819 -41.225  0.00  0.00     0.036 H 
ATOM     14  H14 X8Z d          26.198   3.846 -42.602  0.00  0.00     0.036 H 
ENDROOT
BRANCH   2  15
ATOM     15  C2  X8Z d          30.395   7.060 -44.732  0.00  0.00     0.028 C 
ATOM     16  H1  X8Z d          29.511   7.596 -45.109  0.00  0.00     0.055 H 
BRANCH  15  17
ATOM     17  C1  X8Z d          31.162   7.978 -43.774  0.00  0.00    -0.015 C 
ATOM     18  H2  X8Z d          31.183   8.988 -44.209  0.00  0.00     0.049 H 
ATOM     19  H3  X8Z d          32.190   7.596 -43.683  0.00  0.00     0.049 H 
BRANCH  17  20
ATOM     20  S   X8Z d          30.460   8.093 -42.128  0.00  0.00    -0.181 SA
ATOM     21  H4  X8Z d          30.812   7.339 -41.560  0.00  0.00     0.101 HD
ENDBRANCH  17  20
ENDBRANCH  15  17
BRANCH  15  22
ATOM     22  C3  X8Z d          31.243   6.588 -45.924  0.00  0.00    -0.064 C 
ATOM     23  H5  X8Z d          32.271   6.387 -45.586  0.00  0.00     0.028 H 
ATOM     24  H6  X8Z d          31.258   7.371 -46.697  0.00  0.00     0.028 H 
ATOM     25  H7  X8Z d          30.809   5.669 -46.343  0.00  0.00     0.028 H 
ENDBRANCH  15  22
ENDBRANCH   2  15
BRANCH   4  26
ATOM     26  C9  X8Z d          28.312   3.182 -43.691  0.00  0.00     0.196 C 
ATOM     27  O3  X8Z d          27.971   3.232 -44.856  0.00  0.00    -0.646 OA
ATOM     28  O2  X8Z d          28.741   2.087 -43.169  0.00  0.00    -0.646 OA
ENDBRANCH   4  26
TORSDOF 5
ENDMDL
MODEL 3
REMARK VINA RESULT:      -4.2      1.961      2.306
REMARK  5 active torsions:
REMARK  status: ('A' for Active; 'I' for Inactive)
REMARK    1  A    between atoms: C4_2  and  C2_3 
REMARK       I    between atoms: C4_2  and  N_7 
REMARK    2  A    between atoms: C2_3  and  C1_4 
REMARK    3  A    between atoms: C2_3  and  C3_6 
REMARK    4  A    between atoms: C1_4  and  S_5 
REMARK    5  A    between atoms: C8_8  and  C9_9 
ROOT
ATOM      1  O1  X8Z d          28.615   4.438 -43.586  0.00  0.00    -0.273 OA
ATOM      2  C4  X8Z d          28.475   5.683 -43.803  0.00  0.00     0.225 C 
ATOM      3  N   X8Z d          29.489   6.371 -44.374  0.00  0.00    -0.337 N 
ATOM      4  C8  X8Z d          30.798   5.716 -44.745  0.00  0.00     0.098 C 
ATOM      5  C5  X8Z d          29.542   7.840 -44.719  0.00  0.00    -0.001 C 
ATOM      6  C6  X8Z d          30.898   8.093 -45.267  0.00  0.00    -0.048 C 
ATOM      7  C7  X8Z d          31.598   6.778 -45.449  0.00  0.00    -0.035 C 
ATOM      8  H8  X8Z d          30.619   4.867 -45.420  0.00  0.00     0.089 H 
ATOM      9  H9  X8Z d          29.376   8.448 -43.818  0.00  0.00     0.064 H 
ATOM     10  H10 X8Z d          28.777   8.083 -45.471  0.00  0.00     0.064 H 
ATOM     11  H11 X8Z d          31.469   8.723 -44.568  0.00  0.00     0.035 H 
ATOM     12  H12 X8Z d          30.815   8.605 -46.238  0.00  0.00     0.035 H 
ATOM     13  H13 X8Z d          31.671   6.540 -46.520  0.00  0.00     0.036 H 
ATOM     14  H14 X8Z d          32.608   6.831 -45.015  0.00  0.00     0.036 H 
ENDROOT
BRANCH   2  15
ATOM     15  C2  X8Z d          27.164   6.361 -43.396  0.00  0.00     0.028 C 
ATOM     16  H1  X8Z d          26.654   6.761 -44.285  0.00  0.00     0.055 H 
BRANCH  15  17
ATOM     17  C1  X8Z d          26.264   5.311 -42.736  0.00  0.00    -0.015 C 
ATOM     18  H2  X8Z d          26.221   4.431 -43.396  0.00  0.00     0.049 H 
ATOM     19  H3  X8Z d          25.256   5.739 -42.630  0.00  0.00     0.049 H 
BRANCH  17  20
ATOM     20  S   X8Z d          26.813   4.767 -41.118  0.00  0.00    -0.181 SA
ATOM     21  H4  X8Z d          26.364   5.324 -40.407  0.00  0.00     0.101 HD
ENDBRANCH  17  20
ENDBRANCH  15  17
BRANCH  15  22
ATOM     22  C3  X8Z d          27.522   7.524 -42.456  0.00  0.00    -0.064 C 
ATOM     23  H5  X8Z d          27.933   7.123 -41.518  0.00  0.00     0.028 H 
ATOM     24  H6  X8Z d          26.617   8.111 -42.238  0.00  0.00     0.028 H 
ATOM     25  H7  X8Z d          28.270   8.169 -42.938  0.00  0.00     0.028 H 
ENDBRANCH  15  22
ENDBRANCH   2  15
BRANCH   4  26
ATOM     26  C9  X8Z d          31.539   5.216 -43.484  0.00  0.00     0.196 C 
ATOM     27  O3  X8Z d          31.592   5.870 -42.461  0.00  0.00    -0.646 OA
ATOM     28  O2  X8Z d          32.102   4.062 -43.567  0.00  0.00    -0.646 OA
ENDBRANCH   4  26
TORSDOF 5
ENDMDL
MODEL 4
REMARK VINA RESULT:      -3.9      2.421      4.415
REMARK  5 active torsions:
REMARK  status: ('A' for Active; 'I' for Inactive)
REMARK    1  A    between atoms: C4_2  and  C2_3 
REMARK       I    between atoms: C4_2  and  N_7 
REMARK    2  A    between atoms: C2_3  and  C1_4 
REMARK    3  A    between atoms: C2_3  and  C3_6 
REMARK    4  A    between atoms: C1_4  and  S_5 
REMARK    5  A    between atoms: C8_8  and  C9_9 
ROOT
ATOM      1  O1  X8Z d          30.983   4.171 -43.387  0.00  0.00    -0.273 OA
ATOM      2  C4  X8Z d          30.318   5.249 -43.498  0.00  0.00     0.225 C 
ATOM      3  N   X8Z d          29.029   5.273 -43.095  0.00  0.00    -0.337 N 
ATOM      4  C8  X8Z d          28.337   4.053 -42.536  0.00  0.00     0.098 C 
ATOM      5  C5  X8Z d          28.060   6.431 -43.135  0.00  0.00    -0.001 C 
ATOM      6  C6  X8Z d          26.763   5.910 -42.634  0.00  0.00    -0.048 C 
ATOM      7  C7  X8Z d          26.974   4.520 -42.105  0.00  0.00    -0.035 C 
ATOM      8  H8  X8Z d          28.895   3.664 -41.672  0.00  0.00     0.089 H 
ATOM      9  H9  X8Z d          27.950   6.799 -44.165  0.00  0.00     0.064 H 
ATOM     10  H10 X8Z d          28.416   7.247 -42.490  0.00  0.00     0.064 H 
ATOM     11  H11 X8Z d          26.032   5.886 -43.455  0.00  0.00     0.035 H 
ATOM     12  H12 X8Z d          26.390   6.560 -41.828  0.00  0.00     0.035 H 
ATOM     13  H13 X8Z d          26.912   4.527 -41.006  0.00  0.00     0.036 H 
ATOM     14  H14 X8Z d          26.204   3.848 -42.512  0.00  0.00     0.036 H 
ENDROOT
BRANCH   2  15
ATOM     15  C2  X8Z d          31.003   6.480 -44.099  0.00  0.00     0.028 C 
ATOM     16  H1  X8Z d          32.095   6.389 -44.001  0.00  0.00     0.055 H 
BRANCH  15  17
ATOM     17  C1  X8Z d          30.641   6.553 -45.587  0.00  0.00    -0.015 C 
ATOM     18  H2  X8Z d          30.276   5.564 -45.901  0.00  0.00     0.049 H 
ATOM     19  H3  X8Z d          31.552   6.804 -46.150  0.00  0.00     0.049 H 
BRANCH  17  20
ATOM     20  S   X8Z d          29.384   7.767 -45.990  0.00  0.00    -0.181 SA
ATOM     21  H4  X8Z d          28.914   8.056 -45.145  0.00  0.00     0.101 HD
ENDBRANCH  17  20
ENDBRANCH  15  17
BRANCH  15  22
ATOM     22  C3  X8Z d          30.527   7.704 -43.302  0.00  0.00    -0.064 C 
ATOM     23  H5  X8Z d          31.348   8.071 -42.668  0.00  0.00     0.028 H 
ATOM     24  H6  X8Z d          29.674   7.420 -42.668  0.00  0.00     0.028 H 
ATOM     25  H7  X8Z d          30.218   8.498 -43.998  0.00  0.00     0.028 H 
ENDBRANCH  15  22
ENDBRANCH   2  15
BRANCH   4  26
ATOM     26  C9  X8Z d          28.223   2.945 -43.608  0.00  0.00     0.196 C 
ATOM     27  O3  X8Z d          27.927   3.187 -44.761  0.00  0.00    -0.646 OA
ATOM     28  O2  X8Z d          28.462   1.742 -43.219  0.00  0.00    -0.646 OA
ENDBRANCH   4  26
TORSDOF 5
ENDMDL
MODEL 5
REMARK VINA RESULT:      -3.8      2.192      2.561
REMARK  5 active torsions:
REMARK  status: ('A' for Active; 'I' for Inactive)
REMARK    1  A    between atoms: C4_2  and  C2_3 
REMARK       I    between atoms: C4_2  and  N_7 
REMARK    2  A    between atoms: C2_3  and  C1_4 
REMARK    3  A    between atoms: C2_3  and  C3_6 
REMARK    4  A    between atoms: C1_4  and  S_5 
REMARK    5  A    between atoms: C8_8  and  C9_9 
ROOT
ATOM      1  O1  X8Z d          29.917   4.366 -42.796  0.00  0.00    -0.273 OA
ATOM      2  C4  X8Z d          28.972   5.165 -43.089  0.00  0.00     0.225 C 
ATOM      3  N   X8Z d          29.139   6.039 -44.106  0.00  0.00    -0.337 N 
ATOM      4  C8  X8Z d          30.422   6.119 -44.897  0.00  0.00     0.098 C 
ATOM      5  C5  X8Z d          28.161   7.069 -44.621  0.00  0.00    -0.001 C 
ATOM      6  C6  X8Z d          28.861   7.805 -45.704  0.00  0.00    -0.048 C 
ATOM      7  C7  X8Z d          30.163   7.116 -45.992  0.00  0.00    -0.035 C 
ATOM      8  H8  X8Z d          30.664   5.136 -45.328  0.00  0.00     0.089 H 
ATOM      9  H9  X8Z d          27.877   7.759 -43.814  0.00  0.00     0.064 H 
ATOM     10  H10 X8Z d          27.262   6.575 -45.016  0.00  0.00     0.064 H 
ATOM     11  H11 X8Z d          29.052   8.840 -45.384  0.00  0.00     0.035 H 
ATOM     12  H12 X8Z d          28.236   7.810 -46.610  0.00  0.00     0.035 H 
ATOM     13  H13 X8Z d          30.104   6.598 -46.961  0.00  0.00     0.036 H 
ATOM     14  H14 X8Z d          30.977   7.857 -46.021  0.00  0.00     0.036 H 
ENDROOT
BRANCH   2  15
ATOM     15  C2  X8Z d          27.681   5.114 -42.267  0.00  0.00     0.028 C 
ATOM     16  H1  X8Z d          27.904   4.810 -41.233  0.00  0.00     0.055 H 
BRANCH  15  17
ATOM     17  C1  X8Z d          27.066   6.518 -42.250  0.00  0.00    -0.015 C 
ATOM     18  H2  X8Z d          26.008   6.427 -41.963  0.00  0.00     0.049 H 
ATOM     19  H3  X8Z d          27.137   6.936 -43.265  0.00  0.00     0.049 H 
BRANCH  17  20
ATOM     20  S   X8Z d          27.855   7.664 -41.118  0.00  0.00    -0.181 SA
ATOM     21  H4  X8Z d          28.439   8.301 -41.638  0.00  0.00     0.101 HD
ENDBRANCH  17  20
ENDBRANCH  15  17
BRANCH  15  22
ATOM     22  C3  X8Z d          26.766   4.063 -42.915  0.00  0.00    -0.064 C 
ATOM     23  H5  X8Z d          25.714   4.330 -42.730  0.00  0.00     0.028 H 
ATOM     24  H6  X8Z d          26.975   3.075 -42.479  0.00  0.00     0.028 H 
ATOM     25  H7  X8Z d          26.951   4.033 -43.998  0.00  0.00     0.028 H 
ENDBRANCH  15  22
ENDBRANCH   2  15
BRANCH   4  26
ATOM     26  C9  X8Z d          31.594   6.582 -44.000  0.00  0.00     0.196 C 
ATOM     27  O3  X8Z d          32.441   5.812 -43.593  0.00  0.00    -0.646 OA
ATOM     28  O2  X8Z d          31.630   7.833 -43.702  0.00  0.00    -0.646 OA
ENDBRANCH   4  26
TORSDOF 5
ENDMDL
MODEL 6
REMARK VINA RESULT:      -3.8      2.106      2.689
REMARK  5 active torsions:
REMARK  status: ('A' for Active; 'I' for Inactive)
REMARK    1  A    between atoms: C4_2  and  C2_3 
REMARK       I    between atoms: C4_2  and  N_7 
REMARK    2  A    between atoms: C2_3  and  C1_4 
REMARK    3  A    between atoms: C2_3  and  C3_6 
REMARK    4  A    between atoms: C1_4  and  S_5 
REMARK    5  A    between atoms: C8_8  and  C9_9 
ROOT
ATOM      1  O1  X8Z d          28.950   5.014 -44.766  0.00  0.00    -0.273 OA
ATOM      2  C4  X8Z d          28.872   5.069 -43.498  0.00  0.00     0.225 C 
ATOM      3  N   X8Z d          29.503   6.067 -42.841  0.00  0.00    -0.337 N 
ATOM      4  C8  X8Z d          30.321   7.113 -43.560  0.00  0.00     0.098 C 
ATOM      5  C5  X8Z d          29.545   6.324 -41.354  0.00  0.00    -0.001 C 
ATOM      6  C6  X8Z d          30.421   7.507 -41.158  0.00  0.00    -0.048 C 
ATOM      7  C7  X8Z d          30.748   8.093 -42.501  0.00  0.00    -0.035 C 
ATOM      8  H8  X8Z d          29.707   7.619 -44.319  0.00  0.00     0.089 H 
ATOM      9  H9  X8Z d          29.961   5.452 -40.829  0.00  0.00     0.064 H 
ATOM     10  H10 X8Z d          28.534   6.533 -40.974  0.00  0.00     0.064 H 
ATOM     11  H11 X8Z d          31.349   7.201 -40.652  0.00  0.00     0.035 H 
ATOM     12  H12 X8Z d          29.899   8.256 -40.545  0.00  0.00     0.035 H 
ATOM     13  H13 X8Z d          30.210   9.043 -42.634  0.00  0.00     0.036 H 
ATOM     14  H14 X8Z d          31.831   8.271 -42.575  0.00  0.00     0.036 H 
ENDROOT
BRANCH   2  15
ATOM     15  C2  X8Z d          28.074   3.990 -42.761  0.00  0.00     0.028 C 
ATOM     16  H1  X8Z d          28.684   3.554 -41.956  0.00  0.00     0.055 H 
BRANCH  15  17
ATOM     17  C1  X8Z d          26.833   4.646 -42.144  0.00  0.00    -0.015 C 
ATOM     18  H2  X8Z d          27.089   4.977 -41.126  0.00  0.00     0.049 H 
ATOM     19  H3  X8Z d          26.034   3.892 -42.095  0.00  0.00     0.049 H 
BRANCH  17  20
ATOM     20  S   X8Z d          26.210   6.063 -43.050  0.00  0.00    -0.181 SA
ATOM     21  H4  X8Z d          26.146   5.832 -44.030  0.00  0.00     0.101 HD
ENDBRANCH  17  20
ENDBRANCH  15  17
BRANCH  15  22
ATOM     22  C3  X8Z d          27.731   2.894 -43.782  0.00  0.00    -0.064 C 
ATOM     23  H5  X8Z d          27.080   3.314 -44.564  0.00  0.00     0.028 H 
ATOM     24  H6  X8Z d          27.209   2.070 -43.275  0.00  0.00     0.028 H 
ATOM     25  H7  X8Z d          28.656   2.516 -44.240  0.00  0.00     0.028 H 
ENDBRANCH  15  22
ENDBRANCH   2  15
BRANCH   4  26
ATOM     26  C9  X8Z d          31.551   6.474 -44.245  0.00  0.00     0.196 C 
ATOM     27  O3  X8Z d          32.376   5.831 -43.626  0.00  0.00    -0.646 OA
ATOM     28  O2  X8Z d          31.661   6.655 -45.514  0.00  0.00    -0.646 OA
ENDBRANCH   4  26
TORSDOF 5
ENDMDL
MODEL 7
REMARK VINA RESULT:      -3.6      1.946      2.597
REMARK  5 active torsions:
REMARK  status: ('A' for Active; 'I' for Inactive)
REMARK    1  A    between atoms: C4_2  and  C2_3 
REMARK       I    between atoms: C4_2  and  N_7 
REMARK    2  A    between atoms: C2_3  and  C1_4 
REMARK    3  A    between atoms: C2_3  and  C3_6 
REMARK    4  A    between atoms: C1_4  and  S_5 
REMARK    5  A    between atoms: C8_8  and  C9_9 
ROOT
ATOM      1  O1  X8Z d          27.484   6.726 -44.138  0.00  0.00    -0.273 OA
ATOM      2  C4  X8Z d          28.053   5.691 -43.668  0.00  0.00     0.225 C 
ATOM      3  N   X8Z d          29.386   5.713 -43.449  0.00  0.00    -0.337 N 
ATOM      4  C8  X8Z d          30.234   6.922 -43.765  0.00  0.00     0.098 C 
ATOM      5  C5  X8Z d          30.261   4.609 -42.905  0.00  0.00    -0.001 C 
ATOM      6  C6  X8Z d          31.651   5.129 -42.922  0.00  0.00    -0.048 C 
ATOM      7  C7  X8Z d          31.617   6.588 -43.274  0.00  0.00    -0.035 C 
ATOM      8  H8  X8Z d          29.847   7.805 -43.236  0.00  0.00     0.089 H 
ATOM      9  H9  X8Z d          30.182   3.714 -43.539  0.00  0.00     0.064 H 
ATOM     10  H10 X8Z d          29.962   4.358 -41.877  0.00  0.00     0.064 H 
ATOM     11  H11 X8Z d          32.242   4.581 -43.671  0.00  0.00     0.035 H 
ATOM     12  H12 X8Z d          32.107   4.999 -41.928  0.00  0.00     0.035 H 
ATOM     13  H13 X8Z d          31.852   7.191 -42.385  0.00  0.00     0.036 H 
ATOM     14  H14 X8Z d          32.352   6.797 -44.065  0.00  0.00     0.036 H 
ENDROOT
BRANCH   2  15
ATOM     15  C2  X8Z d          27.205   4.449 -43.381  0.00  0.00     0.028 C 
ATOM     16  H1  X8Z d          26.190   4.584 -43.782  0.00  0.00     0.055 H 
BRANCH  15  17
ATOM     17  C1  X8Z d          27.858   3.248 -44.076  0.00  0.00    -0.015 C 
ATOM     18  H2  X8Z d          28.930   3.249 -43.827  0.00  0.00     0.049 H 
ATOM     19  H3  X8Z d          27.733   3.371 -45.161  0.00  0.00     0.049 H 
BRANCH  17  20
ATOM     20  S   X8Z d          27.177   1.655 -43.611  0.00  0.00    -0.181 SA
ATOM     21  H4  X8Z d          27.929   1.004 -43.446  0.00  0.00     0.101 HD
ENDBRANCH  17  20
ENDBRANCH  15  17
BRANCH  15  22
ATOM     22  C3  X8Z d          27.125   4.291 -41.854  0.00  0.00    -0.064 C 
ATOM     23  H5  X8Z d          27.228   3.228 -41.590  0.00  0.00     0.028 H 
ATOM     24  H6  X8Z d          26.155   4.666 -41.496  0.00  0.00     0.028 H 
ATOM     25  H7  X8Z d          27.936   4.865 -41.383  0.00  0.00     0.028 H 
ENDBRANCH  15  22
ENDBRANCH   2  15
BRANCH   4  26
ATOM     26  C9  X8Z d          30.245   7.204 -45.285  0.00  0.00     0.196 C 
ATOM     27  O3  X8Z d          29.519   8.035 -45.794  0.00  0.00    -0.646 OA
ATOM     28  O2  X8Z d          31.068   6.514 -45.992  0.00  0.00    -0.646 OA
ENDBRANCH   4  26
TORSDOF 5
ENDMDL
MODEL 8
REMARK VINA RESULT:      -3.4      1.710      2.002
REMARK  5 active torsions:
REMARK  status: ('A' for Active; 'I' for Inactive)
REMARK    1  A    between atoms: C4_2  and  C2_3 
REMARK       I    between atoms: C4_2  and  N_7 
REMARK    2  A    between atoms: C2_3  and  C1_4 
REMARK    3  A    between atoms: C2_3  and  C3_6 
REMARK    4  A    between atoms: C1_4  and  S_5 
REMARK    5  A    between atoms: C8_8  and  C9_9 
ROOT
ATOM      1  O1  X8Z d          29.427   4.644 -44.449  0.00  0.00    -0.273 OA
ATOM      2  C4  X8Z d          28.590   5.026 -43.572  0.00  0.00     0.225 C 
ATOM      3  N   X8Z d          28.865   6.122 -42.831  0.00  0.00    -0.337 N 
ATOM      4  C8  X8Z d          30.148   6.902 -42.991  0.00  0.00     0.098 C 
ATOM      5  C5  X8Z d          28.025   6.748 -41.743  0.00  0.00    -0.001 C 
ATOM      6  C6  X8Z d          28.810   7.890 -41.212  0.00  0.00    -0.048 C 
ATOM      7  C7  X8Z d          30.016   8.093 -42.083  0.00  0.00    -0.035 C 
ATOM      8  H8  X8Z d          30.264   7.230 -44.034  0.00  0.00     0.089 H 
ATOM      9  H9  X8Z d          27.829   6.017 -40.946  0.00  0.00     0.064 H 
ATOM     10  H10 X8Z d          27.070   7.104 -42.157  0.00  0.00     0.064 H 
ATOM     11  H11 X8Z d          29.131   7.672 -40.182  0.00  0.00     0.035 H 
ATOM     12  H12 X8Z d          28.191   8.800 -41.219  0.00  0.00     0.035 H 
ATOM     13  H13 X8Z d          29.891   9.007 -42.684  0.00  0.00     0.036 H 
ATOM     14  H14 X8Z d          30.916   8.185 -41.457  0.00  0.00     0.036 H 
ENDROOT
BRANCH   2  15
ATOM     15  C2  X8Z d          27.303   4.219 -43.378  0.00  0.00     0.028 C 
ATOM     16  H1  X8Z d          26.437   4.799 -43.730  0.00  0.00     0.055 H 
BRANCH  15  17
ATOM     17  C1  X8Z d          27.411   2.935 -44.209  0.00  0.00    -0.015 C 
ATOM     18  H2  X8Z d          28.312   3.006 -44.837  0.00  0.00     0.049 H 
ATOM     19  H3  X8Z d          26.521   2.865 -44.850  0.00  0.00     0.049 H 
BRANCH  17  20
ATOM     20  S   X8Z d          27.524   1.428 -43.242  0.00  0.00    -0.181 SA
ATOM     21  H4  X8Z d          26.793   1.420 -42.547  0.00  0.00     0.101 HD
ENDBRANCH  17  20
ENDBRANCH  15  17
BRANCH  15  22
ATOM     22  C3  X8Z d          27.152   3.951 -41.872  0.00  0.00    -0.064 C 
ATOM     23  H5  X8Z d          26.871   2.899 -41.714  0.00  0.00     0.028 H 
ATOM     24  H6  X8Z d          26.370   4.605 -41.460  0.00  0.00     0.028 H 
ATOM     25  H7  X8Z d          28.106   4.156 -41.365  0.00  0.00     0.028 H 
ENDBRANCH  15  22
ENDBRANCH   2  15
BRANCH   4  26
ATOM     26  C9  X8Z d          31.368   6.040 -42.592  0.00  0.00     0.196 C 
ATOM     27  O3  X8Z d          32.313   5.871 -43.336  0.00  0.00    -0.646 OA
ATOM     28  O2  X8Z d          31.337   5.507 -41.421  0.00  0.00    -0.646 OA
ENDBRANCH   4  26
TORSDOF 5
ENDMDL
MODEL 9
REMARK VINA RESULT:      -3.4      2.608      4.425
REMARK  5 active torsions:
REMARK  status: ('A' for Active; 'I' for Inactive)
REMARK    1  A    between atoms: C4_2  and  C2_3 
REMARK       I    between atoms: C4_2  and  N_7 
REMARK    2  A    between atoms: C2_3  and  C1_4 
REMARK    3  A    between atoms: C2_3  and  C3_6 
REMARK    4  A    between atoms: C1_4  and  S_5 
REMARK    5  A    between atoms: C8_8  and  C9_9 
ROOT
ATOM      1  O1  X8Z d          30.735   4.800 -42.000  0.00  0.00    -0.273 OA
ATOM      2  C4  X8Z d          30.043   5.848 -42.203  0.00  0.00     0.225 C 
ATOM      3  N   X8Z d          28.705   5.736 -42.356  0.00  0.00    -0.337 N 
ATOM      4  C8  X8Z d          27.999   4.402 -42.316  0.00  0.00     0.098 C 
ATOM      5  C5  X8Z d          27.699   6.834 -42.604  0.00  0.00    -0.001 C 
ATOM      6  C6  X8Z d          26.381   6.169 -42.755  0.00  0.00    -0.048 C 
ATOM      7  C7  X8Z d          26.531   4.716 -42.405  0.00  0.00    -0.035 C 
ATOM      8  H8  X8Z d          28.219   3.884 -41.371  0.00  0.00     0.089 H 
ATOM      9  H9  X8Z d          27.955   7.383 -43.522  0.00  0.00     0.064 H 
ATOM     10  H10 X8Z d          27.678   7.531 -41.754  0.00  0.00     0.064 H 
ATOM     11  H11 X8Z d          26.034   6.265 -43.794  0.00  0.00     0.035 H 
ATOM     12  H12 X8Z d          25.650   6.638 -42.079  0.00  0.00     0.035 H 
ATOM     13  H13 X8Z d          26.048   4.515 -41.437  0.00  0.00     0.036 H 
ATOM     14  H14 X8Z d          26.065   4.096 -43.185  0.00  0.00     0.036 H 
ENDROOT
BRANCH   2  15
ATOM     15  C2  X8Z d          30.758   7.200 -42.281  0.00  0.00     0.028 C 
ATOM     16  H1  X8Z d          31.835   7.069 -42.103  0.00  0.00     0.055 H 
BRANCH  15  17
ATOM     17  C1  X8Z d          30.553   7.772 -43.689  0.00  0.00    -0.015 C 
ATOM     18  H2  X8Z d          30.992   8.780 -43.717  0.00  0.00     0.049 H 
ATOM     19  H3  X8Z d          29.472   7.837 -43.879  0.00  0.00     0.049 H 
BRANCH  17  20
ATOM     20  S   X8Z d          31.294   6.803 -45.003  0.00  0.00    -0.181 SA
ATOM     21  H4  X8Z d          30.566   6.405 -45.578  0.00  0.00     0.101 HD
ENDBRANCH  17  20
ENDBRANCH  15  17
BRANCH  15  22
ATOM     22  C3  X8Z d          30.171   8.093 -41.177  0.00  0.00    -0.064 C 
ATOM     23  H5  X8Z d          29.773   7.462 -40.368  0.00  0.00     0.028 H 
ATOM     24  H6  X8Z d          29.360   8.709 -41.594  0.00  0.00     0.028 H 
ATOM     25  H7  X8Z d          30.958   8.748 -40.777  0.00  0.00     0.028 H 
ENDBRANCH  15  22
ENDBRANCH   2  15
BRANCH   4  26
ATOM     26  C9  X8Z d          28.442   3.510 -43.499  0.00  0.00     0.196 C 
ATOM     27  O3  X8Z d          28.668   2.324 -43.367  0.00  0.00    -0.646 OA
ATOM     28  O2  X8Z d          28.559   4.088 -44.642  0.00  0.00    -0.646 OA
ENDBRANCH   4  26
TORSDOF 5
ENDMDL
