MODEL 1
REMARK VINA RESULT:      -5.8      0.000      0.000
REMARK  6 active torsions:
REMARK  status: ('A' for Active; 'I' for Inactive)
REMARK    1  A    between atoms: C1_17  and  N1_1 
REMARK    2  A    between atoms: C5_10  and  O5_9 
REMARK    3  A    between atoms: C4_11  and  C5_10 
REMARK    4  A    between atoms: C3_13  and  O3_14 
REMARK    5  A    between atoms: O3_14  and  P_19 
REMARK    6  A    between atoms: C2_15  and  O2_16 
ROOT
ATOM      1  C4  UA3 d          38.884   0.734  12.265  0.00  0.00     0.089 C 
ATOM      2  O4  UA3 d          38.794  -0.504  11.567  0.00  0.00    -0.353 OA
ATOM      3  C3  UA3 d          37.949   1.379  13.042  0.00  0.00     0.107 C 
ATOM      4  C2  UA3 d          37.028  -0.094  13.216  0.00  0.00     0.106 C 
ATOM      5  C1  UA3 d          37.241  -0.640  11.634  0.00  0.00     0.141 C 
ATOM      6  H7  UA3 d          38.629   1.325  11.373  0.00  0.00     0.090 H 
ATOM      7  H8  UA3 d          38.458   1.652  13.977  0.00  0.00     0.092 H 
ATOM      8  H9  UA3 d          35.958   0.120  13.351  0.00  0.00     0.093 H 
ATOM      9  H11 UA3 d          36.726  -0.059  10.855  0.00  0.00     0.123 H 
ENDROOT
BRANCH   5  10
ATOM     10  N1  UA3 d          36.768  -1.959  11.712  0.00  0.00    -0.280 N 
ATOM     11  C2  UA3 d          35.433  -2.178  11.263  0.00  0.00     0.331 A 
ATOM     12  O2  UA3 d          34.765  -1.310  10.830  0.00  0.00    -0.246 OA
ATOM     13  N3  UA3 d          35.021  -3.513  11.389  0.00  0.00    -0.275 N 
ATOM     14  C4  UA3 d          35.757  -4.606  11.897  0.00  0.00     0.250 A 
ATOM     15  H1  UA3 d          34.091  -3.715  11.080  0.00  0.00     0.173 HD
ATOM     16  O4  UA3 d          35.221  -5.692  11.924  0.00  0.00    -0.268 OA
ATOM     17  C5  UA3 d          37.105  -4.285  12.338  0.00  0.00    -0.002 A 
ATOM     18  C6  UA3 d          37.561  -3.023  12.240  0.00  0.00    -0.008 A 
ATOM     19  H2  UA3 d          37.744  -5.065  12.747  0.00  0.00     0.094 H 
ATOM     20  H3  UA3 d          38.574  -2.805  12.577  0.00  0.00     0.112 H 
ENDBRANCH   5  10
BRANCH   4  21
ATOM     21  O2  UA3 d          37.490  -0.873  14.586  0.00  0.00    -0.388 OA
ATOM     22  H10 UA3 d          36.948  -0.585  15.311  0.00  0.00     0.210 HD
ENDBRANCH   4  21
BRANCH   1  23
ATOM     23  C5  UA3 d          40.136   1.185  12.381  0.00  0.00     0.043 C 
ATOM     24  H5  UA3 d          40.627   0.591  13.167  0.00  0.00     0.078 H 
ATOM     25  H6  UA3 d          40.639   1.008  11.420  0.00  0.00     0.078 H 
BRANCH  23  26
ATOM     26  O5  UA3 d          40.336   2.700  12.744  0.00  0.00    -0.398 OA
ATOM     27  H4  UA3 d          41.263   2.880  12.847  0.00  0.00     0.209 HD
ENDBRANCH  23  26
ENDBRANCH   1  23
BRANCH   3  28
ATOM     28  O3  UA3 d          37.000   2.566  12.797  0.00  0.00    -0.272 OA
BRANCH  28  29
ATOM     29  P   UA3 d          37.158   4.039  13.073  0.00  0.00     0.422 P 
ATOM     30  O3P UA3 d          38.023   4.132  14.420  0.00  0.00    -0.617 OA
ATOM     31  O1P UA3 d          35.799   4.662  13.197  0.00  0.00    -0.617 OA
ATOM     32  O2P UA3 d          37.940   4.671  11.953  0.00  0.00    -0.617 OA
ENDBRANCH  28  29
ENDBRANCH   3  28
TORSDOF 6
ENDMDL
MODEL 2
REMARK VINA RESULT:      -4.8      3.018      6.438
REMARK  6 active torsions:
REMARK  status: ('A' for Active; 'I' for Inactive)
REMARK    1  A    between atoms: C1_17  and  N1_1 
REMARK    2  A    between atoms: C5_10  and  O5_9 
REMARK    3  A    between atoms: C4_11  and  C5_10 
REMARK    4  A    between atoms: C3_13  and  O3_14 
REMARK    5  A    between atoms: O3_14  and  P_19 
REMARK    6  A    between atoms: C2_15  and  O2_16 
ROOT
ATOM      1  C4  UA3 d          39.113  -2.677  13.824  0.00  0.00     0.089 C 
ATOM      2  O4  UA3 d          38.915  -1.405  14.433  0.00  0.00    -0.353 OA
ATOM      3  C3  UA3 d          38.640  -3.166  12.629  0.00  0.00     0.107 C 
ATOM      4  C2  UA3 d          38.283  -1.552  12.070  0.00  0.00     0.106 C 
ATOM      5  C1  UA3 d          37.712  -0.962  13.543  0.00  0.00     0.141 C 
ATOM      6  H7  UA3 d          38.302  -3.147  14.399  0.00  0.00     0.090 H 
ATOM      7  H8  UA3 d          39.506  -3.595  12.104  0.00  0.00     0.092 H 
ATOM      8  H9  UA3 d          37.439  -1.552  11.364  0.00  0.00     0.093 H 
ATOM      9  H11 UA3 d          36.751  -1.377  13.884  0.00  0.00     0.123 H 
ENDROOT
BRANCH   5  10
ATOM     10  N1  UA3 d          37.637   0.418  13.298  0.00  0.00    -0.280 N 
ATOM     11  C2  UA3 d          36.476   0.874  12.607  0.00  0.00     0.331 A 
ATOM     12  O2  UA3 d          35.614   0.142  12.275  0.00  0.00    -0.246 OA
ATOM     13  N3  UA3 d          36.478   2.257  12.380  0.00  0.00    -0.275 N 
ATOM     14  C4  UA3 d          37.468   3.198  12.743  0.00  0.00     0.250 A 
ATOM     15  H1  UA3 d          35.679   2.624  11.901  0.00  0.00     0.173 HD
ATOM     16  O4  UA3 d          37.285   4.359  12.454  0.00  0.00    -0.268 OA
ATOM     17  C5  UA3 d          38.617   2.639  13.436  0.00  0.00    -0.002 A 
ATOM     18  C6  UA3 d          38.674   1.319  13.688  0.00  0.00    -0.008 A 
ATOM     19  H2  UA3 d          39.432   3.289  13.751  0.00  0.00     0.094 H 
ATOM     20  H3  UA3 d          39.544   0.922  14.208  0.00  0.00     0.112 H 
ENDBRANCH   5  10
BRANCH   4  21
ATOM     21  O2  UA3 d          39.560  -0.970  11.217  0.00  0.00    -0.388 OA
ATOM     22  H10 UA3 d          39.315  -0.152  10.800  0.00  0.00     0.210 HD
ENDBRANCH   4  21
BRANCH   1  23
ATOM     23  C5  UA3 d          40.106  -3.378  14.379  0.00  0.00     0.043 C 
ATOM     24  H5  UA3 d          41.052  -2.971  13.991  0.00  0.00     0.078 H 
ATOM     25  H6  UA3 d          40.055  -3.215  15.465  0.00  0.00     0.078 H 
BRANCH  23  26
ATOM     26  O5  UA3 d          40.128  -4.930  14.138  0.00  0.00    -0.398 OA
ATOM     27  H4  UA3 d          39.758  -5.372  14.893  0.00  0.00     0.209 HD
ENDBRANCH  23  26
ENDBRANCH   1  23
BRANCH   3  28
ATOM     28  O3  UA3 d          37.491  -4.119  12.250  0.00  0.00    -0.272 OA
BRANCH  28  29
ATOM     29  P   UA3 d          36.425  -4.775  13.090  0.00  0.00     0.422 P 
ATOM     30  O3P UA3 d          35.390  -3.607  13.457  0.00  0.00    -0.617 OA
ATOM     31  O1P UA3 d          37.067  -5.400  14.294  0.00  0.00    -0.617 OA
ATOM     32  O2P UA3 d          35.711  -5.810  12.263  0.00  0.00    -0.617 OA
ENDBRANCH  28  29
ENDBRANCH   3  28
TORSDOF 6
ENDMDL
MODEL 3
REMARK VINA RESULT:      -4.5      1.723      3.113
REMARK  6 active torsions:
REMARK  status: ('A' for Active; 'I' for Inactive)
REMARK    1  A    between atoms: C1_17  and  N1_1 
REMARK    2  A    between atoms: C5_10  and  O5_9 
REMARK    3  A    between atoms: C4_11  and  C5_10 
REMARK    4  A    between atoms: C3_13  and  O3_14 
REMARK    5  A    between atoms: O3_14  and  P_19 
REMARK    6  A    between atoms: C2_15  and  O2_16 
ROOT
ATOM      1  C4  UA3 d          37.111   1.442  13.177  0.00  0.00     0.089 C 
ATOM      2  O4  UA3 d          36.533   0.263  13.728  0.00  0.00    -0.353 OA
ATOM      3  C3  UA3 d          38.119   1.580  12.251  0.00  0.00     0.107 C 
ATOM      4  C2  UA3 d          37.921  -0.076  11.737  0.00  0.00     0.106 C 
ATOM      5  C1  UA3 d          37.655  -0.721  13.272  0.00  0.00     0.141 C 
ATOM      6  H7  UA3 d          37.799   1.574  14.025  0.00  0.00     0.090 H 
ATOM      7  H8  UA3 d          37.750   2.287  11.494  0.00  0.00     0.092 H 
ATOM      8  H9  UA3 d          38.867  -0.492  11.362  0.00  0.00     0.093 H 
ATOM      9  H11 UA3 d          38.524  -0.723  13.947  0.00  0.00     0.123 H 
ENDROOT
BRANCH   5  10
ATOM     10  N1  UA3 d          37.213  -2.020  12.973  0.00  0.00    -0.280 N 
ATOM     11  C2  UA3 d          38.215  -3.033  12.935  0.00  0.00     0.331 A 
ATOM     12  O2  UA3 d          39.349  -2.806  13.160  0.00  0.00    -0.246 OA
ATOM     13  N3  UA3 d          37.707  -4.299  12.611  0.00  0.00    -0.275 N 
ATOM     14  C4  UA3 d          36.369  -4.652  12.326  0.00  0.00     0.250 A 
ATOM     15  H1  UA3 d          38.374  -5.044  12.577  0.00  0.00     0.173 HD
ATOM     16  O4  UA3 d          36.127  -5.810  12.064  0.00  0.00    -0.268 OA
ATOM     17  C5  UA3 d          35.420  -3.552  12.381  0.00  0.00    -0.002 A 
ATOM     18  C6  UA3 d          35.844  -2.313  12.690  0.00  0.00    -0.008 A 
ATOM     19  H2  UA3 d          34.367  -3.730  12.172  0.00  0.00     0.094 H 
ATOM     20  H3  UA3 d          35.117  -1.504  12.726  0.00  0.00     0.112 H 
ENDBRANCH   5  10
BRANCH   4  21
ATOM     21  O2  UA3 d          36.887  -0.136  10.462  0.00  0.00    -0.388 OA
ATOM     22  H10 UA3 d          37.052   0.602   9.886  0.00  0.00     0.210 HD
ENDBRANCH   4  21
BRANCH   1  23
ATOM     23  C5  UA3 d          36.389   2.541  13.407  0.00  0.00     0.043 C 
ATOM     24  H5  UA3 d          35.350   2.222  13.580  0.00  0.00     0.078 H 
ATOM     25  H6  UA3 d          36.785   3.008  14.321  0.00  0.00     0.078 H 
BRANCH  23  26
ATOM     26  O5  UA3 d          36.361   3.645  12.290  0.00  0.00    -0.398 OA
ATOM     27  H4  UA3 d          35.774   4.345  12.552  0.00  0.00     0.209 HD
ENDBRANCH  23  26
ENDBRANCH   1  23
BRANCH   3  28
ATOM     28  O3  UA3 d          39.617   1.923  12.353  0.00  0.00    -0.272 OA
BRANCH  28  29
ATOM     29  P   UA3 d          40.324   3.237  12.570  0.00  0.00     0.422 P 
ATOM     30  O3P UA3 d          41.404   3.342  11.390  0.00  0.00    -0.617 OA
ATOM     31  O1P UA3 d          40.937   3.241  13.939  0.00  0.00    -0.617 OA
ATOM     32  O2P UA3 d          39.335   4.361  12.419  0.00  0.00    -0.617 OA
ENDBRANCH  28  29
ENDBRANCH   3  28
TORSDOF 6
ENDMDL
MODEL 4
REMARK VINA RESULT:      -4.5      2.658      4.038
REMARK  6 active torsions:
REMARK  status: ('A' for Active; 'I' for Inactive)
REMARK    1  A    between atoms: C1_17  and  N1_1 
REMARK    2  A    between atoms: C5_10  and  O5_9 
REMARK    3  A    between atoms: C4_11  and  C5_10 
REMARK    4  A    between atoms: C3_13  and  O3_14 
REMARK    5  A    between atoms: O3_14  and  P_19 
REMARK    6  A    between atoms: C2_15  and  O2_16 
ROOT
ATOM      1  C4  UA3 d          37.416   0.571  12.940  0.00  0.00     0.089 C 
ATOM      2  O4  UA3 d          37.426  -0.780  13.388  0.00  0.00    -0.353 OA
ATOM      3  C3  UA3 d          38.458   1.377  12.541  0.00  0.00     0.107 C 
ATOM      4  C2  UA3 d          39.487  -0.013  12.306  0.00  0.00     0.106 C 
ATOM      5  C1  UA3 d          38.960  -0.871  13.659  0.00  0.00     0.141 C 
ATOM      6  H7  UA3 d          37.426   0.975  13.963  0.00  0.00     0.090 H 
ATOM      7  H8  UA3 d          38.155   1.824  11.583  0.00  0.00     0.092 H 
ATOM      8  H9  UA3 d          40.545   0.243  12.467  0.00  0.00     0.093 H 
ATOM      9  H11 UA3 d          39.249  -0.450  14.634  0.00  0.00     0.123 H 
ENDROOT
BRANCH   5  10
ATOM     10  N1  UA3 d          39.523  -2.138  13.442  0.00  0.00    -0.280 N 
ATOM     11  C2  UA3 d          40.831  -2.347  13.970  0.00  0.00     0.331 A 
ATOM     12  O2  UA3 d          41.406  -1.514  14.574  0.00  0.00    -0.246 OA
ATOM     13  N3  UA3 d          41.338  -3.626  13.698  0.00  0.00    -0.275 N 
ATOM     14  C4  UA3 d          40.717  -4.674  12.983  0.00  0.00     0.250 A 
ATOM     15  H1  UA3 d          42.253  -3.819  14.055  0.00  0.00     0.173 HD
ATOM     16  O4  UA3 d          41.323  -5.714  12.852  0.00  0.00    -0.268 OA
ATOM     17  C5  UA3 d          39.389  -4.366  12.476  0.00  0.00    -0.002 A 
ATOM     18  C6  UA3 d          38.845  -3.157  12.706  0.00  0.00    -0.008 A 
ATOM     19  H2  UA3 d          38.836  -5.113  11.909  0.00  0.00     0.094 H 
ATOM     20  H3  UA3 d          37.850  -2.948  12.317  0.00  0.00     0.112 H 
ENDBRANCH   5  10
BRANCH   4  21
ATOM     21  O2  UA3 d          39.396  -0.508  10.742  0.00  0.00    -0.388 OA
ATOM     22  H10 UA3 d          38.892  -1.312  10.694  0.00  0.00     0.210 HD
ENDBRANCH   4  21
BRANCH   1  23
ATOM     23  C5  UA3 d          36.196   1.013  12.624  0.00  0.00     0.043 C 
ATOM     24  H5  UA3 d          36.251   1.432  11.609  0.00  0.00     0.078 H 
ATOM     25  H6  UA3 d          35.522   0.144  12.626  0.00  0.00     0.078 H 
BRANCH  23  26
ATOM     26  O5  UA3 d          35.552   2.107  13.550  0.00  0.00    -0.398 OA
ATOM     27  H4  UA3 d          35.297   1.712  14.376  0.00  0.00     0.209 HD
ENDBRANCH  23  26
ENDBRANCH   1  23
BRANCH   3  28
ATOM     28  O3  UA3 d          39.249   2.508  13.223  0.00  0.00    -0.272 OA
BRANCH  28  29
ATOM     29  P   UA3 d          38.966   3.983  13.350  0.00  0.00     0.422 P 
ATOM     30  O3P UA3 d          38.667   4.491  11.859  0.00  0.00    -0.617 OA
ATOM     31  O1P UA3 d          40.151   4.655  13.979  0.00  0.00    -0.617 OA
ATOM     32  O2P UA3 d          37.729   4.179  14.184  0.00  0.00    -0.617 OA
ENDBRANCH  28  29
ENDBRANCH   3  28
TORSDOF 6
ENDMDL
MODEL 5
REMARK VINA RESULT:      -4.3      3.248      6.957
REMARK  6 active torsions:
REMARK  status: ('A' for Active; 'I' for Inactive)
REMARK    1  A    between atoms: C1_17  and  N1_1 
REMARK    2  A    between atoms: C5_10  and  O5_9 
REMARK    3  A    between atoms: C4_11  and  C5_10 
REMARK    4  A    between atoms: C3_13  and  O3_14 
REMARK    5  A    between atoms: O3_14  and  P_19 
REMARK    6  A    between atoms: C2_15  and  O2_16 
ROOT
ATOM      1  C4  UA3 d          36.564  -1.455  11.729  0.00  0.00     0.089 C 
ATOM      2  O4  UA3 d          37.276  -0.371  11.142  0.00  0.00    -0.353 OA
ATOM      3  C3  UA3 d          36.825  -2.162  12.880  0.00  0.00     0.107 C 
ATOM      4  C2  UA3 d          37.881  -0.898  13.457  0.00  0.00     0.106 C 
ATOM      5  C1  UA3 d          38.588  -0.546  11.968  0.00  0.00     0.141 C 
ATOM      6  H7  UA3 d          37.059  -2.204  11.093  0.00  0.00     0.090 H 
ATOM      7  H8  UA3 d          35.883  -2.194  13.446  0.00  0.00     0.092 H 
ATOM      8  H9  UA3 d          38.668  -1.304  14.110  0.00  0.00     0.093 H 
ATOM      9  H11 UA3 d          39.253  -1.322  11.559  0.00  0.00     0.123 H 
ENDROOT
BRANCH   5  10
ATOM     10  N1  UA3 d          39.275   0.648  12.243  0.00  0.00    -0.280 N 
ATOM     11  C2  UA3 d          40.683   0.537  12.430  0.00  0.00     0.331 A 
ATOM     12  O2  UA3 d          41.251  -0.493  12.341  0.00  0.00    -0.246 OA
ATOM     13  N3  UA3 d          41.300   1.762  12.721  0.00  0.00    -0.275 N 
ATOM     14  C4  UA3 d          40.693   3.032  12.847  0.00  0.00     0.250 A 
ATOM     15  H1  UA3 d          42.290   1.733  12.856  0.00  0.00     0.173 HD
ATOM     16  O4  UA3 d          41.402   3.980  13.106  0.00  0.00    -0.268 OA
ATOM     17  C5  UA3 d          39.254   3.045  12.647  0.00  0.00    -0.002 A 
ATOM     18  C6  UA3 d          38.604   1.903  12.361  0.00  0.00    -0.008 A 
ATOM     19  H2  UA3 d          38.701   3.980  12.728  0.00  0.00     0.094 H 
ATOM     20  H3  UA3 d          37.525   1.936  12.215  0.00  0.00     0.112 H 
ENDBRANCH   5  10
BRANCH   4  21
ATOM     21  O2  UA3 d          37.029   0.141  14.402  0.00  0.00    -0.388 OA
ATOM     22  H10 UA3 d          36.858  -0.265  15.244  0.00  0.00     0.210 HD
ENDBRANCH   4  21
BRANCH   1  23
ATOM     23  C5  UA3 d          35.341  -1.622  11.218  0.00  0.00     0.043 C 
ATOM     24  H5  UA3 d          34.619  -1.425  12.025  0.00  0.00     0.078 H 
ATOM     25  H6  UA3 d          35.214  -0.874  10.422  0.00  0.00     0.078 H 
BRANCH  23  26
ATOM     26  O5  UA3 d          34.990  -3.025  10.605  0.00  0.00    -0.398 OA
ATOM     27  H4  UA3 d          35.330  -3.077   9.720  0.00  0.00     0.209 HD
ENDBRANCH  23  26
ENDBRANCH   1  23
BRANCH   3  28
ATOM     28  O3  UA3 d          37.452  -3.540  13.163  0.00  0.00    -0.272 OA
BRANCH  28  29
ATOM     29  P   UA3 d          36.834  -4.911  13.265  0.00  0.00     0.422 P 
ATOM     30  O3P UA3 d          37.500  -5.769  12.086  0.00  0.00    -0.617 OA
ATOM     31  O1P UA3 d          35.344  -4.787  13.141  0.00  0.00    -0.617 OA
ATOM     32  O2P UA3 d          37.215  -5.528  14.584  0.00  0.00    -0.617 OA
ENDBRANCH  28  29
ENDBRANCH   3  28
TORSDOF 6
ENDMDL
MODEL 6
REMARK VINA RESULT:      -3.8      2.931      6.673
REMARK  6 active torsions:
REMARK  status: ('A' for Active; 'I' for Inactive)
REMARK    1  A    between atoms: C1_17  and  N1_1 
REMARK    2  A    between atoms: C5_10  and  O5_9 
REMARK    3  A    between atoms: C4_11  and  C5_10 
REMARK    4  A    between atoms: C3_13  and  O3_14 
REMARK    5  A    between atoms: O3_14  and  P_19 
REMARK    6  A    between atoms: C2_15  and  O2_16 
ROOT
ATOM      1  C4  UA3 d          38.433  -2.652  13.350  0.00  0.00     0.089 C 
ATOM      2  O4  UA3 d          38.480  -1.501  14.187  0.00  0.00    -0.353 OA
ATOM      3  C3  UA3 d          37.864  -2.818  12.109  0.00  0.00     0.107 C 
ATOM      4  C2  UA3 d          37.805  -1.091  11.867  0.00  0.00     0.106 C 
ATOM      5  C1  UA3 d          37.369  -0.692  13.447  0.00  0.00     0.141 C 
ATOM      6  H7  UA3 d          37.556  -3.067  13.868  0.00  0.00     0.090 H 
ATOM      7  H8  UA3 d          38.629  -3.291  11.477  0.00  0.00     0.092 H 
ATOM      8  H9  UA3 d          36.967  -0.809  11.212  0.00  0.00     0.093 H 
ATOM      9  H11 UA3 d          36.352  -0.983  13.750  0.00  0.00     0.123 H 
ENDROOT
BRANCH   5  10
ATOM     10  N1  UA3 d          37.548   0.700  13.458  0.00  0.00    -0.280 N 
ATOM     11  C2  UA3 d          38.764   1.176  14.029  0.00  0.00     0.331 A 
ATOM     12  O2  UA3 d          39.588   0.446  14.452  0.00  0.00    -0.246 OA
ATOM     13  N3  UA3 d          38.866   2.574  14.025  0.00  0.00    -0.275 N 
ATOM     14  C4  UA3 d          37.927   3.513  13.542  0.00  0.00     0.250 A 
ATOM     15  H1  UA3 d          39.707   2.954  14.412  0.00  0.00     0.173 HD
ATOM     16  O4  UA3 d          38.200   4.690  13.630  0.00  0.00    -0.268 OA
ATOM     17  C5  UA3 d          36.715   2.935  12.986  0.00  0.00    -0.002 A 
ATOM     18  C6  UA3 d          36.558   1.600  12.957  0.00  0.00    -0.008 A 
ATOM     19  H2  UA3 d          35.933   3.583  12.592  0.00  0.00     0.094 H 
ATOM     20  H3  UA3 d          35.642   1.188  12.535  0.00  0.00     0.112 H 
ENDBRANCH   5  10
BRANCH   4  21
ATOM     21  O2  UA3 d          39.158  -0.600  11.075  0.00  0.00    -0.388 OA
ATOM     22  H10 UA3 d          38.955   0.163  10.547  0.00  0.00     0.210 HD
ENDBRANCH   4  21
BRANCH   1  23
ATOM     23  C5  UA3 d          39.286  -3.610  13.724  0.00  0.00     0.043 C 
ATOM     24  H5  UA3 d          39.619  -3.373  14.745  0.00  0.00     0.078 H 
ATOM     25  H6  UA3 d          38.730  -4.559  13.731  0.00  0.00     0.078 H 
BRANCH  23  26
ATOM     26  O5  UA3 d          40.572  -3.827  12.848  0.00  0.00    -0.398 OA
ATOM     27  H4  UA3 d          40.940  -4.683  13.034  0.00  0.00     0.209 HD
ENDBRANCH  23  26
ENDBRANCH   1  23
BRANCH   3  28
ATOM     28  O3  UA3 d          36.555  -3.463  11.618  0.00  0.00    -0.272 OA
BRANCH  28  29
ATOM     29  P   UA3 d          35.672  -4.517  12.235  0.00  0.00     0.422 P 
ATOM     30  O3P UA3 d          36.661  -5.701  12.673  0.00  0.00    -0.617 OA
ATOM     31  O1P UA3 d          34.643  -4.944  11.230  0.00  0.00    -0.617 OA
ATOM     32  O2P UA3 d          35.019  -3.954  13.469  0.00  0.00    -0.617 OA
ENDBRANCH  28  29
ENDBRANCH   3  28
TORSDOF 6
ENDMDL
MODEL 7
REMARK VINA RESULT:      -3.6      1.506      1.981
REMARK  6 active torsions:
REMARK  status: ('A' for Active; 'I' for Inactive)
REMARK    1  A    between atoms: C1_17  and  N1_1 
REMARK    2  A    between atoms: C5_10  and  O5_9 
REMARK    3  A    between atoms: C4_11  and  C5_10 
REMARK    4  A    between atoms: C3_13  and  O3_14 
REMARK    5  A    between atoms: O3_14  and  P_19 
REMARK    6  A    between atoms: C2_15  and  O2_16 
ROOT
ATOM      1  C4  UA3 d          39.242   1.174  12.282  0.00  0.00     0.089 C 
ATOM      2  O4  UA3 d          38.785   0.089  11.481  0.00  0.00    -0.353 OA
ATOM      3  C3  UA3 d          38.859   1.559  13.547  0.00  0.00     0.107 C 
ATOM      4  C2  UA3 d          38.147  -0.005  13.845  0.00  0.00     0.106 C 
ATOM      5  C1  UA3 d          37.495  -0.215  12.304  0.00  0.00     0.141 C 
ATOM      6  H7  UA3 d          38.567   1.895  11.800  0.00  0.00     0.090 H 
ATOM      7  H8  UA3 d          39.786   1.700  14.122  0.00  0.00     0.092 H 
ATOM      8  H9  UA3 d          37.307   0.068  14.552  0.00  0.00     0.093 H 
ATOM      9  H11 UA3 d          36.655   0.448  12.046  0.00  0.00     0.123 H 
ENDROOT
BRANCH   5  10
ATOM     10  N1  UA3 d          37.115  -1.566  12.326  0.00  0.00    -0.280 N 
ATOM     11  C2  UA3 d          38.155  -2.517  12.110  0.00  0.00     0.331 A 
ATOM     12  O2  UA3 d          39.276  -2.196  11.941  0.00  0.00    -0.246 OA
ATOM     13  N3  UA3 d          37.701  -3.844  12.125  0.00  0.00    -0.275 N 
ATOM     14  C4  UA3 d          36.381  -4.309  12.318  0.00  0.00     0.250 A 
ATOM     15  H1  UA3 d          38.398  -4.547  11.983  0.00  0.00     0.173 HD
ATOM     16  O4  UA3 d          36.188  -5.505  12.296  0.00  0.00    -0.268 OA
ATOM     17  C5  UA3 d          35.389  -3.267  12.523  0.00  0.00    -0.002 A 
ATOM     18  C6  UA3 d          35.761  -1.974  12.523  0.00  0.00    -0.008 A 
ATOM     19  H2  UA3 d          34.344  -3.532  12.677  0.00  0.00     0.094 H 
ATOM     20  H3  UA3 d          35.001  -1.210  12.678  0.00  0.00     0.112 H 
ENDBRANCH   5  10
BRANCH   4  21
ATOM     21  O2  UA3 d          39.247  -0.980  14.579  0.00  0.00    -0.388 OA
ATOM     22  H10 UA3 d          39.096  -0.976  15.517  0.00  0.00     0.210 HD
ENDBRANCH   4  21
BRANCH   1  23
ATOM     23  C5  UA3 d          40.376   1.719  11.835  0.00  0.00     0.043 C 
ATOM     24  H5  UA3 d          41.193   1.023  12.075  0.00  0.00     0.078 H 
ATOM     25  H6  UA3 d          40.285   1.815  10.743  0.00  0.00     0.078 H 
BRANCH  23  26
ATOM     26  O5  UA3 d          40.780   3.130  12.397  0.00  0.00    -0.398 OA
ATOM     27  H4  UA3 d          39.999   3.596  12.672  0.00  0.00     0.209 HD
ENDBRANCH  23  26
ENDBRANCH   1  23
BRANCH   3  28
ATOM     28  O3  UA3 d          37.938   2.669  14.086  0.00  0.00    -0.272 OA
BRANCH  28  29
ATOM     29  P   UA3 d          36.756   3.369  13.466  0.00  0.00     0.422 P 
ATOM     30  O3P UA3 d          37.181   3.666  11.949  0.00  0.00    -0.617 OA
ATOM     31  O1P UA3 d          36.457   4.612  14.252  0.00  0.00    -0.617 OA
ATOM     32  O2P UA3 d          35.575   2.437  13.462  0.00  0.00    -0.617 OA
ENDBRANCH  28  29
ENDBRANCH   3  28
TORSDOF 6
ENDMDL
MODEL 8
REMARK VINA RESULT:      -3.4      3.546      6.715
REMARK  6 active torsions:
REMARK  status: ('A' for Active; 'I' for Inactive)
REMARK    1  A    between atoms: C1_17  and  N1_1 
REMARK    2  A    between atoms: C5_10  and  O5_9 
REMARK    3  A    between atoms: C4_11  and  C5_10 
REMARK    4  A    between atoms: C3_13  and  O3_14 
REMARK    5  A    between atoms: O3_14  and  P_19 
REMARK    6  A    between atoms: C2_15  and  O2_16 
ROOT
ATOM      1  C4  UA3 d          40.207  -1.470  12.091  0.00  0.00     0.089 C 
ATOM      2  O4  UA3 d          40.223  -0.052  12.217  0.00  0.00    -0.353 OA
ATOM      3  C3  UA3 d          39.264  -2.382  12.506  0.00  0.00     0.107 C 
ATOM      4  C2  UA3 d          38.064  -1.124  12.655  0.00  0.00     0.106 C 
ATOM      5  C1  UA3 d          39.095   0.049  13.290  0.00  0.00     0.141 C 
ATOM      6  H7  UA3 d          40.823  -1.618  12.991  0.00  0.00     0.090 H 
ATOM      7  H8  UA3 d          39.064  -3.035  11.644  0.00  0.00     0.092 H 
ATOM      8  H9  UA3 d          37.324  -1.370  13.431  0.00  0.00     0.093 H 
ATOM      9  H11 UA3 d          39.457  -0.136  14.313  0.00  0.00     0.123 H 
ENDROOT
BRANCH   5  10
ATOM     10  N1  UA3 d          38.307   1.208  13.209  0.00  0.00    -0.280 N 
ATOM     11  C2  UA3 d          38.959   2.437  13.519  0.00  0.00     0.331 A 
ATOM     12  O2  UA3 d          40.100   2.488  13.808  0.00  0.00    -0.246 OA
ATOM     13  N3  UA3 d          38.108   3.549  13.438  0.00  0.00    -0.275 N 
ATOM     14  C4  UA3 d          36.736   3.571  13.102  0.00  0.00     0.250 A 
ATOM     15  H1  UA3 d          38.524   4.435  13.642  0.00  0.00     0.173 HD
ATOM     16  O4  UA3 d          36.169   4.641  13.087  0.00  0.00    -0.268 OA
ATOM     17  C5  UA3 d          36.156   2.270  12.810  0.00  0.00    -0.002 A 
ATOM     18  C6  UA3 d          36.921   1.165  12.867  0.00  0.00    -0.008 A 
ATOM     19  H2  UA3 d          35.104   2.190  12.545  0.00  0.00     0.094 H 
ATOM     20  H3  UA3 d          36.466   0.201  12.645  0.00  0.00     0.112 H 
ENDBRANCH   5  10
BRANCH   4  21
ATOM     21  O2  UA3 d          37.206  -1.015  11.258  0.00  0.00    -0.388 OA
ATOM     22  H10 UA3 d          36.344  -1.393  11.387  0.00  0.00     0.210 HD
ENDBRANCH   4  21
BRANCH   1  23
ATOM     23  C5  UA3 d          41.111  -1.933  11.223  0.00  0.00     0.043 C 
ATOM     24  H5  UA3 d          40.761  -1.669  10.214  0.00  0.00     0.078 H 
ATOM     25  H6  UA3 d          42.059  -1.416  11.430  0.00  0.00     0.078 H 
BRANCH  23  26
ATOM     26  O5  UA3 d          41.407  -3.476  11.230  0.00  0.00    -0.398 OA
ATOM     27  H4  UA3 d          41.278  -3.819  12.106  0.00  0.00     0.209 HD
ENDBRANCH  23  26
ENDBRANCH   1  23
BRANCH   3  28
ATOM     28  O3  UA3 d          39.170  -3.344  13.705  0.00  0.00    -0.272 OA
BRANCH  28  29
ATOM     29  P   UA3 d          39.187  -4.849  13.777  0.00  0.00     0.422 P 
ATOM     30  O3P UA3 d          39.366  -5.348  12.264  0.00  0.00    -0.617 OA
ATOM     31  O1P UA3 d          37.913  -5.323  14.411  0.00  0.00    -0.617 OA
ATOM     32  O2P UA3 d          40.384  -5.292  14.576  0.00  0.00    -0.617 OA
ENDBRANCH  28  29
ENDBRANCH   3  28
TORSDOF 6
ENDMDL
MODEL 9
REMARK VINA RESULT:      -3.0      1.652      2.214
REMARK  6 active torsions:
REMARK  status: ('A' for Active; 'I' for Inactive)
REMARK    1  A    between atoms: C1_17  and  N1_1 
REMARK    2  A    between atoms: C5_10  and  O5_9 
REMARK    3  A    between atoms: C4_11  and  C5_10 
REMARK    4  A    between atoms: C3_13  and  O3_14 
REMARK    5  A    between atoms: O3_14  and  P_19 
REMARK    6  A    between atoms: C2_15  and  O2_16 
ROOT
ATOM      1  C4  UA3 d          39.332  -0.818  11.404  0.00  0.00     0.089 C 
ATOM      2  O4  UA3 d          38.490  -1.829  10.860  0.00  0.00    -0.353 OA
ATOM      3  C3  UA3 d          39.201  -0.090  12.565  0.00  0.00     0.107 C 
ATOM      4  C2  UA3 d          38.061  -1.247  13.202  0.00  0.00     0.106 C 
ATOM      5  C1  UA3 d          37.246  -1.529  11.753  0.00  0.00     0.141 C 
ATOM      6  H7  UA3 d          38.879  -0.025  10.792  0.00  0.00     0.090 H 
ATOM      7  H8  UA3 d          40.171  -0.149  13.079  0.00  0.00     0.092 H 
ATOM      8  H9  UA3 d          37.352  -0.768  13.893  0.00  0.00     0.093 H 
ATOM      9  H11 UA3 d          36.638  -0.693  11.376  0.00  0.00     0.123 H 
ENDROOT
BRANCH   5  10
ATOM     10  N1  UA3 d          36.464  -2.652  12.069  0.00  0.00    -0.280 N 
ATOM     11  C2  UA3 d          35.136  -2.662  11.551  0.00  0.00     0.331 A 
ATOM     12  O2  UA3 d          34.717  -1.790  10.877  0.00  0.00    -0.246 OA
ATOM     13  N3  UA3 d          34.407  -3.801  11.922  0.00  0.00    -0.275 N 
ATOM     14  C4  UA3 d          34.834  -4.883  12.724  0.00  0.00     0.250 A 
ATOM     15  H1  UA3 d          33.470  -3.854  11.577  0.00  0.00     0.173 HD
ATOM     16  O4  UA3 d          34.050  -5.781  12.935  0.00  0.00    -0.268 OA
ATOM     17  C5  UA3 d          36.199  -4.781  13.213  0.00  0.00    -0.002 A 
ATOM     18  C6  UA3 d          36.952  -3.714  12.889  0.00  0.00    -0.008 A 
ATOM     19  H2  UA3 d          36.613  -5.567  13.842  0.00  0.00     0.094 H 
ATOM     20  H3  UA3 d          37.972  -3.658  13.267  0.00  0.00     0.112 H 
ENDBRANCH   5  10
BRANCH   4  21
ATOM     21  O2  UA3 d          38.858  -2.364  14.105  0.00  0.00    -0.388 OA
ATOM     22  H10 UA3 d          38.959  -3.163  13.602  0.00  0.00     0.210 HD
ENDBRANCH   4  21
BRANCH   1  23
ATOM     23  C5  UA3 d          40.537  -0.769  10.830  0.00  0.00     0.043 C 
ATOM     24  H5  UA3 d          40.391  -0.447   9.788  0.00  0.00     0.078 H 
ATOM     25  H6  UA3 d          41.127  -0.014  11.368  0.00  0.00     0.078 H 
BRANCH  23  26
ATOM     26  O5  UA3 d          41.386  -2.091  10.798  0.00  0.00    -0.398 OA
ATOM     27  H4  UA3 d          41.423  -2.421   9.907  0.00  0.00     0.209 HD
ENDBRANCH  23  26
ENDBRANCH   1  23
BRANCH   3  28
ATOM     28  O3  UA3 d          38.725   1.342  12.873  0.00  0.00    -0.272 OA
BRANCH  28  29
ATOM     29  P   UA3 d          39.459   2.535  13.429  0.00  0.00     0.422 P 
ATOM     30  O3P UA3 d          40.909   1.993  13.842  0.00  0.00    -0.617 OA
ATOM     31  O1P UA3 d          38.681   3.092  14.586  0.00  0.00    -0.617 OA
ATOM     32  O2P UA3 d          39.620   3.566  12.344  0.00  0.00    -0.617 OA
ENDBRANCH  28  29
ENDBRANCH   3  28
TORSDOF 6
ENDMDL
MODEL 10
REMARK VINA RESULT:      -2.9      3.040      6.705
REMARK  6 active torsions:
REMARK  status: ('A' for Active; 'I' for Inactive)
REMARK    1  A    between atoms: C1_17  and  N1_1 
REMARK    2  A    between atoms: C5_10  and  O5_9 
REMARK    3  A    between atoms: C4_11  and  C5_10 
REMARK    4  A    between atoms: C3_13  and  O3_14 
REMARK    5  A    between atoms: O3_14  and  P_19 
REMARK    6  A    between atoms: C2_15  and  O2_16 
ROOT
ATOM      1  C4  UA3 d          36.422  -1.130  11.882  0.00  0.00     0.089 C 
ATOM      2  O4  UA3 d          36.954   0.089  11.373  0.00  0.00    -0.353 OA
ATOM      3  C3  UA3 d          37.008  -2.081  12.687  0.00  0.00     0.107 C 
ATOM      4  C2  UA3 d          38.244  -0.951  13.179  0.00  0.00     0.106 C 
ATOM      5  C1  UA3 d          38.453  -0.228  11.670  0.00  0.00     0.141 C 
ATOM      6  H7  UA3 d          36.657  -1.687  10.963  0.00  0.00     0.090 H 
ATOM      7  H8  UA3 d          36.295  -2.281  13.499  0.00  0.00     0.092 H 
ATOM      8  H9  UA3 d          39.181  -1.470  13.430  0.00  0.00     0.093 H 
ATOM      9  H11 UA3 d          38.919  -0.859  10.898  0.00  0.00     0.123 H 
ENDROOT
BRANCH   5  10
ATOM     10  N1  UA3 d          39.240   0.891  11.986  0.00  0.00    -0.280 N 
ATOM     11  C2  UA3 d          38.546   2.024  12.504  0.00  0.00     0.331 A 
ATOM     12  O2  UA3 d          37.381   2.022  12.678  0.00  0.00    -0.246 OA
ATOM     13  N3  UA3 d          39.390   3.109  12.778  0.00  0.00    -0.275 N 
ATOM     14  C4  UA3 d          40.789   3.191  12.595  0.00  0.00     0.250 A 
ATOM     15  H1  UA3 d          38.948   3.926  13.148  0.00  0.00     0.173 HD
ATOM     16  O4  UA3 d          41.344   4.225  12.894  0.00  0.00    -0.268 OA
ATOM     17  C5  UA3 d          41.407   1.990  12.056  0.00  0.00    -0.002 A 
ATOM     18  C6  UA3 d          40.652   0.913  11.775  0.00  0.00    -0.008 A 
ATOM     19  H2  UA3 d          42.481   1.963  11.879  0.00  0.00     0.094 H 
ATOM     20  H3  UA3 d          41.136   0.025  11.372  0.00  0.00     0.112 H 
ENDBRANCH   5  10
BRANCH   4  21
ATOM     21  O2  UA3 d          37.782  -0.199  14.564  0.00  0.00    -0.388 OA
ATOM     22  H10 UA3 d          38.313   0.578  14.694  0.00  0.00     0.210 HD
ENDBRANCH   4  21
BRANCH   1  23
ATOM     23  C5  UA3 d          35.094  -1.216  11.765  0.00  0.00     0.043 C 
ATOM     24  H5  UA3 d          34.724  -1.776  12.637  0.00  0.00     0.078 H 
ATOM     25  H6  UA3 d          34.696  -0.192  11.790  0.00  0.00     0.078 H 
BRANCH  23  26
ATOM     26  O5  UA3 d          34.517  -1.913  10.481  0.00  0.00    -0.398 OA
ATOM     27  H4  UA3 d          33.572  -1.814  10.465  0.00  0.00     0.209 HD
ENDBRANCH  23  26
ENDBRANCH   1  23
BRANCH   3  28
ATOM     28  O3  UA3 d          37.634  -3.462  12.419  0.00  0.00    -0.272 OA
BRANCH  28  29
ATOM     29  P   UA3 d          38.247  -4.474  13.352  0.00  0.00     0.422 P 
ATOM     30  O3P UA3 d          38.618  -5.734  12.433  0.00  0.00    -0.617 OA
ATOM     31  O1P UA3 d          37.261  -4.799  14.436  0.00  0.00    -0.617 OA
ATOM     32  O2P UA3 d          39.516  -3.908  13.930  0.00  0.00    -0.617 OA
ENDBRANCH  28  29
ENDBRANCH   3  28
TORSDOF 6
ENDMDL
