REMARK  8 active torsions:
REMARK  status: ('A' for Active; 'I' for Inactive)
REMARK    1  A    between atoms: CAF_6  and  OAA_1 
REMARK    2  A    between atoms: CAG_7  and  OAB_2 
REMARK    3  A    between atoms: CAJ_10  and  OAC_3 
REMARK    4  A    between atoms: CAK_11  and  OAD_4 
REMARK    5  A    between atoms: CAL_12  and  OAE_5 
REMARK    6  A    between atoms: CAH_8  and  CAF_6 
REMARK    7  A    between atoms: CAM_13  and  CAG_7 
REMARK    8  A    between atoms: NAN_14  and  CAH_8 
ROOT
ATOM      1  CAI MIG d          45.380  91.695  33.478  0.00  0.00     0.110 C 
ATOM      2  CAJ MIG d          46.570  92.656  33.252  0.00  0.00     0.086 C 
ATOM      3  CAK MIG d          47.393  92.821  34.536  0.00  0.00     0.088 C 
ATOM      4  CAL MIG d          46.463  93.333  35.654  0.00  0.00     0.092 C 
ATOM      5  CAM MIG d          45.251  92.390  35.835  0.00  0.00     0.151 C 
ATOM      6  NAN MIG d          44.550  92.283  34.517  0.00  0.00    -0.058 N 
ATOM      7  H12 MIG d          45.746  90.709  33.800  0.00  0.00     0.080 H 
ATOM      8  H13 MIG d          44.801  91.585  32.549  0.00  0.00     0.080 H 
ATOM      9  H14 MIG d          46.167  93.645  32.991  0.00  0.00     0.089 H 
ATOM     10  H15 MIG d          47.804  91.840  34.817  0.00  0.00     0.091 H 
ATOM     11  H16 MIG d          46.086  94.331  35.385  0.00  0.00     0.090 H 
ATOM     12  H17 MIG d          45.603  91.398  36.155  0.00  0.00     0.092 H 
ATOM     13  H18 MIG d          44.392  93.236  34.228  0.00  0.00     0.280 HD
ENDROOT
BRANCH   6  14
ATOM     14  CAH MIG d          43.204  91.670  34.575  0.00  0.00     0.103 C 
ATOM     15  H10 MIG d          42.583  92.256  35.268  0.00  0.00     0.079 H 
ATOM     16  H11 MIG d          42.761  91.703  33.569  0.00  0.00     0.079 H 
BRANCH  14  17
ATOM     17  CAF MIG d          43.223  90.215  35.050  0.00  0.00     0.039 C 
ATOM     18  H6  MIG d          44.258  89.849  35.120  0.00  0.00     0.076 H 
ATOM     19  H7  MIG d          42.735  90.127  36.032  0.00  0.00     0.076 H 
BRANCH  17  20
ATOM     20  OAA MIG d          42.501  89.475  34.070  0.00  0.00    -0.399 OA
ATOM     21  H1  MIG d          42.482  88.558  34.318  0.00  0.00     0.209 HD
ENDBRANCH  17  20
ENDBRANCH  14  17
ENDBRANCH   6  14
BRANCH   5  22
ATOM     22  CAG MIG d          44.264  92.936  36.873  0.00  0.00     0.046 C 
ATOM     23  H8  MIG d          43.555  92.145  37.159  0.00  0.00     0.077 H 
ATOM     24  H9  MIG d          44.814  93.275  37.763  0.00  0.00     0.077 H 
BRANCH  22  25
ATOM     25  OAB MIG d          43.540  94.054  36.293  0.00  0.00    -0.399 OA
ATOM     26  H2  MIG d          42.926  94.398  36.931  0.00  0.00     0.209 HD
ENDBRANCH  22  25
ENDBRANCH   5  22
BRANCH   2  27
ATOM     27  OAC MIG d          47.342  92.197  32.147  0.00  0.00    -0.391 OA
ATOM     28  H3  MIG d          48.074  92.786  32.007  0.00  0.00     0.210 HD
ENDBRANCH   2  27
BRANCH   4  29
ATOM     29  OAE MIG d          47.246  93.438  36.828  0.00  0.00    -0.391 OA
ATOM     30  H5  MIG d          47.959  94.048  36.678  0.00  0.00     0.210 HD
ENDBRANCH   4  29
BRANCH   3  31
ATOM     31  OAD MIG d          48.486  93.759  34.400  0.00  0.00    -0.390 OA
ATOM     32  H4  MIG d          48.956  93.818  35.224  0.00  0.00     0.210 HD
ENDBRANCH   3  31
TORSDOF 8
