MODEL 1
REMARK VINA RESULT:      -6.0      0.000      0.000
REMARK  8 active torsions:
REMARK  status: ('A' for Active; 'I' for Inactive)
REMARK    1  A    between atoms: CAF_6  and  OAA_1 
REMARK    2  A    between atoms: CAG_7  and  OAB_2 
REMARK    3  A    between atoms: CAJ_10  and  OAC_3 
REMARK    4  A    between atoms: CAK_11  and  OAD_4 
REMARK    5  A    between atoms: CAL_12  and  OAE_5 
REMARK    6  A    between atoms: CAH_8  and  CAF_6 
REMARK    7  A    between atoms: CAM_13  and  CAG_7 
REMARK    8  A    between atoms: NAN_14  and  CAH_8 
ROOT
ATOM      1  CAI MIG d          45.279  91.411  33.509  0.00  0.00     0.110 C 
ATOM      2  CAJ MIG d          46.404  92.432  33.221  0.00  0.00     0.086 C 
ATOM      3  CAK MIG d          47.237  92.700  34.481  0.00  0.00     0.088 C 
ATOM      4  CAL MIG d          46.296  93.202  35.594  0.00  0.00     0.092 C 
ATOM      5  CAM MIG d          45.146  92.196  35.837  0.00  0.00     0.151 C 
ATOM      6  NAN MIG d          44.432  91.992  34.538  0.00  0.00    -0.058 N 
ATOM      7  H12 MIG d          45.709  90.464  33.864  0.00  0.00     0.080 H 
ATOM      8  H13 MIG d          44.692  91.228  32.596  0.00  0.00     0.080 H 
ATOM      9  H14 MIG d          45.938  93.383  32.927  0.00  0.00     0.089 H 
ATOM     10  H15 MIG d          47.711  91.758  34.795  0.00  0.00     0.091 H 
ATOM     11  H16 MIG d          45.855  94.163  35.292  0.00  0.00     0.090 H 
ATOM     12  H17 MIG d          45.563  91.242  36.191  0.00  0.00     0.092 H 
ATOM     13  H18 MIG d          44.212  92.921  34.213  0.00  0.00     0.280 HD
ENDROOT
BRANCH   6  14
ATOM     14  CAH MIG d          43.126  91.303  34.647  0.00  0.00     0.103 C 
ATOM     15  H10 MIG d          42.698  91.520  35.636  0.00  0.00     0.079 H 
ATOM     16  H11 MIG d          42.459  91.692  33.864  0.00  0.00     0.079 H 
BRANCH  14  17
ATOM     17  CAF MIG d          43.230  89.784  34.485  0.00  0.00     0.039 C 
ATOM     18  H6  MIG d          42.271  89.370  34.141  0.00  0.00     0.076 H 
ATOM     19  H7  MIG d          44.021  89.530  33.763  0.00  0.00     0.076 H 
BRANCH  17  20
ATOM     20  OAA MIG d          43.556  89.275  35.775  0.00  0.00    -0.399 OA
ATOM     21  H1  MIG d          44.487  89.090  35.816  0.00  0.00     0.209 HD
ENDBRANCH  17  20
ENDBRANCH  14  17
ENDBRANCH   6  14
BRANCH   5  22
ATOM     22  CAG MIG d          44.145  92.726  36.870  0.00  0.00     0.046 C 
ATOM     23  H8  MIG d          43.308  92.019  36.968  0.00  0.00     0.077 H 
ATOM     24  H9  MIG d          44.645  92.840  37.843  0.00  0.00     0.077 H 
BRANCH  22  25
ATOM     25  OAB MIG d          43.646  94.015  36.425  0.00  0.00    -0.399 OA
ATOM     26  H2  MIG d          42.841  93.891  35.936  0.00  0.00     0.209 HD
ENDBRANCH  22  25
ENDBRANCH   5  22
BRANCH   2  27
ATOM     27  OAC MIG d          47.185  91.973  32.121  0.00  0.00    -0.391 OA
ATOM     28  H3  MIG d          47.987  91.581  32.445  0.00  0.00     0.210 HD
ENDBRANCH   2  27
BRANCH   4  29
ATOM     29  OAE MIG d          47.090  93.403  36.748  0.00  0.00    -0.391 OA
ATOM     30  H5  MIG d          47.800  92.772  36.756  0.00  0.00     0.210 HD
ENDBRANCH   4  29
BRANCH   3  31
ATOM     31  OAD MIG d          48.269  93.695  34.286  0.00  0.00    -0.390 OA
ATOM     32  H4  MIG d          47.910  94.430  33.802  0.00  0.00     0.210 HD
ENDBRANCH   3  31
TORSDOF 8
ENDMDL
MODEL 2
REMARK VINA RESULT:      -5.3      1.398      3.346
REMARK  8 active torsions:
REMARK  status: ('A' for Active; 'I' for Inactive)
REMARK    1  A    between atoms: CAF_6  and  OAA_1 
REMARK    2  A    between atoms: CAG_7  and  OAB_2 
REMARK    3  A    between atoms: CAJ_10  and  OAC_3 
REMARK    4  A    between atoms: CAK_11  and  OAD_4 
REMARK    5  A    between atoms: CAL_12  and  OAE_5 
REMARK    6  A    between atoms: CAH_8  and  CAF_6 
REMARK    7  A    between atoms: CAM_13  and  CAG_7 
REMARK    8  A    between atoms: NAN_14  and  CAH_8 
ROOT
ATOM      1  CAI MIG d          45.260  92.768  36.243  0.00  0.00     0.110 C 
ATOM      2  CAJ MIG d          46.789  92.731  36.015  0.00  0.00     0.086 C 
ATOM      3  CAK MIG d          47.130  92.985  34.541  0.00  0.00     0.088 C 
ATOM      4  CAL MIG d          46.409  91.929  33.681  0.00  0.00     0.092 C 
ATOM      5  CAM MIG d          44.887  91.942  33.955  0.00  0.00     0.151 C 
ATOM      6  NAN MIG d          44.682  91.717  35.421  0.00  0.00    -0.058 N 
ATOM      7  H12 MIG d          44.857  93.747  35.944  0.00  0.00     0.080 H 
ATOM      8  H13 MIG d          45.031  92.587  37.304  0.00  0.00     0.080 H 
ATOM      9  H14 MIG d          47.148  91.723  36.267  0.00  0.00     0.089 H 
ATOM     10  H15 MIG d          46.775  93.990  34.268  0.00  0.00     0.091 H 
ATOM     11  H16 MIG d          46.796  90.929  33.931  0.00  0.00     0.090 H 
ATOM     12  H17 MIG d          44.471  92.917  33.662  0.00  0.00     0.092 H 
ATOM     13  H18 MIG d          45.212  90.887  35.634  0.00  0.00     0.280 HD
ENDROOT
BRANCH   6  14
ATOM     14  CAH MIG d          43.291  91.398  35.813  0.00  0.00     0.103 C 
ATOM     15  H10 MIG d          42.767  90.987  34.938  0.00  0.00     0.079 H 
ATOM     16  H11 MIG d          43.318  90.642  36.612  0.00  0.00     0.079 H 
BRANCH  14  17
ATOM     17  CAF MIG d          42.512  92.614  36.321  0.00  0.00     0.039 C 
ATOM     18  H6  MIG d          41.707  92.296  37.000  0.00  0.00     0.076 H 
ATOM     19  H7  MIG d          43.185  93.306  36.848  0.00  0.00     0.076 H 
BRANCH  17  20
ATOM     20  OAA MIG d          41.966  93.238  35.163  0.00  0.00    -0.399 OA
ATOM     21  H1  MIG d          42.638  93.306  34.494  0.00  0.00     0.209 HD
ENDBRANCH  17  20
ENDBRANCH  14  17
ENDBRANCH   6  14
BRANCH   5  22
ATOM     22  CAG MIG d          44.167  90.831  33.183  0.00  0.00     0.046 C 
ATOM     23  H8  MIG d          43.356  90.419  33.801  0.00  0.00     0.077 H 
ATOM     24  H9  MIG d          43.747  91.240  32.253  0.00  0.00     0.077 H 
BRANCH  22  25
ATOM     25  OAB MIG d          45.121  89.782  32.866  0.00  0.00    -0.399 OA
ATOM     26  H2  MIG d          45.735  90.099  32.214  0.00  0.00     0.209 HD
ENDBRANCH  22  25
ENDBRANCH   5  22
BRANCH   2  27
ATOM     27  OAC MIG d          47.419  93.650  36.902  0.00  0.00    -0.391 OA
ATOM     28  H3  MIG d          47.080  93.524  37.781  0.00  0.00     0.210 HD
ENDBRANCH   2  27
BRANCH   4  29
ATOM     29  OAE MIG d          46.717  92.215  32.329  0.00  0.00    -0.391 OA
ATOM     30  H5  MIG d          46.628  93.149  32.177  0.00  0.00     0.210 HD
ENDBRANCH   4  29
BRANCH   3  31
ATOM     31  OAD MIG d          48.546  92.901  34.258  0.00  0.00    -0.390 OA
ATOM     32  H4  MIG d          48.895  93.776  34.129  0.00  0.00     0.210 HD
ENDBRANCH   3  31
TORSDOF 8
ENDMDL
MODEL 3
REMARK VINA RESULT:      -4.7      1.647      4.032
REMARK  8 active torsions:
REMARK  status: ('A' for Active; 'I' for Inactive)
REMARK    1  A    between atoms: CAF_6  and  OAA_1 
REMARK    2  A    between atoms: CAG_7  and  OAB_2 
REMARK    3  A    between atoms: CAJ_10  and  OAC_3 
REMARK    4  A    between atoms: CAK_11  and  OAD_4 
REMARK    5  A    between atoms: CAL_12  and  OAE_5 
REMARK    6  A    between atoms: CAH_8  and  CAF_6 
REMARK    7  A    between atoms: CAM_13  and  CAG_7 
REMARK    8  A    between atoms: NAN_14  and  CAH_8 
ROOT
ATOM      1  CAI MIG d          45.601  91.076  33.341  0.00  0.00     0.110 C 
ATOM      2  CAJ MIG d          44.626  89.893  33.541  0.00  0.00     0.086 C 
ATOM      3  CAK MIG d          43.350  90.350  34.260  0.00  0.00     0.088 C 
ATOM      4  CAL MIG d          43.746  90.986  35.608  0.00  0.00     0.092 C 
ATOM      5  CAM MIG d          44.760  92.134  35.397  0.00  0.00     0.151 C 
ATOM      6  NAN MIG d          45.940  91.577  34.663  0.00  0.00    -0.058 N 
ATOM      7  H12 MIG d          45.119  91.867  32.749  0.00  0.00     0.080 H 
ATOM      8  H13 MIG d          46.509  90.733  32.822  0.00  0.00     0.080 H 
ATOM      9  H14 MIG d          45.117  89.149  34.185  0.00  0.00     0.089 H 
ATOM     10  H15 MIG d          42.843  91.099  33.633  0.00  0.00     0.091 H 
ATOM     11  H16 MIG d          44.217  90.223  36.246  0.00  0.00     0.090 H 
ATOM     12  H17 MIG d          44.291  92.933  34.804  0.00  0.00     0.092 H 
ATOM     13  H18 MIG d          46.218  90.767  35.194  0.00  0.00     0.280 HD
ENDROOT
BRANCH   6  14
ATOM     14  CAH MIG d          47.132  92.453  34.643  0.00  0.00     0.103 C 
ATOM     15  H10 MIG d          47.139  93.055  35.564  0.00  0.00     0.079 H 
ATOM     16  H11 MIG d          48.031  91.820  34.613  0.00  0.00     0.079 H 
BRANCH  14  17
ATOM     17  CAF MIG d          47.165  93.402  33.442  0.00  0.00     0.039 C 
ATOM     18  H6  MIG d          48.196  93.727  33.239  0.00  0.00     0.076 H 
ATOM     19  H7  MIG d          46.754  92.904  32.551  0.00  0.00     0.076 H 
BRANCH  17  20
ATOM     20  OAA MIG d          46.356  94.517  33.803  0.00  0.00    -0.399 OA
ATOM     21  H1  MIG d          46.375  94.628  34.746  0.00  0.00     0.209 HD
ENDBRANCH  17  20
ENDBRANCH  14  17
ENDBRANCH   6  14
BRANCH   5  22
ATOM     22  CAG MIG d          45.242  92.711  36.733  0.00  0.00     0.046 C 
ATOM     23  H8  MIG d          45.610  91.897  37.375  0.00  0.00     0.077 H 
ATOM     24  H9  MIG d          46.053  93.432  36.553  0.00  0.00     0.077 H 
BRANCH  22  25
ATOM     25  OAB MIG d          44.130  93.382  37.384  0.00  0.00    -0.399 OA
ATOM     26  H2  MIG d          43.900  94.162  36.893  0.00  0.00     0.209 HD
ENDBRANCH  22  25
ENDBRANCH   5  22
BRANCH   2  27
ATOM     27  OAC MIG d          44.369  89.276  32.284  0.00  0.00    -0.391 OA
ATOM     28  H3  MIG d          45.170  88.885  31.955  0.00  0.00     0.210 HD
ENDBRANCH   2  27
BRANCH   4  29
ATOM     29  OAE MIG d          42.551  91.427  36.225  0.00  0.00    -0.391 OA
ATOM     30  H5  MIG d          41.959  90.691  36.328  0.00  0.00     0.210 HD
ENDBRANCH   4  29
BRANCH   3  31
ATOM     31  OAD MIG d          42.426  89.271  34.530  0.00  0.00    -0.390 OA
ATOM     32  H4  MIG d          42.136  88.890  33.709  0.00  0.00     0.210 HD
ENDBRANCH   3  31
TORSDOF 8
ENDMDL
MODEL 4
REMARK VINA RESULT:      -4.0      1.574      4.857
REMARK  8 active torsions:
REMARK  status: ('A' for Active; 'I' for Inactive)
REMARK    1  A    between atoms: CAF_6  and  OAA_1 
REMARK    2  A    between atoms: CAG_7  and  OAB_2 
REMARK    3  A    between atoms: CAJ_10  and  OAC_3 
REMARK    4  A    between atoms: CAK_11  and  OAD_4 
REMARK    5  A    between atoms: CAL_12  and  OAE_5 
REMARK    6  A    between atoms: CAH_8  and  CAF_6 
REMARK    7  A    between atoms: CAM_13  and  CAG_7 
REMARK    8  A    between atoms: NAN_14  and  CAH_8 
ROOT
ATOM      1  CAI MIG d          45.802  92.595  35.505  0.00  0.00     0.110 C 
ATOM      2  CAJ MIG d          44.474  92.888  36.240  0.00  0.00     0.086 C 
ATOM      3  CAK MIG d          43.567  91.651  36.248  0.00  0.00     0.088 C 
ATOM      4  CAL MIG d          43.318  91.215  34.790  0.00  0.00     0.092 C 
ATOM      5  CAM MIG d          44.655  90.974  34.052  0.00  0.00     0.151 C 
ATOM      6  NAN MIG d          45.462  92.232  34.139  0.00  0.00    -0.058 N 
ATOM      7  H12 MIG d          46.331  91.764  35.996  0.00  0.00     0.080 H 
ATOM      8  H13 MIG d          46.442  93.490  35.510  0.00  0.00     0.080 H 
ATOM      9  H14 MIG d          43.945  93.679  35.690  0.00  0.00     0.089 H 
ATOM     10  H15 MIG d          44.080  90.844  36.792  0.00  0.00     0.091 H 
ATOM     11  H16 MIG d          42.770  92.009  34.261  0.00  0.00     0.090 H 
ATOM     12  H17 MIG d          45.196  90.147  34.535  0.00  0.00     0.092 H 
ATOM     13  H18 MIG d          44.845  92.960  33.813  0.00  0.00     0.280 HD
ENDROOT
BRANCH   6  14
ATOM     14  CAH MIG d          46.632  92.285  33.235  0.00  0.00     0.103 C 
ATOM     15  H10 MIG d          47.267  91.410  33.433  0.00  0.00     0.079 H 
ATOM     16  H11 MIG d          46.273  92.249  32.196  0.00  0.00     0.079 H 
BRANCH  14  17
ATOM     17  CAF MIG d          47.477  93.549  33.414  0.00  0.00     0.039 C 
ATOM     18  H6  MIG d          47.810  93.928  32.437  0.00  0.00     0.076 H 
ATOM     19  H7  MIG d          46.895  94.327  33.931  0.00  0.00     0.076 H 
BRANCH  17  20
ATOM     20  OAA MIG d          48.597  93.162  34.204  0.00  0.00    -0.399 OA
ATOM     21  H1  MIG d          48.322  92.517  34.846  0.00  0.00     0.209 HD
ENDBRANCH  17  20
ENDBRANCH  14  17
ENDBRANCH   6  14
BRANCH   5  22
ATOM     22  CAG MIG d          44.429  90.637  32.574  0.00  0.00     0.046 C 
ATOM     23  H8  MIG d          43.361  90.740  32.332  0.00  0.00     0.077 H 
ATOM     24  H9  MIG d          45.015  91.323  31.945  0.00  0.00     0.077 H 
BRANCH  22  25
ATOM     25  OAB MIG d          44.856  89.270  32.331  0.00  0.00    -0.399 OA
ATOM     26  H2  MIG d          44.871  88.793  33.152  0.00  0.00     0.209 HD
ENDBRANCH  22  25
ENDBRANCH   5  22
BRANCH   2  27
ATOM     27  OAC MIG d          44.757  93.383  37.545  0.00  0.00    -0.391 OA
ATOM     28  H3  MIG d          45.676  93.244  37.742  0.00  0.00     0.210 HD
ENDBRANCH   2  27
BRANCH   4  29
ATOM     29  OAE MIG d          42.510  90.053  34.838  0.00  0.00    -0.391 OA
ATOM     30  H5  MIG d          43.052  89.287  34.689  0.00  0.00     0.210 HD
ENDBRANCH   4  29
BRANCH   3  31
ATOM     31  OAD MIG d          42.282  91.885  36.870  0.00  0.00    -0.390 OA
ATOM     32  H4  MIG d          41.904  91.055  37.136  0.00  0.00     0.210 HD
ENDBRANCH   3  31
TORSDOF 8
ENDMDL
MODEL 5
REMARK VINA RESULT:      -3.3      1.224      4.113
REMARK  8 active torsions:
REMARK  status: ('A' for Active; 'I' for Inactive)
REMARK    1  A    between atoms: CAF_6  and  OAA_1 
REMARK    2  A    between atoms: CAG_7  and  OAB_2 
REMARK    3  A    between atoms: CAJ_10  and  OAC_3 
REMARK    4  A    between atoms: CAK_11  and  OAD_4 
REMARK    5  A    between atoms: CAL_12  and  OAE_5 
REMARK    6  A    between atoms: CAH_8  and  CAF_6 
REMARK    7  A    between atoms: CAM_13  and  CAG_7 
REMARK    8  A    between atoms: NAN_14  and  CAH_8 
ROOT
ATOM      1  CAI MIG d          45.196  90.794  34.340  0.00  0.00     0.110 C 
ATOM      2  CAJ MIG d          44.148  90.399  35.406  0.00  0.00     0.086 C 
ATOM      3  CAK MIG d          43.345  91.623  35.865  0.00  0.00     0.088 C 
ATOM      4  CAL MIG d          44.327  92.681  36.408  0.00  0.00     0.092 C 
ATOM      5  CAM MIG d          45.399  93.029  35.349  0.00  0.00     0.151 C 
ATOM      6  NAN MIG d          46.089  91.760  34.959  0.00  0.00    -0.058 N 
ATOM      7  H12 MIG d          44.697  91.244  33.469  0.00  0.00     0.080 H 
ATOM      8  H13 MIG d          45.762  89.907  34.019  0.00  0.00     0.080 H 
ATOM      9  H14 MIG d          44.683  90.010  36.284  0.00  0.00     0.089 H 
ATOM     10  H15 MIG d          42.803  92.031  34.999  0.00  0.00     0.091 H 
ATOM     11  H16 MIG d          44.837  92.281  37.297  0.00  0.00     0.090 H 
ATOM     12  H17 MIG d          44.914  93.479  34.470  0.00  0.00     0.092 H 
ATOM     13  H18 MIG d          46.377  91.341  35.830  0.00  0.00     0.280 HD
ENDROOT
BRANCH   6  14
ATOM     14  CAH MIG d          47.340  91.942  34.188  0.00  0.00     0.103 C 
ATOM     15  H10 MIG d          48.157  92.151  34.893  0.00  0.00     0.079 H 
ATOM     16  H11 MIG d          47.554  91.011  33.644  0.00  0.00     0.079 H 
BRANCH  14  17
ATOM     17  CAF MIG d          47.264  93.090  33.177  0.00  0.00     0.039 C 
ATOM     18  H6  MIG d          46.472  93.798  33.461  0.00  0.00     0.076 H 
ATOM     19  H7  MIG d          48.228  93.618  33.126  0.00  0.00     0.076 H 
BRANCH  17  20
ATOM     20  OAA MIG d          46.963  92.485  31.923  0.00  0.00    -0.399 OA
ATOM     21  H1  MIG d          46.838  91.551  32.045  0.00  0.00     0.209 HD
ENDBRANCH  17  20
ENDBRANCH  14  17
ENDBRANCH   6  14
BRANCH   5  22
ATOM     22  CAG MIG d          46.442  94.004  35.906  0.00  0.00     0.046 C 
ATOM     23  H8  MIG d          47.080  94.369  35.087  0.00  0.00     0.077 H 
ATOM     24  H9  MIG d          45.935  94.855  36.383  0.00  0.00     0.077 H 
BRANCH  22  25
ATOM     25  OAB MIG d          47.258  93.312  36.888  0.00  0.00    -0.399 OA
ATOM     26  H2  MIG d          47.990  93.864  37.136  0.00  0.00     0.209 HD
ENDBRANCH  22  25
ENDBRANCH   5  22
BRANCH   2  27
ATOM     27  OAC MIG d          43.330  89.351  34.897  0.00  0.00    -0.391 OA
ATOM     28  H3  MIG d          43.050  89.569  34.016  0.00  0.00     0.210 HD
ENDBRANCH   2  27
BRANCH   4  29
ATOM     29  OAE MIG d          43.556  93.806  36.786  0.00  0.00    -0.391 OA
ATOM     30  H5  MIG d          42.637  93.565  36.807  0.00  0.00     0.210 HD
ENDBRANCH   4  29
BRANCH   3  31
ATOM     31  OAD MIG d          42.389  91.323  36.909  0.00  0.00    -0.390 OA
ATOM     32  H4  MIG d          42.854  91.114  37.712  0.00  0.00     0.210 HD
ENDBRANCH   3  31
TORSDOF 8
ENDMDL
MODEL 6
REMARK VINA RESULT:      -3.3      1.756      3.819
REMARK  8 active torsions:
REMARK  status: ('A' for Active; 'I' for Inactive)
REMARK    1  A    between atoms: CAF_6  and  OAA_1 
REMARK    2  A    between atoms: CAG_7  and  OAB_2 
REMARK    3  A    between atoms: CAJ_10  and  OAC_3 
REMARK    4  A    between atoms: CAK_11  and  OAD_4 
REMARK    5  A    between atoms: CAL_12  and  OAE_5 
REMARK    6  A    between atoms: CAH_8  and  CAF_6 
REMARK    7  A    between atoms: CAM_13  and  CAG_7 
REMARK    8  A    between atoms: NAN_14  and  CAH_8 
ROOT
ATOM      1  CAI MIG d          43.502  90.868  35.463  0.00  0.00     0.110 C 
ATOM      2  CAJ MIG d          43.394  91.843  36.658  0.00  0.00     0.086 C 
ATOM      3  CAK MIG d          43.799  93.264  36.246  0.00  0.00     0.088 C 
ATOM      4  CAL MIG d          45.234  93.223  35.683  0.00  0.00     0.092 C 
ATOM      5  CAM MIG d          45.340  92.208  34.522  0.00  0.00     0.151 C 
ATOM      6  NAN MIG d          44.892  90.875  35.034  0.00  0.00    -0.058 N 
ATOM      7  H12 MIG d          42.852  91.204  34.641  0.00  0.00     0.080 H 
ATOM      8  H13 MIG d          43.207  89.855  35.773  0.00  0.00     0.080 H 
ATOM      9  H14 MIG d          44.099  91.513  37.434  0.00  0.00     0.089 H 
ATOM     10  H15 MIG d          43.106  93.613  35.466  0.00  0.00     0.091 H 
ATOM     11  H16 MIG d          45.927  92.911  36.479  0.00  0.00     0.090 H 
ATOM     12  H17 MIG d          44.692  92.530  33.693  0.00  0.00     0.092 H 
ATOM     13  H18 MIG d          45.432  90.722  35.871  0.00  0.00     0.280 HD
ENDROOT
BRANCH   6  14
ATOM     14  CAH MIG d          45.213  89.729  34.153  0.00  0.00     0.103 C 
ATOM     15  H10 MIG d          46.032  90.024  33.481  0.00  0.00     0.079 H 
ATOM     16  H11 MIG d          45.539  88.887  34.780  0.00  0.00     0.079 H 
BRANCH  14  17
ATOM     17  CAF MIG d          44.026  89.270  33.302  0.00  0.00     0.039 C 
ATOM     18  H6  MIG d          43.724  88.251  33.585  0.00  0.00     0.076 H 
ATOM     19  H7  MIG d          43.175  89.955  33.432  0.00  0.00     0.076 H 
BRANCH  17  20
ATOM     20  OAA MIG d          44.481  89.296  31.952  0.00  0.00    -0.399 OA
ATOM     21  H1  MIG d          43.884  89.818  31.428  0.00  0.00     0.209 HD
ENDBRANCH  17  20
ENDBRANCH  14  17
ENDBRANCH   6  14
BRANCH   5  22
ATOM     22  CAG MIG d          46.782  92.080  34.017  0.00  0.00     0.046 C 
ATOM     23  H8  MIG d          47.400  92.872  34.465  0.00  0.00     0.077 H 
ATOM     24  H9  MIG d          47.185  91.096  34.297  0.00  0.00     0.077 H 
BRANCH  22  25
ATOM     25  OAB MIG d          46.788  92.216  32.570  0.00  0.00    -0.399 OA
ATOM     26  H2  MIG d          46.941  93.124  32.339  0.00  0.00     0.209 HD
ENDBRANCH  22  25
ENDBRANCH   5  22
BRANCH   2  27
ATOM     27  OAC MIG d          42.082  91.771  37.206  0.00  0.00    -0.391 OA
ATOM     28  H3  MIG d          42.069  91.137  37.913  0.00  0.00     0.210 HD
ENDBRANCH   2  27
BRANCH   4  29
ATOM     29  OAE MIG d          45.558  94.540  35.281  0.00  0.00    -0.391 OA
ATOM     30  H5  MIG d          45.723  94.553  34.345  0.00  0.00     0.210 HD
ENDBRANCH   4  29
BRANCH   3  31
ATOM     31  OAD MIG d          43.775  94.208  37.342  0.00  0.00    -0.390 OA
ATOM     32  H4  MIG d          42.875  94.373  37.597  0.00  0.00     0.210 HD
ENDBRANCH   3  31
TORSDOF 8
ENDMDL
MODEL 7
REMARK VINA RESULT:      -3.1      1.582      3.889
REMARK  8 active torsions:
REMARK  status: ('A' for Active; 'I' for Inactive)
REMARK    1  A    between atoms: CAF_6  and  OAA_1 
REMARK    2  A    between atoms: CAG_7  and  OAB_2 
REMARK    3  A    between atoms: CAJ_10  and  OAC_3 
REMARK    4  A    between atoms: CAK_11  and  OAD_4 
REMARK    5  A    between atoms: CAL_12  and  OAE_5 
REMARK    6  A    between atoms: CAH_8  and  CAF_6 
REMARK    7  A    between atoms: CAM_13  and  CAG_7 
REMARK    8  A    between atoms: NAN_14  and  CAH_8 
ROOT
ATOM      1  CAI MIG d          45.521  91.597  33.223  0.00  0.00     0.110 C 
ATOM      2  CAJ MIG d          44.919  90.264  33.726  0.00  0.00     0.086 C 
ATOM      3  CAK MIG d          43.508  90.479  34.288  0.00  0.00     0.088 C 
ATOM      4  CAL MIG d          43.582  91.523  35.420  0.00  0.00     0.092 C 
ATOM      5  CAM MIG d          44.233  92.832  34.917  0.00  0.00     0.151 C 
ATOM      6  NAN MIG d          45.583  92.494  34.366  0.00  0.00    -0.058 N 
ATOM      7  H12 MIG d          44.883  92.028  32.438  0.00  0.00     0.080 H 
ATOM      8  H13 MIG d          46.531  91.427  32.821  0.00  0.00     0.080 H 
ATOM      9  H14 MIG d          45.547  89.893  34.548  0.00  0.00     0.089 H 
ATOM     10  H15 MIG d          42.862  90.854  33.480  0.00  0.00     0.091 H 
ATOM     11  H16 MIG d          44.198  91.126  36.241  0.00  0.00     0.090 H 
ATOM     12  H17 MIG d          43.606  93.274  34.128  0.00  0.00     0.092 H 
ATOM     13  H18 MIG d          46.038  91.968  35.096  0.00  0.00     0.280 HD
ENDROOT
BRANCH   6  14
ATOM     14  CAH MIG d          46.465  93.656  34.121  0.00  0.00     0.103 C 
ATOM     15  H10 MIG d          46.872  93.577  33.102  0.00  0.00     0.079 H 
ATOM     16  H11 MIG d          45.866  94.574  34.206  0.00  0.00     0.079 H 
BRANCH  14  17
ATOM     17  CAF MIG d          47.634  93.746  35.105  0.00  0.00     0.039 C 
ATOM     18  H6  MIG d          48.555  93.361  34.642  0.00  0.00     0.076 H 
ATOM     19  H7  MIG d          47.789  94.788  35.421  0.00  0.00     0.076 H 
BRANCH  17  20
ATOM     20  OAA MIG d          47.266  92.940  36.221  0.00  0.00    -0.399 OA
ATOM     21  H1  MIG d          47.940  92.288  36.375  0.00  0.00     0.209 HD
ENDBRANCH  17  20
ENDBRANCH  14  17
ENDBRANCH   6  14
BRANCH   5  22
ATOM     22  CAG MIG d          44.407  93.846  36.053  0.00  0.00     0.046 C 
ATOM     23  H8  MIG d          45.373  94.361  35.943  0.00  0.00     0.077 H 
ATOM     24  H9  MIG d          43.593  94.584  36.017  0.00  0.00     0.077 H 
BRANCH  22  25
ATOM     25  OAB MIG d          44.371  93.142  37.323  0.00  0.00    -0.399 OA
ATOM     26  H2  MIG d          44.494  93.762  38.032  0.00  0.00     0.209 HD
ENDBRANCH  22  25
ENDBRANCH   5  22
BRANCH   2  27
ATOM     27  OAC MIG d          44.964  89.302  32.677  0.00  0.00    -0.391 OA
ATOM     28  H3  MIG d          44.108  89.240  32.269  0.00  0.00     0.210 HD
ENDBRANCH   2  27
BRANCH   4  29
ATOM     29  OAE MIG d          42.262  91.721  35.888  0.00  0.00    -0.391 OA
ATOM     30  H5  MIG d          42.187  92.591  36.262  0.00  0.00     0.210 HD
ENDBRANCH   4  29
BRANCH   3  31
ATOM     31  OAD MIG d          42.918  89.274  34.830  0.00  0.00    -0.390 OA
ATOM     32  H4  MIG d          42.919  89.321  35.780  0.00  0.00     0.210 HD
ENDBRANCH   3  31
TORSDOF 8
ENDMDL
