REMARK  3 active torsions:
REMARK  status: ('A' for Active; 'I' for Inactive)
REMARK    1  A    between atoms: C10_12  and  C9_11 
REMARK    2  A    between atoms: C12_14  and  N2_15 
REMARK    3  A    between atoms: C14_17  and  C15_18 
ROOT
ATOM      1  C1  HUP d           0.726  68.848  60.595  0.00  0.00     0.245 A 
ATOM      2  O1  HUP d           0.265  69.331  59.526  0.00  0.00    -0.268 OA
ATOM      3  N1  HUP d           2.007  68.291  60.614  0.00  0.00    -0.327 N 
ATOM      4  C2  HUP d           0.003  68.825  61.859  0.00  0.00    -0.017 A 
ATOM      5  C3  HUP d           0.576  68.272  62.986  0.00  0.00    -0.067 A 
ATOM      6  C4  HUP d           1.908  67.694  62.988  0.00  0.00     0.005 A 
ATOM      7  C5  HUP d           2.624  67.723  61.749  0.00  0.00     0.022 A 
ATOM      8  C6  HUP d           4.017  67.169  61.560  0.00  0.00    -0.016 C 
ATOM      9  C7  HUP d           4.657  66.598  62.902  0.00  0.00    -0.008 C 
ATOM     10  C8  HUP d           5.376  67.694  63.716  0.00  0.00    -0.093 C 
ATOM     11  C10 HUP d           3.463  64.691  64.143  0.00  0.00    -0.101 C 
ATOM     12  C11 HUP d           3.563  65.967  63.794  0.00  0.00    -0.036 C 
ATOM     13  C12 HUP d           2.569  67.047  64.283  0.00  0.00     0.179 C 
ATOM     14  C13 HUP d           3.321  68.130  65.111  0.00  0.00    -0.006 C 
ATOM     15  C14 HUP d           4.765  68.387  64.718  0.00  0.00    -0.084 C 
ATOM     16  H1  HUP d           2.526  68.295  59.759  0.00  0.00     0.169 HD
ATOM     17  H2  HUP d          -0.999  69.248  61.915  0.00  0.00     0.092 H 
ATOM     18  H3  HUP d           0.005  68.269  63.913  0.00  0.00     0.084 H 
ATOM     19  H4  HUP d           4.664  67.973  61.180  0.00  0.00     0.043 H 
ATOM     20  H5  HUP d           3.971  66.355  60.821  0.00  0.00     0.043 H 
ATOM     21  H6  HUP d           5.390  65.823  62.632  0.00  0.00     0.053 H 
ATOM     22  H7  HUP d           6.414  67.923  63.480  0.00  0.00     0.078 H 
ATOM     23  H11 HUP d           2.633  64.440  64.802  0.00  0.00     0.076 H 
ATOM     24  H15 HUP d           3.310  67.815  66.165  0.00  0.00     0.044 H 
ATOM     25  H16 HUP d           2.770  69.076  65.005  0.00  0.00     0.044 H 
ENDROOT
BRANCH  13  26
ATOM     26  N2  HUP d           1.508  66.456  65.146  0.00  0.00    -0.062 N 
ATOM     27  H12 HUP d           0.877  67.182  65.448  0.00  0.00     0.276 HD
ATOM     28  H13 HUP d           1.932  66.023  65.951  0.00  0.00     0.276 HD
ATOM     29  H14 HUP d           0.996  65.763  64.623  0.00  0.00     0.276 HD
ENDBRANCH  13  26
BRANCH  11  30
ATOM     30  C9  HUP d           4.352  63.553  63.742  0.00  0.00    -0.059 C 
ATOM     31  H8  HUP d           3.990  62.624  64.207  0.00  0.00     0.032 H 
ATOM     32  H9  HUP d           5.380  63.755  64.078  0.00  0.00     0.032 H 
ATOM     33  H10 HUP d           4.338  63.445  62.647  0.00  0.00     0.032 H 
ENDBRANCH  11  30
BRANCH  15  34
ATOM     34  C15 HUP d           5.453  69.459  65.536  0.00  0.00    -0.055 C 
ATOM     35  H17 HUP d           6.489  69.579  65.186  0.00  0.00     0.033 H 
ATOM     36  H18 HUP d           5.456  69.166  66.596  0.00  0.00     0.033 H 
ATOM     37  H19 HUP d           4.914  70.411  65.420  0.00  0.00     0.033 H 
ENDBRANCH  15  34
TORSDOF 3
