MODEL 1
REMARK VINA RESULT:      -9.8      0.000      0.000
REMARK  3 active torsions:
REMARK  status: ('A' for Active; 'I' for Inactive)
REMARK    1  A    between atoms: C10_12  and  C9_11 
REMARK    2  A    between atoms: C12_14  and  N2_15 
REMARK    3  A    between atoms: C14_17  and  C15_18 
ROOT
ATOM      1  C1  HUP d           0.612  69.012  60.938  0.00  0.00     0.245 A 
ATOM      2  O1  HUP d           0.077  69.525  59.919  0.00  0.00    -0.268 OA
ATOM      3  N1  HUP d           1.922  68.533  60.872  0.00  0.00    -0.327 N 
ATOM      4  C2  HUP d          -0.051  68.876  62.227  0.00  0.00    -0.017 A 
ATOM      5  C3  HUP d           0.602  68.297  63.296  0.00  0.00    -0.067 A 
ATOM      6  C4  HUP d           1.964  67.800  63.210  0.00  0.00     0.005 A 
ATOM      7  C5  HUP d           2.621  67.941  61.946  0.00  0.00     0.022 A 
ATOM      8  C6  HUP d           4.034  67.482  61.668  0.00  0.00    -0.016 C 
ATOM      9  C7  HUP d           4.765  66.877  62.947  0.00  0.00    -0.008 C 
ATOM     10  C8  HUP d           5.455  67.968  63.793  0.00  0.00    -0.093 C 
ATOM     11  C10 HUP d           3.738  64.837  64.124  0.00  0.00    -0.101 C 
ATOM     12  C11 HUP d           3.749  66.134  63.846  0.00  0.00    -0.036 C 
ATOM     13  C12 HUP d           2.718  67.124  64.437  0.00  0.00     0.179 C 
ATOM     14  C13 HUP d           3.443  68.202  65.294  0.00  0.00    -0.006 C 
ATOM     15  C14 HUP d           4.850  68.567  64.857  0.00  0.00    -0.084 C 
ATOM     16  H1  HUP d           2.402  68.615  59.998  0.00  0.00     0.169 HD
ATOM     17  H2  HUP d          -1.073  69.235  62.349  0.00  0.00     0.092 H 
ATOM     18  H3  HUP d           0.074  68.209  64.244  0.00  0.00     0.084 H 
ATOM     19  H4  HUP d           4.616  68.343  61.309  0.00  0.00     0.043 H 
ATOM     20  H5  HUP d           4.002  66.709  60.886  0.00  0.00     0.043 H 
ATOM     21  H6  HUP d           5.528  66.164  62.603  0.00  0.00     0.053 H 
ATOM     22  H7  HUP d           6.467  68.271  63.528  0.00  0.00     0.078 H 
ATOM     23  H11 HUP d           2.954  64.500  64.801  0.00  0.00     0.076 H 
ATOM     24  H15 HUP d           3.497  67.829  66.328  0.00  0.00     0.044 H 
ATOM     25  H16 HUP d           2.834  69.118  65.266  0.00  0.00     0.044 H 
ENDROOT
BRANCH  13  26
ATOM     26  N2  HUP d           1.732  66.423  65.307  0.00  0.00    -0.062 N 
ATOM     27  H12 HUP d           2.214  65.762  65.896  0.00  0.00     0.276 HD
ATOM     28  H13 HUP d           1.063  65.936  64.733  0.00  0.00     0.276 HD
ATOM     29  H14 HUP d           1.252  67.098  65.883  0.00  0.00     0.276 HD
ENDBRANCH  13  26
BRANCH  11  30
ATOM     30  C9  HUP d           4.673  63.778  63.622  0.00  0.00    -0.059 C 
ATOM     31  H8  HUP d           5.672  63.936  64.053  0.00  0.00     0.032 H 
ATOM     32  H9  HUP d           4.734  63.834  62.525  0.00  0.00     0.032 H 
ATOM     33  H10 HUP d           4.297  62.787  63.919  0.00  0.00     0.032 H 
ENDBRANCH  11  30
BRANCH  15  34
ATOM     34  C15 HUP d           5.512  69.631  65.707  0.00  0.00    -0.055 C 
ATOM     35  H17 HUP d           4.968  70.581  65.594  0.00  0.00     0.033 H 
ATOM     36  H18 HUP d           6.554  69.764  65.382  0.00  0.00     0.033 H 
ATOM     37  H19 HUP d           5.493  69.321  66.762  0.00  0.00     0.033 H 
ENDBRANCH  15  34
TORSDOF 3
ENDMDL
MODEL 2
REMARK VINA RESULT:      -9.5      1.373      3.473
REMARK  3 active torsions:
REMARK  status: ('A' for Active; 'I' for Inactive)
REMARK    1  A    between atoms: C10_12  and  C9_11 
REMARK    2  A    between atoms: C12_14  and  N2_15 
REMARK    3  A    between atoms: C14_17  and  C15_18 
ROOT
ATOM      1  C1  HUP d           0.518  68.917  61.351  0.00  0.00     0.245 A 
ATOM      2  O1  HUP d          -0.608  69.357  60.993  0.00  0.00    -0.268 OA
ATOM      3  N1  HUP d           0.824  68.805  62.709  0.00  0.00    -0.327 N 
ATOM      4  C2  HUP d           1.563  68.501  60.426  0.00  0.00    -0.017 A 
ATOM      5  C3  HUP d           2.773  68.035  60.897  0.00  0.00    -0.067 A 
ATOM      6  C4  HUP d           3.077  67.927  62.313  0.00  0.00     0.005 A 
ATOM      7  C5  HUP d           2.048  68.328  63.224  0.00  0.00     0.022 A 
ATOM      8  C6  HUP d           2.184  68.287  64.728  0.00  0.00    -0.016 C 
ATOM      9  C7  HUP d           3.574  67.686  65.221  0.00  0.00    -0.008 C 
ATOM     10  C8  HUP d           3.532  66.148  65.343  0.00  0.00    -0.093 C 
ATOM     11  C10 HUP d           5.757  68.830  64.497  0.00  0.00    -0.101 C 
ATOM     12  C11 HUP d           4.704  68.066  64.237  0.00  0.00    -0.036 C 
ATOM     13  C12 HUP d           4.475  67.400  62.860  0.00  0.00     0.179 C 
ATOM     14  C13 HUP d           4.451  65.850  63.014  0.00  0.00    -0.006 C 
ATOM     15  C14 HUP d           3.931  65.319  64.338  0.00  0.00    -0.084 C 
ATOM     16  H1  HUP d           0.123  69.083  63.366  0.00  0.00     0.169 HD
ATOM     17  H2  HUP d           1.387  68.558  59.352  0.00  0.00     0.092 H 
ATOM     18  H3  HUP d           3.533  67.736  60.176  0.00  0.00     0.084 H 
ATOM     19  H4  HUP d           1.372  67.667  65.135  0.00  0.00     0.043 H 
ATOM     20  H5  HUP d           2.090  69.313  65.115  0.00  0.00     0.043 H 
ATOM     21  H6  HUP d           3.802  68.111  66.210  0.00  0.00     0.053 H 
ATOM     22  H7  HUP d           3.169  65.708  66.270  0.00  0.00     0.078 H 
ATOM     23  H11 HUP d           6.463  68.964  63.678  0.00  0.00     0.076 H 
ATOM     24  H15 HUP d           5.480  65.484  62.885  0.00  0.00     0.044 H 
ATOM     25  H16 HUP d           3.814  65.444  62.215  0.00  0.00     0.044 H 
ENDROOT
BRANCH  13  26
ATOM     26  N2  HUP d           5.557  67.755  61.899  0.00  0.00    -0.062 N 
ATOM     27  H12 HUP d           5.215  67.655  60.956  0.00  0.00     0.276 HD
ATOM     28  H13 HUP d           6.344  67.141  62.038  0.00  0.00     0.276 HD
ATOM     29  H14 HUP d           5.844  68.709  62.053  0.00  0.00     0.276 HD
ENDBRANCH  13  26
BRANCH  11  30
ATOM     30  C9  HUP d           6.095  69.530  65.778  0.00  0.00    -0.059 C 
ATOM     31  H8  HUP d           6.318  70.587  65.570  0.00  0.00     0.032 H 
ATOM     32  H9  HUP d           6.975  69.053  66.236  0.00  0.00     0.032 H 
ATOM     33  H10 HUP d           5.241  69.464  66.469  0.00  0.00     0.032 H 
ENDBRANCH  11  30
BRANCH  15  34
ATOM     34  C15 HUP d           3.909  63.809  64.438  0.00  0.00    -0.055 C 
ATOM     35  H17 HUP d           3.270  63.507  65.282  0.00  0.00     0.033 H 
ATOM     36  H18 HUP d           4.931  63.437  64.602  0.00  0.00     0.033 H 
ATOM     37  H19 HUP d           3.509  63.385  63.505  0.00  0.00     0.033 H 
ENDBRANCH  15  34
TORSDOF 3
ENDMDL
MODEL 3
REMARK VINA RESULT:      -7.9      2.762      4.671
REMARK  3 active torsions:
REMARK  status: ('A' for Active; 'I' for Inactive)
REMARK    1  A    between atoms: C10_12  and  C9_11 
REMARK    2  A    between atoms: C12_14  and  N2_15 
REMARK    3  A    between atoms: C14_17  and  C15_18 
ROOT
ATOM      1  C1  HUP d           5.974  70.043  65.880  0.00  0.00     0.245 A 
ATOM      2  O1  HUP d           6.891  70.748  66.380  0.00  0.00    -0.268 OA
ATOM      3  N1  HUP d           6.163  69.426  64.641  0.00  0.00    -0.327 N 
ATOM      4  C2  HUP d           4.684  69.810  66.517  0.00  0.00    -0.017 A 
ATOM      5  C3  HUP d           3.728  69.028  65.901  0.00  0.00    -0.067 A 
ATOM      6  C4  HUP d           3.941  68.396  64.611  0.00  0.00     0.005 A 
ATOM      7  C5  HUP d           5.210  68.616  63.988  0.00  0.00     0.022 A 
ATOM      8  C6  HUP d           5.609  68.043  62.648  0.00  0.00    -0.016 C 
ATOM      9  C7  HUP d           4.497  67.100  62.008  0.00  0.00    -0.008 C 
ATOM     10  C8  HUP d           4.624  65.640  62.491  0.00  0.00    -0.093 C 
ATOM     11  C10 HUP d           2.165  68.066  61.528  0.00  0.00    -0.101 C 
ATOM     12  C11 HUP d           3.084  67.612  62.370  0.00  0.00    -0.036 C 
ATOM     13  C12 HUP d           2.838  67.501  63.894  0.00  0.00     0.179 C 
ATOM     14  C13 HUP d           2.959  66.017  64.348  0.00  0.00    -0.006 C 
ATOM     15  C14 HUP d           3.924  65.153  63.554  0.00  0.00    -0.084 C 
ATOM     16  H1  HUP d           7.041  69.569  64.183  0.00  0.00     0.169 HD
ATOM     17  H2  HUP d           4.473  70.257  67.487  0.00  0.00     0.092 H 
ATOM     18  H3  HUP d           2.775  68.878  66.404  0.00  0.00     0.084 H 
ATOM     19  H4  HUP d           6.530  67.456  62.780  0.00  0.00     0.043 H 
ATOM     20  H5  HUP d           5.801  68.876  61.955  0.00  0.00     0.043 H 
ATOM     21  H6  HUP d           4.615  67.119  60.914  0.00  0.00     0.053 H 
ATOM     22  H7  HUP d           5.300  64.972  61.961  0.00  0.00     0.078 H 
ATOM     23  H11 HUP d           1.214  68.360  61.971  0.00  0.00     0.076 H 
ATOM     24  H15 HUP d           1.961  65.560  64.276  0.00  0.00     0.044 H 
ATOM     25  H16 HUP d           3.290  66.013  65.397  0.00  0.00     0.044 H 
ENDROOT
BRANCH  13  26
ATOM     26  N2  HUP d           1.479  67.989  64.260  0.00  0.00    -0.062 N 
ATOM     27  H12 HUP d           0.863  67.898  63.467  0.00  0.00     0.276 HD
ATOM     28  H13 HUP d           1.532  68.957  64.535  0.00  0.00     0.276 HD
ATOM     29  H14 HUP d           1.120  67.442  65.027  0.00  0.00     0.276 HD
ENDBRANCH  13  26
BRANCH  11  30
ATOM     30  C9  HUP d           2.274  68.224  60.041  0.00  0.00    -0.059 C 
ATOM     31  H8  HUP d           2.870  69.119  59.811  0.00  0.00     0.032 H 
ATOM     32  H9  HUP d           1.268  68.331  59.609  0.00  0.00     0.032 H 
ATOM     33  H10 HUP d           2.765  67.337  59.614  0.00  0.00     0.032 H 
ENDBRANCH  11  30
BRANCH  15  34
ATOM     34  C15 HUP d           4.024  63.723  64.040  0.00  0.00    -0.055 C 
ATOM     35  H17 HUP d           3.056  63.407  64.455  0.00  0.00     0.033 H 
ATOM     36  H18 HUP d           4.797  63.654  64.820  0.00  0.00     0.033 H 
ATOM     37  H19 HUP d           4.294  63.068  63.198  0.00  0.00     0.033 H 
ENDBRANCH  15  34
TORSDOF 3
ENDMDL
