MODEL 1
REMARK VINA RESULT:      -5.8      0.000      0.000
REMARK  5 active torsions:
REMARK  status: ('A' for Active; 'I' for Inactive)
REMARK    1  A    between atoms: C2_3  and  O1_2 
REMARK    2  A    between atoms: C4_7  and  O2_4 
REMARK    3  A    between atoms: C12_18  and  O5_10 
REMARK    4  A    between atoms: C13_19  and  O6_12 
REMARK    5  A    between atoms: C10_16  and  C9_15 
ROOT
ATOM      1  C1  LU2 d          20.490  40.772  41.474  0.00  0.00    -0.017 A 
ATOM      2  C2  LU2 d          20.988  41.086  42.715  0.00  0.00     0.071 A 
ATOM      3  C3  LU2 d          21.960  42.081  42.857  0.00  0.00    -0.018 A 
ATOM      4  O3  LU2 d          23.264  43.902  39.350  0.00  0.00    -0.287 OA
ATOM      5  C4  LU2 d          22.416  42.758  41.740  0.00  0.00     0.085 A 
ATOM      6  O4  LU2 d          20.440  41.094  39.198  0.00  0.00    -0.309 OA
ATOM      7  C5  LU2 d          21.914  42.440  40.475  0.00  0.00     0.081 A 
ATOM      8  C6  LU2 d          20.970  41.450  40.368  0.00  0.00     0.095 A 
ATOM      9  C7  LU2 d          22.358  43.070  39.336  0.00  0.00     0.190 A 
ATOM     10  C8  LU2 d          21.873  42.638  38.124  0.00  0.00    -0.000 A 
ATOM     11  C9  LU2 d          20.882  41.685  38.089  0.00  0.00     0.090 A 
ATOM     12  H1  LU2 d          19.732  40.004  41.363  0.00  0.00     0.092 H 
ATOM     13  H4  LU2 d          22.354  42.321  43.837  0.00  0.00     0.092 H 
ATOM     14  H7  LU2 d          22.272  43.049  37.197  0.00  0.00     0.094 H 
ENDROOT
BRANCH  11  15
ATOM     15  C10 LU2 d          20.355  41.241  36.920  0.00  0.00     0.001 A 
ATOM     16  C11 LU2 d          20.870  41.629  35.656  0.00  0.00    -0.036 A 
ATOM     17  C12 LU2 d          20.301  41.182  34.474  0.00  0.00     0.099 A 
ATOM     18  H8  LU2 d          21.729  42.289  35.614  0.00  0.00     0.089 H 
ATOM     19  C13 LU2 d          19.217  40.338  34.692  0.00  0.00     0.098 A 
ATOM     20  C14 LU2 d          18.698  39.948  35.916  0.00  0.00    -0.047 A 
ATOM     21  C15 LU2 d          19.267  40.404  37.055  0.00  0.00    -0.068 A 
ATOM     22  H9  LU2 d          17.843  39.283  35.960  0.00  0.00     0.087 H 
ATOM     23  H10 LU2 d          18.885  40.124  38.029  0.00  0.00     0.085 H 
BRANCH  17  24
ATOM     24  O5  LU2 d          20.710  41.526  33.137  0.00  0.00    -0.358 OA
ATOM     25  H5  LU2 d          20.586  40.776  32.566  0.00  0.00     0.217 HD
ENDBRANCH  17  24
BRANCH  19  26
ATOM     26  O6  LU2 d          18.604  39.852  33.631  0.00  0.00    -0.358 OA
ATOM     27  H6  LU2 d          18.707  40.454  32.904  0.00  0.00     0.217 HD
ENDBRANCH  19  26
ENDBRANCH  11  15
BRANCH   2  28
ATOM     28  O1  LU2 d          20.559  40.406  43.767  0.00  0.00    -0.361 OA
ATOM     29  H2  LU2 d          19.609  40.379  43.760  0.00  0.00     0.217 HD
ENDBRANCH   2  28
BRANCH   5  30
ATOM     30  O2  LU2 d          23.340  43.710  41.905  0.00  0.00    -0.360 OA
ATOM     31  H3  LU2 d          23.725  43.927  41.063  0.00  0.00     0.217 HD
ENDBRANCH   5  30
TORSDOF 5
ENDMDL
MODEL 2
REMARK VINA RESULT:      -3.9      1.996      3.713
REMARK  5 active torsions:
REMARK  status: ('A' for Active; 'I' for Inactive)
REMARK    1  A    between atoms: C2_3  and  O1_2 
REMARK    2  A    between atoms: C4_7  and  O2_4 
REMARK    3  A    between atoms: C12_18  and  O5_10 
REMARK    4  A    between atoms: C13_19  and  O6_12 
REMARK    5  A    between atoms: C10_16  and  C9_15 
ROOT
ATOM      1  C1  LU2 d          22.608  43.978  41.535  0.00  0.00    -0.017 A 
ATOM      2  C2  LU2 d          22.245  43.725  42.834  0.00  0.00     0.071 A 
ATOM      3  C3  LU2 d          21.387  42.664  43.136  0.00  0.00    -0.018 A 
ATOM      4  O3  LU2 d          19.979  40.453  39.905  0.00  0.00    -0.287 OA
ATOM      5  C4  LU2 d          20.907  41.860  42.118  0.00  0.00     0.085 A 
ATOM      6  O4  LU2 d          22.503  43.476  39.293  0.00  0.00    -0.309 OA
ATOM      7  C5  LU2 d          21.272  42.115  40.793  0.00  0.00     0.081 A 
ATOM      8  C6  LU2 d          22.106  43.172  40.529  0.00  0.00     0.095 A 
ATOM      9  C7  LU2 d          20.799  41.357  39.748  0.00  0.00     0.190 A 
ATOM     10  C8  LU2 d          21.139  41.728  38.469  0.00  0.00    -0.000 A 
ATOM     11  C9  LU2 d          22.029  42.759  38.275  0.00  0.00     0.090 A 
ATOM     12  H1  LU2 d          23.278  44.798  41.300  0.00  0.00     0.092 H 
ATOM     13  H4  LU2 d          21.098  42.472  44.163  0.00  0.00     0.092 H 
ATOM     14  H7  LU2 d          20.707  41.209  37.615  0.00  0.00     0.094 H 
ENDROOT
BRANCH  11  15
ATOM     15  C10 LU2 d          22.415  43.150  37.035  0.00  0.00     0.001 A 
ATOM     16  C11 LU2 d          21.838  42.615  35.853  0.00  0.00    -0.036 A 
ATOM     17  C12 LU2 d          22.264  43.011  34.595  0.00  0.00     0.099 A 
ATOM     18  H8  LU2 d          21.045  41.880  35.937  0.00  0.00     0.089 H 
ATOM     19  C13 LU2 d          23.277  43.963  34.653  0.00  0.00     0.098 A 
ATOM     20  C14 LU2 d          23.854  44.497  35.793  0.00  0.00    -0.047 A 
ATOM     21  C15 LU2 d          23.426  44.088  37.009  0.00  0.00    -0.068 A 
ATOM     22  H9  LU2 d          24.643  45.236  35.711  0.00  0.00     0.087 H 
ATOM     23  H10 LU2 d          23.857  44.480  37.922  0.00  0.00     0.085 H 
BRANCH  17  24
ATOM     24  O5  LU2 d          21.782  42.523  33.329  0.00  0.00    -0.358 OA
ATOM     25  H5  LU2 d          21.965  43.166  32.653  0.00  0.00     0.217 HD
ENDBRANCH  17  24
BRANCH  19  26
ATOM     26  O6  LU2 d          23.752  44.412  33.508  0.00  0.00    -0.358 OA
ATOM     27  H6  LU2 d          24.646  44.110  33.398  0.00  0.00     0.217 HD
ENDBRANCH  19  26
ENDBRANCH  11  15
BRANCH   2  28
ATOM     28  O1  LU2 d          22.692  44.525  43.791  0.00  0.00    -0.361 OA
ATOM     29  H2  LU2 d          23.172  44.013  44.432  0.00  0.00     0.217 HD
ENDBRANCH   2  28
BRANCH   5  30
ATOM     30  O2  LU2 d          20.094  40.846  42.435  0.00  0.00    -0.360 OA
ATOM     31  H3  LU2 d          19.203  41.167  42.506  0.00  0.00     0.217 HD
ENDBRANCH   5  30
TORSDOF 5
ENDMDL
MODEL 3
REMARK VINA RESULT:      -3.2      1.325      6.640
REMARK  5 active torsions:
REMARK  status: ('A' for Active; 'I' for Inactive)
REMARK    1  A    between atoms: C2_3  and  O1_2 
REMARK    2  A    between atoms: C4_7  and  O2_4 
REMARK    3  A    between atoms: C12_18  and  O5_10 
REMARK    4  A    between atoms: C13_19  and  O6_12 
REMARK    5  A    between atoms: C10_16  and  C9_15 
ROOT
ATOM      1  C1  LU2 d          19.674  40.496  36.347  0.00  0.00    -0.017 A 
ATOM      2  C2  LU2 d          19.539  40.452  34.981  0.00  0.00     0.071 A 
ATOM      3  C3  LU2 d          20.341  41.255  34.165  0.00  0.00    -0.018 A 
ATOM      4  O3  LU2 d          23.016  43.779  36.112  0.00  0.00    -0.287 OA
ATOM      5  C4  LU2 d          21.280  42.093  34.738  0.00  0.00     0.085 A 
ATOM      6  O4  LU2 d          20.685  41.339  38.233  0.00  0.00    -0.309 OA
ATOM      7  C5  LU2 d          21.419  42.143  36.128  0.00  0.00     0.081 A 
ATOM      8  C6  LU2 d          20.608  41.351  36.902  0.00  0.00     0.095 A 
ATOM      9  C7  LU2 d          22.322  42.980  36.741  0.00  0.00     0.190 A 
ATOM     10  C8  LU2 d          22.335  43.028  38.114  0.00  0.00    -0.000 A 
ATOM     11  C9  LU2 d          21.542  42.164  38.832  0.00  0.00     0.090 A 
ATOM     12  H1  LU2 d          19.056  39.869  36.982  0.00  0.00     0.092 H 
ATOM     13  H4  LU2 d          20.227  41.222  33.088  0.00  0.00     0.092 H 
ATOM     14  H7  LU2 d          22.970  43.747  38.631  0.00  0.00     0.094 H 
ENDROOT
BRANCH  11  15
ATOM     15  C10 LU2 d          21.534  42.157  40.189  0.00  0.00     0.001 A 
ATOM     16  C11 LU2 d          21.240  40.991  40.943  0.00  0.00    -0.036 A 
ATOM     17  C12 LU2 d          21.214  41.012  42.328  0.00  0.00     0.099 A 
ATOM     18  H8  LU2 d          21.032  40.063  40.423  0.00  0.00     0.089 H 
ATOM     19  C13 LU2 d          21.509  42.268  42.846  0.00  0.00     0.098 A 
ATOM     20  C14 LU2 d          21.797  43.418  42.130  0.00  0.00    -0.047 A 
ATOM     21  C15 LU2 d          21.809  43.373  40.778  0.00  0.00    -0.068 A 
ATOM     22  H9  LU2 d          22.011  44.346  42.648  0.00  0.00     0.087 H 
ATOM     23  H10 LU2 d          22.025  44.253  40.185  0.00  0.00     0.085 H 
BRANCH  17  24
ATOM     24  O5  LU2 d          20.902  39.909  43.201  0.00  0.00    -0.358 OA
ATOM     25  H5  LU2 d          20.085  39.509  42.924  0.00  0.00     0.217 HD
ENDBRANCH  17  24
BRANCH  19  26
ATOM     26  O6  LU2 d          21.516  42.397  44.158  0.00  0.00    -0.358 OA
ATOM     27  H6  LU2 d          21.971  41.658  44.545  0.00  0.00     0.217 HD
ENDBRANCH  19  26
ENDBRANCH  11  15
BRANCH   2  28
ATOM     28  O1  LU2 d          18.614  39.665  34.454  0.00  0.00    -0.361 OA
ATOM     29  H2  LU2 d          18.521  38.885  34.990  0.00  0.00     0.217 HD
ENDBRANCH   2  28
BRANCH   5  30
ATOM     30  O2  LU2 d          22.040  42.844  33.934  0.00  0.00    -0.360 OA
ATOM     31  H3  LU2 d          22.751  43.225  34.436  0.00  0.00     0.217 HD
ENDBRANCH   5  30
TORSDOF 5
ENDMDL
