MODEL 1
REMARK VINA RESULT:     -10.9      0.000      0.000
REMARK  5 active torsions:
REMARK  status: ('A' for Active; 'I' for Inactive)
REMARK    1  A    between atoms: N19_3  and  C23_4 
REMARK    2  A    between atoms: C23_4  and  C24_5 
REMARK    3  A    between atoms: C10_20  and  C7_21 
REMARK    4  A    between atoms: C4_24  and  C3_27 
REMARK    5  A    between atoms: C3_27  and  N1_28 
ROOT
ATOM      1  O21 FSN d          16.784 -12.846  22.607  0.00  0.00    -0.272 OA
ATOM      2  C20 FSN d          17.529 -12.603  21.674  0.00  0.00     0.234 C 
ATOM      3  N19 FSN d          18.665 -13.394  21.388  0.00  0.00    -0.283 N 
ATOM      4  C17 FSN d          19.238 -13.009  20.141  0.00  0.00     0.233 C 
ATOM      5  O18 FSN d          20.236 -13.509  19.644  0.00  0.00    -0.272 OA
ATOM      6  C16 FSN d          18.434 -11.935  19.564  0.00  0.00     0.066 C 
ATOM      7  C15 FSN d          17.444 -12.359  18.480  0.00  0.00     0.117 C 
ATOM      8  N11 FSN d          16.009 -12.589  18.980  0.00  0.00    -0.057 N 
ATOM      9  C12 FSN d          15.217 -12.187  17.782  0.00  0.00     0.085 C 
ATOM     10  C13 FSN d          16.181 -12.419  16.573  0.00  0.00    -0.040 C 
ATOM     11  C14 FSN d          17.523 -11.878  17.089  0.00  0.00    -0.036 C 
ATOM     12  C10 FSN d          16.034 -11.453  19.999  0.00  0.00     0.142 C 
ATOM     13  C22 FSN d          17.397 -11.534  20.661  0.00  0.00     0.069 C 
ATOM     14  H7  FSN d          19.079 -11.109  19.232  0.00  0.00     0.059 H 
ATOM     15  H8  FSN d          17.781 -13.396  18.330  0.00  0.00     0.086 H 
ATOM     16  H9  FSN d          15.780 -13.500  19.346  0.00  0.00     0.281 HD
ATOM     17  H10 FSN d          14.926 -11.128  17.847  0.00  0.00     0.076 H 
ATOM     18  H11 FSN d          14.316 -12.811  17.684  0.00  0.00     0.076 H 
ATOM     19  H12 FSN d          15.845 -11.861  15.687  0.00  0.00     0.035 H 
ATOM     20  H13 FSN d          16.256 -13.488  16.328  0.00  0.00     0.035 H 
ATOM     21  H14 FSN d          18.378 -12.312  16.550  0.00  0.00     0.036 H 
ATOM     22  H15 FSN d          17.573 -10.780  17.034  0.00  0.00     0.036 H 
ATOM     23  H16 FSN d          16.053 -10.523  19.412  0.00  0.00     0.093 H 
ATOM     24  H25 FSN d          17.642 -10.559  21.109  0.00  0.00     0.059 H 
ENDROOT
BRANCH  12  25
ATOM     25  C7  FSN d          14.811 -11.295  20.852  0.00  0.00    -0.027 A 
ATOM     26  C8  FSN d          14.058 -12.433  21.123  0.00  0.00    -0.074 A 
ATOM     27  C9  FSN d          12.951 -12.351  21.958  0.00  0.00    -0.069 A 
ATOM     28  H17 FSN d          14.334 -13.384  20.683  0.00  0.00     0.084 H 
ATOM     29  C4  FSN d          12.607 -11.089  22.517  0.00  0.00     0.007 A 
ATOM     30  H18 FSN d          12.361 -13.232  22.179  0.00  0.00     0.085 H 
ATOM     31  C5  FSN d          13.365  -9.943  22.251  0.00  0.00    -0.069 A 
ATOM     32  C6  FSN d          14.480 -10.037  21.413  0.00  0.00    -0.074 A 
ATOM     33  H19 FSN d          13.089  -8.991  22.690  0.00  0.00     0.085 H 
ATOM     34  H20 FSN d          15.081  -9.162  21.196  0.00  0.00     0.084 H 
BRANCH  29  35
ATOM     35  C3  FSN d          11.436 -11.022  23.376  0.00  0.00     0.102 C 
ATOM     36  N2  FSN d          11.051  -9.882  24.005  0.00  0.00    -0.385 N 
ATOM     37  H23 FSN d          11.594  -9.016  23.879  0.00  0.00     0.157 HD
ATOM     38  H24 FSN d          10.217  -9.883  24.608  0.00  0.00     0.157 HD
BRANCH  35  39
ATOM     39  N1  FSN d          10.655 -12.109  23.605  0.00  0.00    -0.385 N 
ATOM     40  H21 FSN d           9.831 -12.032  24.218  0.00  0.00     0.157 HD
ATOM     41  H22 FSN d          10.887 -13.011  23.165  0.00  0.00     0.157 HD
ENDBRANCH  35  39
ENDBRANCH  29  35
ENDBRANCH  12  25
BRANCH   3  42
ATOM     42  C23 FSN d          18.979 -14.582  22.180  0.00  0.00     0.029 C 
ATOM     43  H1  FSN d          19.500 -15.315  21.546  0.00  0.00     0.072 H 
ATOM     44  H2  FSN d          18.045 -15.024  22.559  0.00  0.00     0.072 H 
BRANCH  42  45
ATOM     45  C24 FSN d          19.861 -14.210  23.340  0.00  0.00    -0.040 A 
ATOM     46  C32 FSN d          19.291 -14.095  24.623  0.00  0.00    -0.072 A 
ATOM     47  C31 FSN d          20.111 -13.784  25.707  0.00  0.00    -0.045 A 
ATOM     48  H3  FSN d          18.228 -14.246  24.766  0.00  0.00     0.084 H 
ATOM     49  C30 FSN d          21.480 -13.593  25.472  0.00  0.00     0.116 A 
ATOM     50  H4  FSN d          19.701 -13.692  26.706  0.00  0.00     0.088 H 
ATOM     51  F29 FSN d          22.218 -13.317  26.561  0.00  0.00    -0.206 F 
ATOM     52  C26 FSN d          22.094 -13.683  24.214  0.00  0.00    -0.045 A 
ATOM     53  C25 FSN d          21.245 -13.999  23.124  0.00  0.00    -0.072 A 
ATOM     54  H5  FSN d          23.157 -13.519  24.084  0.00  0.00     0.088 H 
ATOM     55  H6  FSN d          21.655 -14.079  22.124  0.00  0.00     0.084 H 
ENDBRANCH  42  45
ENDBRANCH   3  42
TORSDOF 5
ENDMDL
