MODEL 1
REMARK VINA RESULT:     -10.9      0.000      0.000
REMARK  5 active torsions:
REMARK  status: ('A' for Active; 'I' for Inactive)
REMARK    1  A    between atoms: N19_3  and  C23_4 
REMARK    2  A    between atoms: C23_4  and  C24_5 
REMARK    3  A    between atoms: C10_20  and  C7_21 
REMARK    4  A    between atoms: C4_24  and  C3_27 
REMARK    5  A    between atoms: C3_27  and  N1_28 
ROOT
ATOM      1  O21 FSN d          16.778 -12.842  22.589  0.00  0.00    -0.272 OA
ATOM      2  C20 FSN d          17.517 -12.596  21.653  0.00  0.00     0.234 C 
ATOM      3  N19 FSN d          18.655 -13.383  21.362  0.00  0.00    -0.283 N 
ATOM      4  C17 FSN d          19.222 -12.997  20.113  0.00  0.00     0.233 C 
ATOM      5  O18 FSN d          20.219 -13.492  19.613  0.00  0.00    -0.272 OA
ATOM      6  C16 FSN d          18.411 -11.927  19.539  0.00  0.00     0.066 C 
ATOM      7  C15 FSN d          17.418 -12.355  18.459  0.00  0.00     0.117 C 
ATOM      8  N11 FSN d          15.986 -12.591  18.965  0.00  0.00    -0.057 N 
ATOM      9  C12 FSN d          15.187 -12.192  17.770  0.00  0.00     0.085 C 
ATOM     10  C13 FSN d          16.147 -12.422  16.558  0.00  0.00    -0.040 C 
ATOM     11  C14 FSN d          17.489 -11.874  17.067  0.00  0.00    -0.036 C 
ATOM     12  C10 FSN d          16.011 -11.453  19.983  0.00  0.00     0.142 C 
ATOM     13  C22 FSN d          17.377 -11.528  20.640  0.00  0.00     0.069 C 
ATOM     14  H7  FSN d          19.050 -11.098  19.203  0.00  0.00     0.059 H 
ATOM     15  H8  FSN d          17.758 -13.390  18.308  0.00  0.00     0.086 H 
ATOM     16  H9  FSN d          15.762 -13.501  19.332  0.00  0.00     0.281 HD
ATOM     17  H10 FSN d          14.892 -11.135  17.836  0.00  0.00     0.076 H 
ATOM     18  H11 FSN d          14.289 -12.820  17.677  0.00  0.00     0.076 H 
ATOM     19  H12 FSN d          15.805 -11.866  15.673  0.00  0.00     0.035 H 
ATOM     20  H13 FSN d          16.225 -13.491  16.313  0.00  0.00     0.035 H 
ATOM     21  H14 FSN d          18.343 -12.306  16.525  0.00  0.00     0.036 H 
ATOM     22  H15 FSN d          17.535 -10.776  17.011  0.00  0.00     0.036 H 
ATOM     23  H16 FSN d          16.023 -10.524  19.396  0.00  0.00     0.093 H 
ATOM     24  H25 FSN d          17.619 -10.552  21.086  0.00  0.00     0.059 H 
ENDROOT
BRANCH  12  25
ATOM     25  C7  FSN d          14.791 -11.300  20.841  0.00  0.00    -0.027 A 
ATOM     26  C8  FSN d          14.030 -12.437  21.097  0.00  0.00    -0.074 A 
ATOM     27  C9  FSN d          12.926 -12.359  21.935  0.00  0.00    -0.069 A 
ATOM     28  H17 FSN d          14.299 -13.383  20.642  0.00  0.00     0.084 H 
ATOM     29  C4  FSN d          12.591 -11.103  22.514  0.00  0.00     0.007 A 
ATOM     30  H18 FSN d          12.330 -13.239  22.145  0.00  0.00     0.085 H 
ATOM     31  C5  FSN d          13.356  -9.959  22.263  0.00  0.00    -0.069 A 
ATOM     32  C6  FSN d          14.469 -10.048  21.421  0.00  0.00    -0.074 A 
ATOM     33  H19 FSN d          13.088  -9.011  22.717  0.00  0.00     0.085 H 
ATOM     34  H20 FSN d          15.076  -9.174  21.216  0.00  0.00     0.084 H 
BRANCH  29  35
ATOM     35  C3  FSN d          11.422 -11.041  23.376  0.00  0.00     0.102 C 
ATOM     36  N2  FSN d          10.631 -12.116  23.618  0.00  0.00    -0.385 N 
ATOM     37  H23 FSN d          10.852 -13.025  23.188  0.00  0.00     0.157 HD
ATOM     38  H24 FSN d           9.809 -12.023  24.233  0.00  0.00     0.157 HD
BRANCH  35  39
ATOM     39  N1  FSN d          11.049  -9.888  23.989  0.00  0.00    -0.385 N 
ATOM     40  H21 FSN d          10.996  -9.012  23.451  0.00  0.00     0.157 HD
ATOM     41  H22 FSN d          10.817  -9.890  24.993  0.00  0.00     0.157 HD
ENDBRANCH  35  39
ENDBRANCH  29  35
ENDBRANCH  12  25
BRANCH   3  42
ATOM     42  C23 FSN d          18.977 -14.569  22.155  0.00  0.00     0.029 C 
ATOM     43  H1  FSN d          19.496 -15.301  21.518  0.00  0.00     0.072 H 
ATOM     44  H2  FSN d          18.047 -15.012  22.541  0.00  0.00     0.072 H 
BRANCH  42  45
ATOM     45  C24 FSN d          19.866 -14.193  23.308  0.00  0.00    -0.040 A 
ATOM     46  C32 FSN d          19.302 -14.061  24.591  0.00  0.00    -0.072 A 
ATOM     47  C31 FSN d          20.129 -13.747  25.669  0.00  0.00    -0.045 A 
ATOM     48  H3  FSN d          18.238 -14.202  24.740  0.00  0.00     0.084 H 
ATOM     49  C30 FSN d          21.497 -13.570  25.428  0.00  0.00     0.116 A 
ATOM     50  H4  FSN d          19.722 -13.642  26.669  0.00  0.00     0.088 H 
ATOM     51  F29 FSN d          22.242 -13.289  26.512  0.00  0.00    -0.206 F 
ATOM     52  C26 FSN d          22.107 -13.676  24.169  0.00  0.00    -0.045 A 
ATOM     53  C25 FSN d          21.251 -13.996  23.085  0.00  0.00    -0.072 A 
ATOM     54  H5  FSN d          23.171 -13.523  24.034  0.00  0.00     0.088 H 
ATOM     55  H6  FSN d          21.657 -14.089  22.084  0.00  0.00     0.084 H 
ENDBRANCH  42  45
ENDBRANCH   3  42
TORSDOF 5
ENDMDL
MODEL 2
REMARK VINA RESULT:     -10.7      0.213      1.091
REMARK  5 active torsions:
REMARK  status: ('A' for Active; 'I' for Inactive)
REMARK    1  A    between atoms: N19_3  and  C23_4 
REMARK    2  A    between atoms: C23_4  and  C24_5 
REMARK    3  A    between atoms: C10_20  and  C7_21 
REMARK    4  A    between atoms: C4_24  and  C3_27 
REMARK    5  A    between atoms: C3_27  and  N1_28 
ROOT
ATOM      1  O21 FSN d          16.896 -12.903  22.755  0.00  0.00    -0.272 OA
ATOM      2  C20 FSN d          17.594 -12.667  21.785  0.00  0.00     0.234 C 
ATOM      3  N19 FSN d          18.723 -13.452  21.458  0.00  0.00    -0.283 N 
ATOM      4  C17 FSN d          19.235 -13.081  20.180  0.00  0.00     0.233 C 
ATOM      5  O18 FSN d          20.212 -13.580  19.645  0.00  0.00    -0.272 OA
ATOM      6  C16 FSN d          18.395 -12.023  19.626  0.00  0.00     0.066 C 
ATOM      7  C15 FSN d          17.359 -12.472  18.595  0.00  0.00     0.117 C 
ATOM      8  N11 FSN d          15.951 -12.707  19.164  0.00  0.00    -0.057 N 
ATOM      9  C12 FSN d          15.101 -12.329  17.998  0.00  0.00     0.085 C 
ATOM     10  C13 FSN d          16.011 -12.571  16.750  0.00  0.00    -0.040 C 
ATOM     11  C14 FSN d          17.369 -12.010  17.195  0.00  0.00    -0.036 C 
ATOM     12  C10 FSN d          16.013 -11.555  20.164  0.00  0.00     0.142 C 
ATOM     13  C22 FSN d          17.406 -11.614  20.764  0.00  0.00     0.069 C 
ATOM     14  H7  FSN d          19.015 -11.196  19.252  0.00  0.00     0.059 H 
ATOM     15  H8  FSN d          17.699 -13.507  18.444  0.00  0.00     0.086 H 
ATOM     16  H9  FSN d          15.748 -13.613  19.553  0.00  0.00     0.281 HD
ATOM     17  H10 FSN d          14.803 -11.272  18.061  0.00  0.00     0.076 H 
ATOM     18  H11 FSN d          14.203 -12.962  17.951  0.00  0.00     0.076 H 
ATOM     19  H12 FSN d          15.628 -12.029  15.872  0.00  0.00     0.035 H 
ATOM     20  H13 FSN d          16.084 -13.643  16.517  0.00  0.00     0.035 H 
ATOM     21  H14 FSN d          18.203 -12.445  16.623  0.00  0.00     0.036 H 
ATOM     22  H15 FSN d          17.407 -10.913  17.122  0.00  0.00     0.036 H 
ATOM     23  H16 FSN d          15.996 -10.634  19.564  0.00  0.00     0.093 H 
ATOM     24  H25 FSN d          17.661 -10.631  21.185  0.00  0.00     0.059 H 
ENDROOT
BRANCH  12  25
ATOM     25  C7  FSN d          14.829 -11.395  21.070  0.00  0.00    -0.027 A 
ATOM     26  C8  FSN d          14.513 -10.112  21.507  0.00  0.00    -0.074 A 
ATOM     27  C9  FSN d          13.391  -9.905  22.297  0.00  0.00    -0.069 A 
ATOM     28  H17 FSN d          15.144  -9.275  21.230  0.00  0.00     0.084 H 
ATOM     29  C4  FSN d          12.585 -11.022  22.651  0.00  0.00     0.007 A 
ATOM     30  H18 FSN d          13.134  -8.909  22.638  0.00  0.00     0.085 H 
ATOM     31  C5  FSN d          12.896 -12.313  22.210  0.00  0.00    -0.069 A 
ATOM     32  C6  FSN d          14.026 -12.511  21.411  0.00  0.00    -0.074 A 
ATOM     33  H19 FSN d          12.267 -13.152  22.487  0.00  0.00     0.085 H 
ATOM     34  H20 FSN d          14.283 -13.503  21.057  0.00  0.00     0.084 H 
BRANCH  29  35
ATOM     35  C3  FSN d          11.423 -10.785  23.492  0.00  0.00     0.102 C 
ATOM     36  N2  FSN d          11.043  -9.542  23.884  0.00  0.00    -0.385 N 
ATOM     37  H23 FSN d          11.581  -8.719  23.580  0.00  0.00     0.157 HD
ATOM     38  H24 FSN d          10.215  -9.422  24.485  0.00  0.00     0.157 HD
BRANCH  35  39
ATOM     39  N1  FSN d          10.649 -11.804  23.944  0.00  0.00    -0.385 N 
ATOM     40  H21 FSN d          10.170 -12.423  23.275  0.00  0.00     0.157 HD
ATOM     41  H22 FSN d          10.540 -11.959  24.956  0.00  0.00     0.157 HD
ENDBRANCH  35  39
ENDBRANCH  29  35
ENDBRANCH  12  25
BRANCH   3  42
ATOM     42  C23 FSN d          19.084 -14.626  22.252  0.00  0.00     0.029 C 
ATOM     43  H1  FSN d          19.635 -15.338  21.619  0.00  0.00     0.072 H 
ATOM     44  H2  FSN d          18.169 -15.104  22.631  0.00  0.00     0.072 H 
BRANCH  42  45
ATOM     45  C24 FSN d          19.950 -14.217  23.412  0.00  0.00    -0.040 A 
ATOM     46  C32 FSN d          19.378 -14.135  24.696  0.00  0.00    -0.072 A 
ATOM     47  C31 FSN d          20.185 -13.790  25.780  0.00  0.00    -0.045 A 
ATOM     48  H3  FSN d          18.324 -14.339  24.841  0.00  0.00     0.084 H 
ATOM     49  C30 FSN d          21.541 -13.532  25.543  0.00  0.00     0.116 A 
ATOM     50  H4  FSN d          19.772 -13.723  26.780  0.00  0.00     0.088 H 
ATOM     51  F29 FSN d          22.268 -13.225  26.632  0.00  0.00    -0.206 F 
ATOM     52  C26 FSN d          22.156 -13.586  24.284  0.00  0.00    -0.045 A 
ATOM     53  C25 FSN d          21.321 -13.938  23.194  0.00  0.00    -0.072 A 
ATOM     54  H5  FSN d          23.211 -13.370  24.152  0.00  0.00     0.088 H 
ATOM     55  H6  FSN d          21.733 -13.993  22.192  0.00  0.00     0.084 H 
ENDBRANCH  42  45
ENDBRANCH   3  42
TORSDOF 5
ENDMDL
MODEL 3
REMARK VINA RESULT:      -8.7      3.089      7.130
REMARK  5 active torsions:
REMARK  status: ('A' for Active; 'I' for Inactive)
REMARK    1  A    between atoms: N19_3  and  C23_4 
REMARK    2  A    between atoms: C23_4  and  C24_5 
REMARK    3  A    between atoms: C10_20  and  C7_21 
REMARK    4  A    between atoms: C4_24  and  C3_27 
REMARK    5  A    between atoms: C3_27  and  N1_28 
ROOT
ATOM      1  O21 FSN d          16.644 -12.004  21.772  0.00  0.00    -0.272 OA
ATOM      2  C20 FSN d          16.134 -12.035  20.667  0.00  0.00     0.234 C 
ATOM      3  N19 FSN d          15.137 -11.117  20.268  0.00  0.00    -0.283 N 
ATOM      4  C17 FSN d          14.862 -11.252  18.877  0.00  0.00     0.233 C 
ATOM      5  O18 FSN d          14.036 -10.599  18.259  0.00  0.00    -0.272 OA
ATOM      6  C16 FSN d          15.732 -12.285  18.323  0.00  0.00     0.066 C 
ATOM      7  C15 FSN d          16.971 -11.782  17.584  0.00  0.00     0.117 C 
ATOM      8  N11 FSN d          18.253 -11.754  18.430  0.00  0.00    -0.057 N 
ATOM      9  C12 FSN d          19.290 -12.029  17.394  0.00  0.00     0.085 C 
ATOM     10  C13 FSN d          18.655 -11.530  16.056  0.00  0.00    -0.040 C 
ATOM     11  C14 FSN d          17.206 -12.031  16.149  0.00  0.00    -0.036 C 
ATOM     12  C10 FSN d          17.934 -13.030  19.205  0.00  0.00     0.142 C 
ATOM     13  C22 FSN d          16.457 -12.940  19.542  0.00  0.00     0.069 C 
ATOM     14  H7  FSN d          15.150 -12.993  17.715  0.00  0.00     0.059 H 
ATOM     15  H8  FSN d          16.726 -10.710  17.541  0.00  0.00     0.086 H 
ATOM     16  H9  FSN d          18.428 -10.935  18.989  0.00  0.00     0.281 HD
ATOM     17  H10 FSN d          19.510 -13.106  17.341  0.00  0.00     0.076 H 
ATOM     18  H11 FSN d          20.215 -11.475  17.614  0.00  0.00     0.076 H 
ATOM     19  H12 FSN d          19.169 -11.968  15.187  0.00  0.00     0.035 H 
ATOM     20  H13 FSN d          18.689 -10.433  15.987  0.00  0.00     0.035 H 
ATOM     21  H14 FSN d          16.525 -11.448  15.512  0.00  0.00     0.036 H 
ATOM     22  H15 FSN d          17.121 -13.099  15.897  0.00  0.00     0.036 H 
ATOM     23  H16 FSN d          18.015 -13.851  18.479  0.00  0.00     0.093 H 
ATOM     24  H25 FSN d          16.070 -13.948  19.747  0.00  0.00     0.059 H 
ENDROOT
BRANCH  12  25
ATOM     25  C7  FSN d          18.909 -13.421  20.275  0.00  0.00    -0.027 A 
ATOM     26  C8  FSN d          19.984 -12.571  20.516  0.00  0.00    -0.074 A 
ATOM     27  C9  FSN d          20.880 -12.858  21.537  0.00  0.00    -0.069 A 
ATOM     28  H17 FSN d          20.122 -11.686  19.907  0.00  0.00     0.084 H 
ATOM     29  C4  FSN d          20.679 -14.030  22.317  0.00  0.00     0.007 A 
ATOM     30  H18 FSN d          21.718 -12.200  21.736  0.00  0.00     0.085 H 
ATOM     31  C5  FSN d          19.596 -14.885  22.081  0.00  0.00    -0.069 A 
ATOM     32  C6  FSN d          18.697 -14.585  21.054  0.00  0.00    -0.074 A 
ATOM     33  H19 FSN d          19.457 -15.772  22.690  0.00  0.00     0.085 H 
ATOM     34  H20 FSN d          17.851 -15.233  20.856  0.00  0.00     0.084 H 
BRANCH  29  35
ATOM     35  C3  FSN d          21.638 -14.320  23.371  0.00  0.00     0.102 C 
ATOM     36  N2  FSN d          22.850 -13.715  23.446  0.00  0.00    -0.385 N 
ATOM     37  H23 FSN d          23.121 -13.015  22.742  0.00  0.00     0.157 HD
ATOM     38  H24 FSN d          23.500 -13.955  24.209  0.00  0.00     0.157 HD
BRANCH  35  39
ATOM     39  N1  FSN d          21.374 -15.227  24.346  0.00  0.00    -0.385 N 
ATOM     40  H21 FSN d          20.835 -16.077  24.127  0.00  0.00     0.157 HD
ATOM     41  H22 FSN d          21.713 -15.065  25.306  0.00  0.00     0.157 HD
ENDBRANCH  35  39
ENDBRANCH  29  35
ENDBRANCH  12  25
BRANCH   3  42
ATOM     42  C23 FSN d          14.696 -10.045  21.160  0.00  0.00     0.029 C 
ATOM     43  H1  FSN d          14.368  -9.183  20.560  0.00  0.00     0.072 H 
ATOM     44  H2  FSN d          15.532  -9.744  21.809  0.00  0.00     0.072 H 
BRANCH  42  45
ATOM     45  C24 FSN d          13.551 -10.521  22.012  0.00  0.00    -0.040 A 
ATOM     46  C32 FSN d          13.144 -11.866  21.920  0.00  0.00    -0.072 A 
ATOM     47  C31 FSN d          12.106 -12.321  22.733  0.00  0.00    -0.045 A 
ATOM     48  H3  FSN d          13.632 -12.541  21.226  0.00  0.00     0.084 H 
ATOM     49  C30 FSN d          11.503 -11.411  23.612  0.00  0.00     0.116 A 
ATOM     50  H4  FSN d          11.774 -13.351  22.686  0.00  0.00     0.088 H 
ATOM     51  F29 FSN d          10.523 -11.917  24.382  0.00  0.00    -0.206 F 
ATOM     52  C26 FSN d          11.861 -10.060  23.732  0.00  0.00    -0.045 A 
ATOM     53  C25 FSN d          12.917  -9.616  22.898  0.00  0.00    -0.072 A 
ATOM     54  H5  FSN d          11.358  -9.394  24.424  0.00  0.00     0.088 H 
ATOM     55  H6  FSN d          13.240  -8.582  22.938  0.00  0.00     0.084 H 
ENDBRANCH  42  45
ENDBRANCH   3  42
TORSDOF 5
ENDMDL
