MODEL 1
REMARK VINA RESULT:      -7.0      0.000      0.000
REMARK  2 active torsions:
REMARK  status: ('A' for Active; 'I' for Inactive)
REMARK    1  A    between atoms: N_9  and  C11_13 
REMARK    2  A    between atoms: C9_11  and  S_10 
ROOT
ATOM      1  C1  MOL d         121.488 134.571  65.081  0.00  0.00     0.045 A 
ATOM      2  C2  MOL d         120.711 135.677  65.562  0.00  0.00    -0.056 A 
ATOM      3  C3  MOL d         119.318 135.722  65.386  0.00  0.00    -0.080 A 
ATOM      4  C4  MOL d         118.648 134.675  64.739  0.00  0.00    -0.072 A 
ATOM      5  C5  MOL d         119.344 133.546  64.241  0.00  0.00    -0.022 A 
ATOM      6  C6  MOL d         118.632 132.498  63.593  0.00  0.00    -0.072 A 
ATOM      7  C7  MOL d         119.290 131.369  63.090  0.00  0.00    -0.081 A 
ATOM      8  C8  MOL d         120.681 131.252  63.218  0.00  0.00    -0.058 A 
ATOM      9  N   MOL d         122.788 134.569  65.268  0.00  0.00    -0.355 N 
ATOM     10  C9  MOL d         121.449 132.259  63.851  0.00  0.00     0.094 A 
ATOM     11  C10 MOL d         120.806 133.455  64.397  0.00  0.00     0.025 A 
ATOM     12  H1  MOL d         121.208 136.494  66.070  0.00  0.00     0.086 H 
ATOM     13  H2  MOL d         118.757 136.573  65.754  0.00  0.00     0.083 H 
ATOM     14  H3  MOL d         117.572 134.731  64.616  0.00  0.00     0.084 H 
ATOM     15  H4  MOL d         117.556 132.575  63.486  0.00  0.00     0.084 H 
ATOM     16  H5  MOL d         118.724 130.584  62.602  0.00  0.00     0.083 H 
ATOM     17  H6  MOL d         121.179 130.373  62.823  0.00  0.00     0.086 H 
ATOM     18  H7  MOL d         123.179 133.742  65.741  0.00  0.00     0.166 HD
ENDROOT
BRANCH   9  19
ATOM     19  C11 MOL d         123.653 135.509  64.919  0.00  0.00     0.032 A 
ATOM     20  C12 MOL d         123.446 136.417  63.814  0.00  0.00    -0.057 A 
ATOM     21  C13 MOL d         124.429 137.401  63.489  0.00  0.00    -0.081 A 
ATOM     22  H8  MOL d         122.537 136.352  63.227  0.00  0.00     0.086 H 
ATOM     23  C14 MOL d         125.626 137.485  64.260  0.00  0.00    -0.083 A 
ATOM     24  H9  MOL d         124.267 138.079  62.660  0.00  0.00     0.083 H 
ATOM     25  C15 MOL d         125.834 136.594  65.349  0.00  0.00    -0.081 A 
ATOM     26  H10 MOL d         126.376 138.228  64.017  0.00  0.00     0.083 H 
ATOM     27  C16 MOL d         124.855 135.613  65.674  0.00  0.00    -0.057 A 
ATOM     28  H11 MOL d         126.743 136.663  65.935  0.00  0.00     0.083 H 
ATOM     29  H12 MOL d         125.027 134.938  66.504  0.00  0.00     0.086 H 
ENDBRANCH   9  19
BRANCH  10  30
ATOM     30  S   MOL d         123.206 131.968  63.920  0.00  0.00     0.138 S 
ATOM     31  O1  MOL d         123.896 133.012  63.197  0.00  0.00    -0.591 OA
ATOM     32  O2  MOL d         123.451 130.657  63.344  0.00  0.00    -0.591 OA
ATOM     33  O3  MOL d         123.687 131.953  65.492  0.00  0.00    -0.591 OA
ENDBRANCH  10  30
TORSDOF 2
ENDMDL
MODEL 2
REMARK VINA RESULT:      -7.0      2.746      4.201
REMARK  2 active torsions:
REMARK  status: ('A' for Active; 'I' for Inactive)
REMARK    1  A    between atoms: N_9  and  C11_13 
REMARK    2  A    between atoms: C9_11  and  S_10 
ROOT
ATOM      1  C1  MOL d         122.290 133.254  64.220  0.00  0.00     0.045 A 
ATOM      2  C2  MOL d         122.134 131.945  63.654  0.00  0.00    -0.056 A 
ATOM      3  C3  MOL d         120.865 131.362  63.498  0.00  0.00    -0.080 A 
ATOM      4  C4  MOL d         119.711 132.055  63.887  0.00  0.00    -0.072 A 
ATOM      5  C5  MOL d         119.782 133.355  64.449  0.00  0.00    -0.022 A 
ATOM      6  C6  MOL d         118.589 134.032  64.830  0.00  0.00    -0.072 A 
ATOM      7  C7  MOL d         118.624 135.316  65.388  0.00  0.00    -0.081 A 
ATOM      8  C8  MOL d         119.852 135.963  65.584  0.00  0.00    -0.058 A 
ATOM      9  N   MOL d         123.494 133.762  64.345  0.00  0.00    -0.355 N 
ATOM     10  C9  MOL d         121.075 135.345  65.228  0.00  0.00     0.094 A 
ATOM     11  C10 MOL d         121.090 134.006  64.637  0.00  0.00     0.025 A 
ATOM     12  H1  MOL d         123.013 131.395  63.340  0.00  0.00     0.086 H 
ATOM     13  H2  MOL d         120.779 130.369  63.073  0.00  0.00     0.083 H 
ATOM     14  H3  MOL d         118.743 131.587  63.757  0.00  0.00     0.084 H 
ATOM     15  H4  MOL d         117.632 133.543  64.685  0.00  0.00     0.084 H 
ATOM     16  H5  MOL d         117.701 135.810  65.668  0.00  0.00     0.083 H 
ATOM     17  H6  MOL d         119.866 136.956  66.018  0.00  0.00     0.086 H 
ATOM     18  H7  MOL d         123.646 134.687  63.918  0.00  0.00     0.166 HD
ENDROOT
BRANCH   9  19
ATOM     19  C11 MOL d         124.535 133.221  64.959  0.00  0.00     0.032 A 
ATOM     20  C12 MOL d         124.422 132.292  66.060  0.00  0.00    -0.057 A 
ATOM     21  C13 MOL d         125.592 131.756  66.681  0.00  0.00    -0.081 A 
ATOM     22  H8  MOL d         123.442 132.000  66.419  0.00  0.00     0.086 H 
ATOM     23  C14 MOL d         126.881 132.143  66.210  0.00  0.00    -0.083 A 
ATOM     24  H9  MOL d         125.500 131.060  67.506  0.00  0.00     0.083 H 
ATOM     25  C15 MOL d         126.998 133.055  65.126  0.00  0.00    -0.081 A 
ATOM     26  H10 MOL d         127.772 131.741  66.678  0.00  0.00     0.083 H 
ATOM     27  C16 MOL d         125.833 133.591  64.507  0.00  0.00    -0.057 A 
ATOM     28  H11 MOL d         127.979 133.345  64.769  0.00  0.00     0.083 H 
ATOM     29  H12 MOL d         125.936 134.288  63.683  0.00  0.00     0.086 H 
ENDBRANCH   9  19
BRANCH  10  30
ATOM     30  S   MOL d         122.549 136.293  65.554  0.00  0.00     0.138 S 
ATOM     31  O1  MOL d         123.389 135.571  66.483  0.00  0.00    -0.591 OA
ATOM     32  O2  MOL d         122.129 137.576  66.088  0.00  0.00    -0.591 OA
ATOM     33  O3  MOL d         123.350 136.543  64.141  0.00  0.00    -0.591 OA
ENDBRANCH  10  30
TORSDOF 2
ENDMDL
MODEL 3
REMARK VINA RESULT:      -6.7      2.722      4.052
REMARK  2 active torsions:
REMARK  status: ('A' for Active; 'I' for Inactive)
REMARK    1  A    between atoms: N_9  and  C11_13 
REMARK    2  A    between atoms: C9_11  and  S_10 
ROOT
ATOM      1  C1  MOL d         122.788 132.702  64.159  0.00  0.00     0.045 A 
ATOM      2  C2  MOL d         122.948 131.356  63.687  0.00  0.00    -0.056 A 
ATOM      3  C3  MOL d         121.838 130.526  63.458  0.00  0.00    -0.080 A 
ATOM      4  C4  MOL d         120.537 130.999  63.678  0.00  0.00    -0.072 A 
ATOM      5  C5  MOL d         120.297 132.318  64.138  0.00  0.00    -0.022 A 
ATOM      6  C6  MOL d         118.963 132.768  64.347  0.00  0.00    -0.072 A 
ATOM      7  C7  MOL d         118.691 134.065  64.801  0.00  0.00    -0.081 A 
ATOM      8  C8  MOL d         119.745 134.952  65.061  0.00  0.00    -0.058 A 
ATOM      9  N   MOL d         123.852 133.444  64.358  0.00  0.00    -0.355 N 
ATOM     10  C9  MOL d         121.094 134.568  64.875  0.00  0.00     0.094 A 
ATOM     11  C10 MOL d         121.428 133.225  64.398  0.00  0.00     0.025 A 
ATOM     12  H1  MOL d         123.945 130.973  63.504  0.00  0.00     0.086 H 
ATOM     13  H2  MOL d         121.989 129.512  63.108  0.00  0.00     0.083 H 
ATOM     14  H3  MOL d         119.696 130.341  63.493  0.00  0.00     0.084 H 
ATOM     15  H4  MOL d         118.138 132.092  64.151  0.00  0.00     0.084 H 
ATOM     16  H5  MOL d         117.666 134.383  64.950  0.00  0.00     0.083 H 
ATOM     17  H6  MOL d         119.521 135.953  65.413  0.00  0.00     0.086 H 
ATOM     18  H7  MOL d         123.872 134.353  63.874  0.00  0.00     0.166 HD
ENDROOT
BRANCH   9  19
ATOM     19  C11 MOL d         124.904 133.158  65.110  0.00  0.00     0.032 A 
ATOM     20  C12 MOL d         126.271 133.309  64.666  0.00  0.00    -0.057 A 
ATOM     21  C13 MOL d         127.357 132.969  65.531  0.00  0.00    -0.081 A 
ATOM     22  H8  MOL d         126.474 133.682  63.670  0.00  0.00     0.086 H 
ATOM     23  C14 MOL d         127.088 132.476  66.842  0.00  0.00    -0.083 A 
ATOM     24  H9  MOL d         128.379 133.086  65.192  0.00  0.00     0.083 H 
ATOM     25  C15 MOL d         125.745 132.327  67.283  0.00  0.00    -0.081 A 
ATOM     26  H10 MOL d         127.907 132.216  67.501  0.00  0.00     0.083 H 
ATOM     27  C16 MOL d         124.661 132.664  66.423  0.00  0.00    -0.057 A 
ATOM     28  H11 MOL d         125.544 131.954  68.281  0.00  0.00     0.083 H 
ATOM     29  H12 MOL d         123.642 132.543  66.771  0.00  0.00     0.086 H 
ENDBRANCH   9  19
BRANCH  10  30
ATOM     30  S   MOL d         122.316 135.806  65.263  0.00  0.00     0.138 S 
ATOM     31  O1  MOL d         123.171 136.015  64.116  0.00  0.00    -0.591 OA
ATOM     32  O2  MOL d         123.061 135.332  66.416  0.00  0.00    -0.591 OA
ATOM     33  O3  MOL d         121.553 137.205  65.666  0.00  0.00    -0.591 OA
ENDBRANCH  10  30
TORSDOF 2
ENDMDL
MODEL 4
REMARK VINA RESULT:      -5.6      1.630      5.380
REMARK  2 active torsions:
REMARK  status: ('A' for Active; 'I' for Inactive)
REMARK    1  A    between atoms: N_9  and  C11_13 
REMARK    2  A    between atoms: C9_11  and  S_10 
ROOT
ATOM      1  C1  MOL d         123.772 135.003  64.216  0.00  0.00     0.045 A 
ATOM      2  C2  MOL d         123.670 136.421  64.028  0.00  0.00    -0.056 A 
ATOM      3  C3  MOL d         124.764 137.271  64.263  0.00  0.00    -0.080 A 
ATOM      4  C4  MOL d         125.994 136.747  64.684  0.00  0.00    -0.072 A 
ATOM      5  C5  MOL d         126.176 135.356  64.887  0.00  0.00    -0.022 A 
ATOM      6  C6  MOL d         127.441 134.858  65.309  0.00  0.00    -0.072 A 
ATOM      7  C7  MOL d         127.653 133.489  65.519  0.00  0.00    -0.081 A 
ATOM      8  C8  MOL d         126.609 132.577  65.314  0.00  0.00    -0.058 A 
ATOM      9  N   MOL d         122.725 134.246  63.983  0.00  0.00    -0.355 N 
ATOM     10  C9  MOL d         125.328 133.007  64.894  0.00  0.00     0.094 A 
ATOM     11  C10 MOL d         125.057 134.426  64.657  0.00  0.00     0.025 A 
ATOM     12  H1  MOL d         122.729 136.846  63.697  0.00  0.00     0.086 H 
ATOM     13  H2  MOL d         124.655 138.339  64.119  0.00  0.00     0.083 H 
ATOM     14  H3  MOL d         126.824 137.421  64.858  0.00  0.00     0.084 H 
ATOM     15  H4  MOL d         128.257 135.552  65.473  0.00  0.00     0.084 H 
ATOM     16  H5  MOL d         128.626 133.136  65.839  0.00  0.00     0.083 H 
ATOM     17  H6  MOL d         126.787 131.521  65.480  0.00  0.00     0.086 H 
ATOM     18  H7  MOL d         122.863 133.468  63.321  0.00  0.00     0.166 HD
ENDROOT
BRANCH   9  19
ATOM     19  C11 MOL d         121.513 134.367  64.501  0.00  0.00     0.032 A 
ATOM     20  C12 MOL d         121.170 135.332  65.520  0.00  0.00    -0.057 A 
ATOM     21  C13 MOL d         119.841 135.398  66.040  0.00  0.00    -0.081 A 
ATOM     22  H8  MOL d         121.928 136.011  65.894  0.00  0.00     0.086 H 
ATOM     23  C14 MOL d         118.846 134.503  65.549  0.00  0.00    -0.083 A 
ATOM     24  H9  MOL d         119.591 136.125  66.804  0.00  0.00     0.083 H 
ATOM     25  C15 MOL d         119.177 133.553  64.545  0.00  0.00    -0.081 A 
ATOM     26  H10 MOL d         117.836 134.547  65.941  0.00  0.00     0.083 H 
ATOM     27  C16 MOL d         120.502 133.485  64.026  0.00  0.00    -0.057 A 
ATOM     28  H11 MOL d         118.417 132.875  64.172  0.00  0.00     0.083 H 
ATOM     29  H12 MOL d         120.742 132.754  63.263  0.00  0.00     0.086 H 
ENDBRANCH   9  19
BRANCH  10  30
ATOM     30  S   MOL d         124.106 131.726  64.692  0.00  0.00     0.138 S 
ATOM     31  O1  MOL d         123.039 131.923  65.648  0.00  0.00    -0.591 OA
ATOM     32  O2  MOL d         124.777 130.453  64.885  0.00  0.00    -0.591 OA
ATOM     33  O3  MOL d         123.513 131.785  63.161  0.00  0.00    -0.591 OA
ENDBRANCH  10  30
TORSDOF 2
ENDMDL
MODEL 5
REMARK VINA RESULT:      -5.0      1.687      5.243
REMARK  2 active torsions:
REMARK  status: ('A' for Active; 'I' for Inactive)
REMARK    1  A    between atoms: N_9  and  C11_13 
REMARK    2  A    between atoms: C9_11  and  S_10 
ROOT
ATOM      1  C1  MOL d         122.819 134.672  64.960  0.00  0.00     0.045 A 
ATOM      2  C2  MOL d         122.364 136.028  65.075  0.00  0.00    -0.056 A 
ATOM      3  C3  MOL d         122.995 136.941  65.936  0.00  0.00    -0.080 A 
ATOM      4  C4  MOL d         124.099 136.548  66.704  0.00  0.00    -0.072 A 
ATOM      5  C5  MOL d         124.612 135.228  66.642  0.00  0.00    -0.022 A 
ATOM      6  C6  MOL d         125.739 134.863  67.433  0.00  0.00    -0.072 A 
ATOM      7  C7  MOL d         126.269 133.568  67.395  0.00  0.00    -0.081 A 
ATOM      8  C8  MOL d         125.691 132.596  66.567  0.00  0.00    -0.058 A 
ATOM      9  N   MOL d         122.201 133.854  64.142  0.00  0.00    -0.355 N 
ATOM     10  C9  MOL d         124.569 132.893  65.756  0.00  0.00     0.094 A 
ATOM     11  C10 MOL d         123.981 134.233  65.758  0.00  0.00     0.025 A 
ATOM     12  H1  MOL d         121.515 136.355  64.485  0.00  0.00     0.086 H 
ATOM     13  H2  MOL d         122.626 137.957  66.007  0.00  0.00     0.083 H 
ATOM     14  H3  MOL d         124.572 137.269  67.361  0.00  0.00     0.084 H 
ATOM     15  H4  MOL d         126.196 135.604  68.078  0.00  0.00     0.084 H 
ATOM     16  H5  MOL d         127.128 133.316  68.005  0.00  0.00     0.083 H 
ATOM     17  H6  MOL d         126.110 131.596  66.547  0.00  0.00     0.086 H 
ATOM     18  H7  MOL d         122.789 133.378  63.442  0.00  0.00     0.166 HD
ENDROOT
BRANCH   9  19
ATOM     19  C11 MOL d         120.908 133.568  64.113  0.00  0.00     0.032 A 
ATOM     20  C12 MOL d         120.342 132.496  63.327  0.00  0.00    -0.057 A 
ATOM     21  C13 MOL d         118.934 132.253  63.337  0.00  0.00    -0.081 A 
ATOM     22  H8  MOL d         120.990 131.871  62.724  0.00  0.00     0.086 H 
ATOM     23  C14 MOL d         118.081 133.078  64.129  0.00  0.00    -0.083 A 
ATOM     24  H9  MOL d         118.516 131.447  62.746  0.00  0.00     0.083 H 
ATOM     25  C15 MOL d         118.633 134.133  64.904  0.00  0.00    -0.081 A 
ATOM     26  H10 MOL d         117.013 132.900  64.139  0.00  0.00     0.083 H 
ATOM     27  C16 MOL d         120.036 134.377  64.895  0.00  0.00    -0.057 A 
ATOM     28  H11 MOL d         117.983 134.756  65.507  0.00  0.00     0.083 H 
ATOM     29  H12 MOL d         120.444 135.187  65.489  0.00  0.00     0.086 H 
ENDBRANCH   9  19
BRANCH  10  30
ATOM     30  S   MOL d         123.942 131.545  64.772  0.00  0.00     0.138 S 
ATOM     31  O1  MOL d         122.631 131.168  65.251  0.00  0.00    -0.591 OA
ATOM     32  O2  MOL d         124.893 130.453  64.879  0.00  0.00    -0.591 OA
ATOM     33  O3  MOL d         123.858 132.021  63.201  0.00  0.00    -0.591 OA
ENDBRANCH  10  30
TORSDOF 2
ENDMDL
MODEL 6
REMARK VINA RESULT:      -5.0      2.841      6.280
REMARK  2 active torsions:
REMARK  status: ('A' for Active; 'I' for Inactive)
REMARK    1  A    between atoms: N_9  and  C11_13 
REMARK    2  A    between atoms: C9_11  and  S_10 
ROOT
ATOM      1  C1  MOL d         124.077 132.647  65.218  0.00  0.00     0.045 A 
ATOM      2  C2  MOL d         124.234 131.221  65.268  0.00  0.00    -0.056 A 
ATOM      3  C3  MOL d         125.506 130.625  65.253  0.00  0.00    -0.080 A 
ATOM      4  C4  MOL d         126.661 131.416  65.197  0.00  0.00    -0.072 A 
ATOM      5  C5  MOL d         126.590 132.831  65.151  0.00  0.00    -0.022 A 
ATOM      6  C6  MOL d         127.784 133.604  65.099  0.00  0.00    -0.072 A 
ATOM      7  C7  MOL d         127.747 135.003  65.053  0.00  0.00    -0.081 A 
ATOM      8  C8  MOL d         126.516 135.674  65.056  0.00  0.00    -0.058 A 
ATOM      9  N   MOL d         122.869 133.161  65.236  0.00  0.00    -0.355 N 
ATOM     10  C9  MOL d         125.292 134.964  65.105  0.00  0.00     0.094 A 
ATOM     11  C10 MOL d         125.278 133.502  65.160  0.00  0.00     0.025 A 
ATOM     12  H1  MOL d         123.353 130.592  65.318  0.00  0.00     0.086 H 
ATOM     13  H2  MOL d         125.594 129.546  65.285  0.00  0.00     0.083 H 
ATOM     14  H3  MOL d         127.632 130.934  65.188  0.00  0.00     0.084 H 
ATOM     15  H4  MOL d         128.743 133.099  65.096  0.00  0.00     0.084 H 
ATOM     16  H5  MOL d         128.671 135.568  65.016  0.00  0.00     0.083 H 
ATOM     17  H6  MOL d         126.501 136.757  65.019  0.00  0.00     0.086 H 
ATOM     18  H7  MOL d         122.683 133.863  65.967  0.00  0.00     0.166 HD
ENDROOT
BRANCH   9  19
ATOM     19  C11 MOL d         121.863 132.882  64.421  0.00  0.00     0.032 A 
ATOM     20  C12 MOL d         121.820 131.714  63.572  0.00  0.00    -0.057 A 
ATOM     21  C13 MOL d         120.705 131.483  62.710  0.00  0.00    -0.081 A 
ATOM     22  H8  MOL d         122.641 131.007  63.589  0.00  0.00     0.086 H 
ATOM     23  C14 MOL d         119.626 132.415  62.687  0.00  0.00    -0.083 A 
ATOM     24  H9  MOL d         120.679 130.604  62.077  0.00  0.00     0.083 H 
ATOM     25  C15 MOL d         119.663 133.566  63.521  0.00  0.00    -0.081 A 
ATOM     26  H10 MOL d         118.778 132.247  62.034  0.00  0.00     0.083 H 
ATOM     27  C16 MOL d         120.774 133.798  64.380  0.00  0.00    -0.057 A 
ATOM     28  H11 MOL d         118.840 134.271  63.503  0.00  0.00     0.083 H 
ATOM     29  H12 MOL d         120.791 134.681  65.009  0.00  0.00     0.086 H 
ENDBRANCH   9  19
BRANCH  10  30
ATOM     30  S   MOL d         123.815 135.962  65.088  0.00  0.00     0.138 S 
ATOM     31  O1  MOL d         122.994 135.627  66.230  0.00  0.00    -0.591 OA
ATOM     32  O2  MOL d         123.131 135.701  63.834  0.00  0.00    -0.591 OA
ATOM     33  O3  MOL d         124.238 137.549  65.139  0.00  0.00    -0.591 OA
ENDBRANCH  10  30
TORSDOF 2
ENDMDL
MODEL 7
REMARK VINA RESULT:      -4.6      2.638      5.759
REMARK  2 active torsions:
REMARK  status: ('A' for Active; 'I' for Inactive)
REMARK    1  A    between atoms: N_9  and  C11_13 
REMARK    2  A    between atoms: C9_11  and  S_10 
ROOT
ATOM      1  C1  MOL d         122.075 133.152  64.892  0.00  0.00     0.045 A 
ATOM      2  C2  MOL d         121.867 131.818  64.404  0.00  0.00    -0.056 A 
ATOM      3  C3  MOL d         122.939 131.028  63.957  0.00  0.00    -0.080 A 
ATOM      4  C4  MOL d         124.249 131.525  63.984  0.00  0.00    -0.072 A 
ATOM      5  C5  MOL d         124.537 132.830  64.457  0.00  0.00    -0.022 A 
ATOM      6  C6  MOL d         125.880 133.301  64.475  0.00  0.00    -0.072 A 
ATOM      7  C7  MOL d         126.198 134.585  64.937  0.00  0.00    -0.081 A 
ATOM      8  C8  MOL d         125.183 135.438  65.392  0.00  0.00    -0.058 A 
ATOM      9  N   MOL d         121.045 133.854  65.302  0.00  0.00    -0.355 N 
ATOM     10  C9  MOL d         123.828 135.031  65.400  0.00  0.00     0.094 A 
ATOM     11  C10 MOL d         123.446 133.698  64.932  0.00  0.00     0.025 A 
ATOM     12  H1  MOL d         120.863 131.413  64.380  0.00  0.00     0.086 H 
ATOM     13  H2  MOL d         122.752 130.027  63.587  0.00  0.00     0.083 H 
ATOM     14  H3  MOL d         125.061 130.897  63.635  0.00  0.00     0.084 H 
ATOM     15  H4  MOL d         126.675 132.652  64.125  0.00  0.00     0.084 H 
ATOM     16  H5  MOL d         127.229 134.919  64.941  0.00  0.00     0.083 H 
ATOM     17  H6  MOL d         125.442 136.430  65.745  0.00  0.00     0.086 H 
ATOM     18  H7  MOL d         121.107 134.240  66.255  0.00  0.00     0.166 HD
ENDROOT
BRANCH   9  19
ATOM     19  C11 MOL d         119.936 134.124  64.631  0.00  0.00     0.032 A 
ATOM     20  C12 MOL d         119.573 133.476  63.391  0.00  0.00    -0.057 A 
ATOM     21  C13 MOL d         118.363 133.826  62.716  0.00  0.00    -0.081 A 
ATOM     22  H8  MOL d         120.223 132.718  62.970  0.00  0.00     0.086 H 
ATOM     23  C14 MOL d         117.509 134.825  63.270  0.00  0.00    -0.083 A 
ATOM     24  H9  MOL d         118.096 133.335  61.788  0.00  0.00     0.083 H 
ATOM     25  C15 MOL d         117.862 135.465  64.490  0.00  0.00    -0.081 A 
ATOM     26  H10 MOL d         116.592 135.096  62.762  0.00  0.00     0.083 H 
ATOM     27  C16 MOL d         119.067 135.117  65.164  0.00  0.00    -0.057 A 
ATOM     28  H11 MOL d         117.209 136.221  64.910  0.00  0.00     0.083 H 
ATOM     29  H12 MOL d         119.326 135.615  66.092  0.00  0.00     0.086 H 
ENDBRANCH   9  19
BRANCH  10  30
ATOM     30  S   MOL d         122.658 136.237  65.996  0.00  0.00     0.138 S 
ATOM     31  O1  MOL d         121.906 135.675  67.095  0.00  0.00    -0.591 OA
ATOM     32  O2  MOL d         121.800 136.597  64.880  0.00  0.00    -0.591 OA
ATOM     33  O3  MOL d         123.472 137.576  66.490  0.00  0.00    -0.591 OA
ENDBRANCH  10  30
TORSDOF 2
ENDMDL
MODEL 8
REMARK VINA RESULT:      -4.3      2.704      5.792
REMARK  2 active torsions:
REMARK  status: ('A' for Active; 'I' for Inactive)
REMARK    1  A    between atoms: N_9  and  C11_13 
REMARK    2  A    between atoms: C9_11  and  S_10 
ROOT
ATOM      1  C1  MOL d         122.009 133.296  64.881  0.00  0.00     0.045 A 
ATOM      2  C2  MOL d         121.826 131.991  64.314  0.00  0.00    -0.056 A 
ATOM      3  C3  MOL d         122.915 131.240  63.842  0.00  0.00    -0.080 A 
ATOM      4  C4  MOL d         124.218 131.749  63.922  0.00  0.00    -0.072 A 
ATOM      5  C5  MOL d         124.482 133.028  64.474  0.00  0.00    -0.022 A 
ATOM      6  C6  MOL d         125.818 133.513  64.543  0.00  0.00    -0.072 A 
ATOM      7  C7  MOL d         126.111 134.772  65.083  0.00  0.00    -0.081 A 
ATOM      8  C8  MOL d         125.078 135.586  65.568  0.00  0.00    -0.058 A 
ATOM      9  N   MOL d         120.963 133.962  65.312  0.00  0.00    -0.355 N 
ATOM     10  C9  MOL d         123.728 135.164  65.527  0.00  0.00     0.094 A 
ATOM     11  C10 MOL d         123.372 133.855  64.978  0.00  0.00     0.025 A 
ATOM     12  H1  MOL d         120.827 131.575  64.249  0.00  0.00     0.086 H 
ATOM     13  H2  MOL d         122.747 130.259  63.413  0.00  0.00     0.083 H 
ATOM     14  H3  MOL d         125.044 131.152  63.552  0.00  0.00     0.084 H 
ATOM     15  H4  MOL d         126.627 132.894  64.171  0.00  0.00     0.084 H 
ATOM     16  H5  MOL d         127.138 135.117  65.125  0.00  0.00     0.083 H 
ATOM     17  H6  MOL d         125.319 136.559  65.982  0.00  0.00     0.086 H 
ATOM     18  H7  MOL d         121.003 134.294  66.286  0.00  0.00     0.166 HD
ENDROOT
BRANCH   9  19
ATOM     19  C11 MOL d         119.862 134.257  64.637  0.00  0.00     0.032 A 
ATOM     20  C12 MOL d         118.879 135.216  65.087  0.00  0.00    -0.057 A 
ATOM     21  C13 MOL d         117.709 135.476  64.309  0.00  0.00    -0.081 A 
ATOM     22  H8  MOL d         119.031 135.742  66.022  0.00  0.00     0.086 H 
ATOM     23  C14 MOL d         117.510 134.782  63.080  0.00  0.00    -0.083 A 
ATOM     24  H9  MOL d         116.977 136.197  64.653  0.00  0.00     0.083 H 
ATOM     25  C15 MOL d         118.474 133.838  62.632  0.00  0.00    -0.081 A 
ATOM     26  H10 MOL d         116.624 134.973  62.487  0.00  0.00     0.083 H 
ATOM     27  C16 MOL d         119.641 133.577  63.406  0.00  0.00    -0.057 A 
ATOM     28  H11 MOL d         118.321 133.314  61.696  0.00  0.00     0.083 H 
ATOM     29  H12 MOL d         120.367 132.853  63.055  0.00  0.00     0.086 H 
ENDBRANCH   9  19
BRANCH  10  30
ATOM     30  S   MOL d         122.533 136.320  66.169  0.00  0.00     0.138 S 
ATOM     31  O1  MOL d         123.220 137.473  66.707  0.00  0.00    -0.591 OA
ATOM     32  O2  MOL d         121.762 135.626  67.186  0.00  0.00    -0.591 OA
ATOM     33  O3  MOL d         121.521 136.776  64.957  0.00  0.00    -0.591 OA
ENDBRANCH  10  30
TORSDOF 2
ENDMDL
