MODEL 1
REMARK VINA RESULT:      -8.3      0.000      0.000
REMARK  4 active torsions:
REMARK  status: ('A' for Active; 'I' for Inactive)
REMARK    1  A    between atoms: S5_2  and  N21_4 
REMARK    2  A    between atoms: S5_2  and  C5_12 
REMARK    3  A    between atoms: C22_5  and  C2M_6 
REMARK    4  A    between atoms: C4_14  and  CM_15 
ROOT
ATOM      1  N21 H52 d          10.161   9.374   3.652  0.00  0.00    -0.301 N 
ATOM      2  C22 H52 d          10.507   7.909   3.874  0.00  0.00     0.042 C 
ATOM      3  C23 H52 d          11.967   7.507   3.630  0.00  0.00     0.100 C 
ATOM      4  N24 H52 d          12.822   8.185   4.682  0.00  0.00    -0.073 N 
ATOM      5  C25 H52 d          13.351   9.494   4.118  0.00  0.00     0.083 C 
ATOM      6  C26 H52 d          12.295  10.613   4.056  0.00  0.00    -0.027 C 
ATOM      7  C27 H52 d          11.187  10.277   3.066  0.00  0.00     0.007 C 
ATOM      8  H1  H52 d          10.331   7.740   4.947  0.00  0.00     0.075 H 
ATOM      9  H5  H52 d          12.282   7.831   2.627  0.00  0.00     0.078 H 
ATOM     10  H6  H52 d          12.071   6.414   3.711  0.00  0.00     0.078 H 
ATOM     11  H7  H52 d          13.595   7.586   4.927  0.00  0.00     0.277 HD
ATOM     12  H8  H52 d          12.267   8.370   5.502  0.00  0.00     0.277 HD
ATOM     13  H9  H52 d          13.720   9.309   3.098  0.00  0.00     0.075 H 
ATOM     14  H10 H52 d          14.182   9.835   4.752  0.00  0.00     0.075 H 
ATOM     15  H11 H52 d          12.782  11.549   3.745  0.00  0.00     0.037 H 
ATOM     16  H12 H52 d          11.854  10.743   5.056  0.00  0.00     0.037 H 
ATOM     17  H13 H52 d          10.698  11.211   2.752  0.00  0.00     0.065 H 
ATOM     18  H14 H52 d          11.634   9.784   2.189  0.00  0.00     0.065 H 
ENDROOT
BRANCH   1  19
ATOM     19  S5  H52 d           8.776   9.962   4.470  0.00  0.00     0.262 S 
ATOM     20  O1  H52 d           8.907  11.358   4.969  0.00  0.00    -0.200 OA
ATOM     21  O2  H52 d           8.468   8.915   5.452  0.00  0.00    -0.200 OA
BRANCH  19  22
ATOM     22  C5  H52 d           7.429   9.894   3.303  0.00  0.00     0.091 A 
ATOM     23  C10 H52 d           5.991   9.925   3.619  0.00  0.00     0.006 A 
ATOM     24  C4  H52 d           5.306  10.088   4.891  0.00  0.00    -0.032 A 
ATOM     25  C9  H52 d           5.097   9.765   2.517  0.00  0.00    -0.006 A 
ATOM     26  C3  H52 d           3.931  10.055   4.986  0.00  0.00     0.008 A 
ATOM     27  N2  H52 d           3.149   9.865   3.904  0.00  0.00    -0.272 NA
ATOM     28  H22 H52 d           3.466  10.185   5.956  0.00  0.00     0.115 H 
ATOM     29  C1  H52 d           3.683   9.758   2.712  0.00  0.00     0.013 A 
ATOM     30  H21 H52 d           3.033   9.660   1.850  0.00  0.00     0.116 H 
ATOM     31  C8  H52 d           5.589   9.597   1.193  0.00  0.00    -0.071 A 
ATOM     32  C7  H52 d           6.932   9.571   0.940  0.00  0.00    -0.081 A 
ATOM     33  H18 H52 d           4.889   9.488   0.372  0.00  0.00     0.084 H 
ATOM     34  C6  H52 d           7.856   9.692   2.007  0.00  0.00    -0.059 A 
ATOM     35  H19 H52 d           7.290   9.457  -0.077  0.00  0.00     0.083 H 
ATOM     36  H20 H52 d           8.918   9.626   1.801  0.00  0.00     0.085 H 
BRANCH  24  37
ATOM     37  CM  H52 d           5.931  10.326   6.232  0.00  0.00    -0.049 C 
ATOM     38  H15 H52 d           5.142  10.405   6.995  0.00  0.00     0.033 H 
ATOM     39  H16 H52 d           6.511  11.260   6.206  0.00  0.00     0.033 H 
ATOM     40  H17 H52 d           6.598   9.487   6.479  0.00  0.00     0.033 H 
ENDBRANCH  24  37
ENDBRANCH  19  22
ENDBRANCH   1  19
BRANCH   2  41
ATOM     41  C2M H52 d           9.588   6.948   3.141  0.00  0.00    -0.055 C 
ATOM     42  H2  H52 d           9.899   5.913   3.348  0.00  0.00     0.030 H 
ATOM     43  H3  H52 d           9.646   7.138   2.059  0.00  0.00     0.030 H 
ATOM     44  H4  H52 d           8.554   7.095   3.484  0.00  0.00     0.030 H 
ENDBRANCH   2  41
TORSDOF 4
ENDMDL
