MODEL 1
REMARK VINA RESULT:      -8.4      0.000      0.000
REMARK  4 active torsions:
REMARK  status: ('A' for Active; 'I' for Inactive)
REMARK    1  A    between atoms: S5_2  and  N21_4 
REMARK    2  A    between atoms: S5_2  and  C5_12 
REMARK    3  A    between atoms: C22_5  and  C2M_6 
REMARK    4  A    between atoms: C4_14  and  CM_15 
ROOT
ATOM      1  N21 H52 d          10.173   9.416   3.674  0.00  0.00    -0.301 N 
ATOM      2  C22 H52 d          10.502   7.946   3.888  0.00  0.00     0.042 C 
ATOM      3  C23 H52 d          11.960   7.530   3.656  0.00  0.00     0.100 C 
ATOM      4  N24 H52 d          12.811   8.192   4.721  0.00  0.00    -0.073 N 
ATOM      5  C25 H52 d          13.359   9.500   4.172  0.00  0.00     0.083 C 
ATOM      6  C26 H52 d          12.314  10.629   4.109  0.00  0.00    -0.027 C 
ATOM      7  C27 H52 d          11.214  10.313   3.105  0.00  0.00     0.007 C 
ATOM      8  H1  H52 d          10.313   7.770   4.958  0.00  0.00     0.075 H 
ATOM      9  H5  H52 d          12.288   7.859   2.658  0.00  0.00     0.078 H 
ATOM     10  H6  H52 d          12.052   6.436   3.730  0.00  0.00     0.078 H 
ATOM     11  H7  H52 d          13.575   7.583   4.969  0.00  0.00     0.277 HD
ATOM     12  H8  H52 d          12.249   8.376   5.537  0.00  0.00     0.277 HD
ATOM     13  H9  H52 d          13.737   9.318   3.155  0.00  0.00     0.075 H 
ATOM     14  H10 H52 d          14.187   9.828   4.818  0.00  0.00     0.075 H 
ATOM     15  H11 H52 d          12.815  11.563   3.810  0.00  0.00     0.037 H 
ATOM     16  H12 H52 d          11.865  10.757   5.105  0.00  0.00     0.037 H 
ATOM     17  H13 H52 d          10.738  11.254   2.793  0.00  0.00     0.065 H 
ATOM     18  H14 H52 d          11.664   9.821   2.229  0.00  0.00     0.065 H 
ENDROOT
BRANCH   1  19
ATOM     19  S5  H52 d           8.785  10.012   4.482  0.00  0.00     0.262 S 
ATOM     20  O1  H52 d           8.918  11.410   4.975  0.00  0.00    -0.200 OA
ATOM     21  O2  H52 d           8.470   8.970   5.468  0.00  0.00    -0.200 OA
BRANCH  19  22
ATOM     22  C5  H52 d           7.443   9.941   3.309  0.00  0.00     0.091 A 
ATOM     23  C10 H52 d           6.004   9.954   3.619  0.00  0.00     0.006 A 
ATOM     24  C4  H52 d           5.312  10.095   4.891  0.00  0.00    -0.032 A 
ATOM     25  C9  H52 d           5.117   9.796   2.513  0.00  0.00    -0.006 A 
ATOM     26  C3  H52 d           3.938  10.046   4.980  0.00  0.00     0.008 A 
ATOM     27  N2  H52 d           3.162   9.859   3.893  0.00  0.00    -0.272 NA
ATOM     28  H22 H52 d           3.468  10.161   5.949  0.00  0.00     0.115 H 
ATOM     29  C1  H52 d           3.702   9.771   2.702  0.00  0.00     0.013 A 
ATOM     30  H21 H52 d           3.056   9.676   1.836  0.00  0.00     0.116 H 
ATOM     31  C8  H52 d           5.616   9.647   1.189  0.00  0.00    -0.071 A 
ATOM     32  C7  H52 d           6.959   9.639   0.941  0.00  0.00    -0.081 A 
ATOM     33  H18 H52 d           4.920   9.540   0.364  0.00  0.00     0.084 H 
ATOM     34  C6  H52 d           7.878   9.758   2.013  0.00  0.00    -0.059 A 
ATOM     35  H19 H52 d           7.323   9.540  -0.075  0.00  0.00     0.083 H 
ATOM     36  H20 H52 d           8.941   9.706   1.811  0.00  0.00     0.085 H 
BRANCH  24  37
ATOM     37  CM  H52 d           5.930  10.326   6.236  0.00  0.00    -0.049 C 
ATOM     38  H15 H52 d           5.138  10.383   6.998  0.00  0.00     0.033 H 
ATOM     39  H16 H52 d           6.495  11.269   6.224  0.00  0.00     0.033 H 
ATOM     40  H17 H52 d           6.609   9.494   6.475  0.00  0.00     0.033 H 
ENDBRANCH  24  37
ENDBRANCH  19  22
ENDBRANCH   1  19
BRANCH   2  41
ATOM     41  C2M H52 d           9.580   6.999   3.138  0.00  0.00    -0.055 C 
ATOM     42  H2  H52 d           9.604   7.237   2.065  0.00  0.00     0.030 H 
ATOM     43  H3  H52 d           8.554   7.112   3.516  0.00  0.00     0.030 H 
ATOM     44  H4  H52 d           9.915   5.963   3.291  0.00  0.00     0.030 H 
ENDBRANCH   2  41
TORSDOF 4
ENDMDL
MODEL 2
REMARK VINA RESULT:      -7.9      2.396      3.150
REMARK  4 active torsions:
REMARK  status: ('A' for Active; 'I' for Inactive)
REMARK    1  A    between atoms: S5_2  and  N21_4 
REMARK    2  A    between atoms: S5_2  and  C5_12 
REMARK    3  A    between atoms: C22_5  and  C2M_6 
REMARK    4  A    between atoms: C4_14  and  CM_15 
ROOT
ATOM      1  N21 H52 d          11.098   9.109   2.093  0.00  0.00    -0.301 N 
ATOM      2  C22 H52 d          11.747   9.728   0.863  0.00  0.00     0.042 C 
ATOM      3  C23 H52 d          13.216  10.146   1.003  0.00  0.00     0.100 C 
ATOM      4  N24 H52 d          14.045   8.891   1.188  0.00  0.00    -0.073 N 
ATOM      5  C25 H52 d          14.235   8.640   2.675  0.00  0.00     0.083 C 
ATOM      6  C26 H52 d          12.982   8.081   3.373  0.00  0.00    -0.027 C 
ATOM      7  C27 H52 d          11.848   9.098   3.376  0.00  0.00     0.007 C 
ATOM      8  H1  H52 d          11.740   8.926   0.110  0.00  0.00     0.075 H 
ATOM      9  H5  H52 d          13.336  10.804   1.876  0.00  0.00     0.078 H 
ATOM     10  H6  H52 d          13.540  10.678   0.096  0.00  0.00     0.078 H 
ATOM     11  H7  H52 d          14.944   9.012   0.748  0.00  0.00     0.277 HD
ATOM     12  H8  H52 d          13.570   8.107   0.771  0.00  0.00     0.277 HD
ATOM     13  H9  H52 d          14.506   9.592   3.156  0.00  0.00     0.075 H 
ATOM     14  H10 H52 d          15.055   7.919   2.804  0.00  0.00     0.075 H 
ATOM     15  H11 H52 d          13.236   7.824   4.413  0.00  0.00     0.037 H 
ATOM     16  H12 H52 d          12.650   7.177   2.842  0.00  0.00     0.037 H 
ATOM     17  H13 H52 d          11.152   8.849   4.191  0.00  0.00     0.065 H 
ATOM     18  H14 H52 d          12.271  10.099   3.548  0.00  0.00     0.065 H 
ENDROOT
BRANCH   1  19
ATOM     19  S5  H52 d           9.736   8.109   1.813  0.00  0.00     0.262 S 
ATOM     20  O1  H52 d           9.634   6.944   2.733  0.00  0.00    -0.200 OA
ATOM     21  O2  H52 d           9.782   7.836   0.371  0.00  0.00    -0.200 OA
BRANCH  19  22
ATOM     22  C5  H52 d           8.295   9.139   2.029  0.00  0.00     0.091 A 
ATOM     23  C10 H52 d           7.629   9.461   3.302  0.00  0.00     0.006 A 
ATOM     24  C4  H52 d           7.983   9.112   4.669  0.00  0.00    -0.032 A 
ATOM     25  C9  H52 d           6.434  10.236   3.213  0.00  0.00    -0.006 A 
ATOM     26  C3  H52 d           7.200   9.485   5.740  0.00  0.00     0.008 A 
ATOM     27  N2  H52 d           6.061  10.189   5.577  0.00  0.00    -0.272 NA
ATOM     28  H22 H52 d           7.507   9.204   6.741  0.00  0.00     0.115 H 
ATOM     29  C1  H52 d           5.695  10.586   4.383  0.00  0.00     0.013 A 
ATOM     30  H21 H52 d           4.806  11.198   4.281  0.00  0.00     0.116 H 
ATOM     31  C8  H52 d           5.936  10.672   1.954  0.00  0.00    -0.071 A 
ATOM     32  C7  H52 d           6.582  10.351   0.793  0.00  0.00    -0.081 A 
ATOM     33  H18 H52 d           5.032  11.269   1.914  0.00  0.00     0.084 H 
ATOM     34  C6  H52 d           7.753   9.556   0.831  0.00  0.00    -0.059 A 
ATOM     35  H19 H52 d           6.198  10.705  -0.157  0.00  0.00     0.083 H 
ATOM     36  H20 H52 d           8.233   9.270  -0.098  0.00  0.00     0.085 H 
BRANCH  24  37
ATOM     37  CM  H52 d           9.192   8.353   5.125  0.00  0.00    -0.049 C 
ATOM     38  H15 H52 d           9.741   8.951   5.867  0.00  0.00     0.033 H 
ATOM     39  H16 H52 d           9.844   8.149   4.264  0.00  0.00     0.033 H 
ATOM     40  H17 H52 d           8.878   7.402   5.580  0.00  0.00     0.033 H 
ENDBRANCH  24  37
ENDBRANCH  19  22
ENDBRANCH   1  19
BRANCH   2  41
ATOM     41  C2M H52 d          10.950  10.873   0.263  0.00  0.00    -0.055 C 
ATOM     42  H2  H52 d           9.878  10.626   0.287  0.00  0.00     0.030 H 
ATOM     43  H3  H52 d          11.266  11.034  -0.778  0.00  0.00     0.030 H 
ATOM     44  H4  H52 d          11.127  11.789   0.846  0.00  0.00     0.030 H 
ENDBRANCH   2  41
TORSDOF 4
ENDMDL
MODEL 3
REMARK VINA RESULT:      -7.7      0.967      2.160
REMARK  4 active torsions:
REMARK  status: ('A' for Active; 'I' for Inactive)
REMARK    1  A    between atoms: S5_2  and  N21_4 
REMARK    2  A    between atoms: S5_2  and  C5_12 
REMARK    3  A    between atoms: C22_5  and  C2M_6 
REMARK    4  A    between atoms: C4_14  and  CM_15 
ROOT
ATOM      1  N21 H52 d          10.333   9.446   3.797  0.00  0.00    -0.301 N 
ATOM      2  C22 H52 d          10.995  10.348   2.765  0.00  0.00     0.042 C 
ATOM      3  C23 H52 d          11.875   9.656   1.716  0.00  0.00     0.100 C 
ATOM      4  N24 H52 d          10.979   8.800   0.843  0.00  0.00    -0.073 N 
ATOM      5  C25 H52 d          10.959   7.385   1.396  0.00  0.00     0.083 C 
ATOM      6  C26 H52 d          10.104   7.228   2.666  0.00  0.00    -0.027 C 
ATOM      7  C27 H52 d          10.697   8.005   3.835  0.00  0.00     0.007 C 
ATOM      8  H1  H52 d          10.159  10.790   2.202  0.00  0.00     0.075 H 
ATOM      9  H5  H52 d          12.624   9.024   2.215  0.00  0.00     0.078 H 
ATOM     10  H6  H52 d          12.385  10.412   1.100  0.00  0.00     0.078 H 
ATOM     11  H7  H52 d          11.335   8.791  -0.099  0.00  0.00     0.277 HD
ATOM     12  H8  H52 d          10.045   9.177   0.846  0.00  0.00     0.277 HD
ATOM     13  H9  H52 d          11.992   7.090   1.634  0.00  0.00     0.075 H 
ATOM     14  H10 H52 d          10.557   6.715   0.622  0.00  0.00     0.075 H 
ATOM     15  H11 H52 d          10.052   6.162   2.934  0.00  0.00     0.037 H 
ATOM     16  H12 H52 d           9.090   7.605   2.464  0.00  0.00     0.037 H 
ATOM     17  H13 H52 d          10.325   7.570   4.774  0.00  0.00     0.065 H 
ATOM     18  H14 H52 d          11.793   7.916   3.799  0.00  0.00     0.065 H 
ENDROOT
BRANCH   1  19
ATOM     19  S5  H52 d           8.925  10.061   4.554  0.00  0.00     0.262 S 
ATOM     20  O1  H52 d           9.049  11.467   5.024  0.00  0.00    -0.200 OA
ATOM     21  O2  H52 d           8.577   9.038   5.549  0.00  0.00    -0.200 OA
BRANCH  19  22
ATOM     22  C5  H52 d           7.617   9.972   3.344  0.00  0.00     0.091 A 
ATOM     23  C10 H52 d           6.170   9.972   3.614  0.00  0.00     0.006 A 
ATOM     24  C4  H52 d           5.441  10.113   4.865  0.00  0.00    -0.032 A 
ATOM     25  C9  H52 d           5.315   9.801   2.484  0.00  0.00    -0.006 A 
ATOM     26  C3  H52 d           4.065  10.051   4.916  0.00  0.00     0.008 A 
ATOM     27  N2  H52 d           3.322   9.852   3.809  0.00  0.00    -0.272 NA
ATOM     28  H22 H52 d           3.567  10.165   5.872  0.00  0.00     0.115 H 
ATOM     29  C1  H52 d           3.896   9.763   2.634  0.00  0.00     0.013 A 
ATOM     30  H21 H52 d           3.275   9.658   1.751  0.00  0.00     0.116 H 
ATOM     31  C8  H52 d           5.852   9.652   1.175  0.00  0.00    -0.071 A 
ATOM     32  C7  H52 d           7.202   9.655   0.965  0.00  0.00    -0.081 A 
ATOM     33  H18 H52 d           5.180   9.534   0.332  0.00  0.00     0.084 H 
ATOM     34  C6  H52 d           8.089   9.788   2.061  0.00  0.00    -0.059 A 
ATOM     35  H19 H52 d           7.594   9.555  -0.040  0.00  0.00     0.083 H 
ATOM     36  H20 H52 d           9.158   9.745   1.889  0.00  0.00     0.085 H 
BRANCH  24  37
ATOM     37  CM  H52 d           6.019  10.354   6.226  0.00  0.00    -0.049 C 
ATOM     38  H15 H52 d           6.855   9.660   6.399  0.00  0.00     0.033 H 
ATOM     39  H16 H52 d           5.243  10.190   6.989  0.00  0.00     0.033 H 
ATOM     40  H17 H52 d           6.383  11.391   6.292  0.00  0.00     0.033 H 
ENDBRANCH  24  37
ENDBRANCH  19  22
ENDBRANCH   1  19
BRANCH   2  41
ATOM     41  C2M H52 d          11.755  11.514   3.373  0.00  0.00    -0.055 C 
ATOM     42  H2  H52 d          11.472  12.444   2.858  0.00  0.00     0.030 H 
ATOM     43  H3  H52 d          12.835  11.347   3.260  0.00  0.00     0.030 H 
ATOM     44  H4  H52 d          11.506  11.597   4.441  0.00  0.00     0.030 H 
ENDBRANCH   2  41
TORSDOF 4
ENDMDL
MODEL 4
REMARK VINA RESULT:      -7.4      2.381      3.829
REMARK  4 active torsions:
REMARK  status: ('A' for Active; 'I' for Inactive)
REMARK    1  A    between atoms: S5_2  and  N21_4 
REMARK    2  A    between atoms: S5_2  and  C5_12 
REMARK    3  A    between atoms: C22_5  and  C2M_6 
REMARK    4  A    between atoms: C4_14  and  CM_15 
ROOT
ATOM      1  N21 H52 d          11.857   9.191   2.603  0.00  0.00    -0.301 N 
ATOM      2  C22 H52 d          12.586  10.330   1.906  0.00  0.00     0.042 C 
ATOM      3  C23 H52 d          14.110  10.197   1.789  0.00  0.00     0.100 C 
ATOM      4  N24 H52 d          14.409   9.032   0.866  0.00  0.00    -0.073 N 
ATOM      5  C25 H52 d          14.614   7.780   1.702  0.00  0.00     0.083 C 
ATOM      6  C26 H52 d          13.307   7.185   2.256  0.00  0.00    -0.027 C 
ATOM      7  C27 H52 d          12.653   8.122   3.263  0.00  0.00     0.007 C 
ATOM      8  H1  H52 d          12.209  10.313   0.872  0.00  0.00     0.075 H 
ATOM      9  H5  H52 d          14.546  10.008   2.781  0.00  0.00     0.078 H 
ATOM     10  H6  H52 d          14.534  11.123   1.372  0.00  0.00     0.078 H 
ATOM     11  H7  H52 d          15.244   9.227   0.337  0.00  0.00     0.277 HD
ATOM     12  H8  H52 d          13.636   8.894   0.234  0.00  0.00     0.277 HD
ATOM     13  H9  H52 d          15.268   8.033   2.550  0.00  0.00     0.075 H 
ATOM     14  H10 H52 d          15.104   7.020   1.076  0.00  0.00     0.075 H 
ATOM     15  H11 H52 d          13.531   6.228   2.751  0.00  0.00     0.037 H 
ATOM     16  H12 H52 d          12.611   7.013   1.422  0.00  0.00     0.037 H 
ATOM     17  H13 H52 d          11.986   7.535   3.912  0.00  0.00     0.065 H 
ATOM     18  H14 H52 d          13.439   8.591   3.873  0.00  0.00     0.065 H 
ENDROOT
BRANCH   1  19
ATOM     19  S5  H52 d          10.197   9.003   2.222  0.00  0.00     0.262 S 
ATOM     20  O1  H52 d           9.822   7.630   1.789  0.00  0.00    -0.200 OA
ATOM     21  O2  H52 d           9.913  10.109   1.300  0.00  0.00    -0.200 OA
BRANCH  19  22
ATOM     22  C5  H52 d           9.287   9.407   3.702  0.00  0.00     0.091 A 
ATOM     23  C10 H52 d           7.853   9.731   3.790  0.00  0.00     0.006 A 
ATOM     24  C4  H52 d           6.821   9.737   2.766  0.00  0.00    -0.032 A 
ATOM     25  C9  H52 d           7.368  10.111   5.077  0.00  0.00    -0.006 A 
ATOM     26  C3  H52 d           5.523  10.108   3.044  0.00  0.00     0.008 A 
ATOM     27  N2  H52 d           5.143  10.491   4.280  0.00  0.00    -0.272 NA
ATOM     28  H22 H52 d           4.788  10.093   2.248  0.00  0.00     0.115 H 
ATOM     29  C1  H52 d           6.000  10.467   5.272  0.00  0.00     0.013 A 
ATOM     30  H21 H52 d           5.659  10.726   6.268  0.00  0.00     0.116 H 
ATOM     31  C8  H52 d           8.237  10.158   6.203  0.00  0.00    -0.071 A 
ATOM     32  C7  H52 d           9.563   9.853   6.081  0.00  0.00    -0.081 A 
ATOM     33  H18 H52 d           7.841  10.440   7.172  0.00  0.00     0.084 H 
ATOM     34  C6  H52 d          10.095   9.502   4.816  0.00  0.00    -0.059 A 
ATOM     35  H19 H52 d          10.208   9.879   6.952  0.00  0.00     0.083 H 
ATOM     36  H20 H52 d          11.157   9.305   4.721  0.00  0.00     0.085 H 
BRANCH  24  37
ATOM     37  CM  H52 d           6.971   9.346   1.327  0.00  0.00    -0.049 C 
ATOM     38  H15 H52 d           7.673   8.503   1.248  0.00  0.00     0.033 H 
ATOM     39  H16 H52 d           7.359  10.201   0.753  0.00  0.00     0.033 H 
ATOM     40  H17 H52 d           5.992   9.048   0.924  0.00  0.00     0.033 H 
ENDBRANCH  24  37
ENDBRANCH  19  22
ENDBRANCH   1  19
BRANCH   2  41
ATOM     41  C2M H52 d          12.239  11.703   2.455  0.00  0.00    -0.055 C 
ATOM     42  H2  H52 d          11.664  12.264   1.704  0.00  0.00     0.030 H 
ATOM     43  H3  H52 d          13.164  12.249   2.690  0.00  0.00     0.030 H 
ATOM     44  H4  H52 d          11.637  11.591   3.368  0.00  0.00     0.030 H 
ENDBRANCH   2  41
TORSDOF 4
ENDMDL
MODEL 5
REMARK VINA RESULT:      -7.3      2.176      2.746
REMARK  4 active torsions:
REMARK  status: ('A' for Active; 'I' for Inactive)
REMARK    1  A    between atoms: S5_2  and  N21_4 
REMARK    2  A    between atoms: S5_2  and  C5_12 
REMARK    3  A    between atoms: C22_5  and  C2M_6 
REMARK    4  A    between atoms: C4_14  and  CM_15 
ROOT
ATOM      1  N21 H52 d          11.375   8.558   2.668  0.00  0.00    -0.301 N 
ATOM      2  C22 H52 d          12.333   7.791   3.569  0.00  0.00     0.042 C 
ATOM      3  C23 H52 d          13.220   8.631   4.497  0.00  0.00     0.100 C 
ATOM      4  N24 H52 d          12.323   9.312   5.512  0.00  0.00    -0.073 N 
ATOM      5  C25 H52 d          11.968  10.700   5.006  0.00  0.00     0.083 C 
ATOM      6  C26 H52 d          10.921  10.698   3.877  0.00  0.00    -0.027 C 
ATOM      7  C27 H52 d          11.465  10.041   2.615  0.00  0.00     0.007 C 
ATOM      8  H1  H52 d          11.682   7.205   4.235  0.00  0.00     0.075 H 
ATOM      9  H5  H52 d          13.761   9.389   3.911  0.00  0.00     0.078 H 
ATOM     10  H6  H52 d          13.942   7.981   5.012  0.00  0.00     0.078 H 
ATOM     11  H7  H52 d          12.807   9.386   6.393  0.00  0.00     0.277 HD
ATOM     12  H8  H52 d          11.482   8.771   5.636  0.00  0.00     0.277 HD
ATOM     13  H9  H52 d          12.885  11.176   4.628  0.00  0.00     0.075 H 
ATOM     14  H10 H52 d          11.571  11.286   5.847  0.00  0.00     0.075 H 
ATOM     15  H11 H52 d          10.640  11.737   3.648  0.00  0.00     0.037 H 
ATOM     16  H12 H52 d          10.033  10.143   4.215  0.00  0.00     0.037 H 
ATOM     17  H13 H52 d          10.886  10.400   1.752  0.00  0.00     0.065 H 
ATOM     18  H14 H52 d          12.521  10.327   2.494  0.00  0.00     0.065 H 
ENDROOT
BRANCH   1  19
ATOM     19  S5  H52 d          10.004   7.697   2.108  0.00  0.00     0.262 S 
ATOM     20  O1  H52 d           9.610   6.548   2.968  0.00  0.00    -0.200 OA
ATOM     21  O2  H52 d          10.306   7.420   0.698  0.00  0.00    -0.200 OA
BRANCH  19  22
ATOM     22  C5  H52 d           8.656   8.865   2.058  0.00  0.00     0.091 A 
ATOM     23  C10 H52 d           7.820   9.290   3.193  0.00  0.00     0.006 A 
ATOM     24  C4  H52 d           7.902   8.954   4.605  0.00  0.00    -0.032 A 
ATOM     25  C9  H52 d           6.739  10.170   2.887  0.00  0.00    -0.006 A 
ATOM     26  C3  H52 d           6.990   9.434   5.520  0.00  0.00     0.008 A 
ATOM     27  N2  H52 d           5.971  10.237   5.153  0.00  0.00    -0.272 NA
ATOM     28  H22 H52 d           7.095   9.159   6.564  0.00  0.00     0.115 H 
ATOM     29  C1  H52 d           5.852  10.627   3.908  0.00  0.00     0.013 A 
ATOM     30  H21 H52 d           5.057  11.317   3.645  0.00  0.00     0.116 H 
ATOM     31  C8  H52 d           6.506  10.611   1.555  0.00  0.00    -0.071 A 
ATOM     32  C7  H52 d           7.304  10.192   0.527  0.00  0.00    -0.081 A 
ATOM     33  H18 H52 d           5.685  11.288   1.351  0.00  0.00     0.084 H 
ATOM     34  C6  H52 d           8.368   9.291   0.778  0.00  0.00    -0.059 A 
ATOM     35  H19 H52 d           7.122  10.549  -0.480  0.00  0.00     0.083 H 
ATOM     36  H20 H52 d           8.967   8.931  -0.050  0.00  0.00     0.085 H 
BRANCH  24  37
ATOM     37  CM  H52 d           8.936   8.100   5.274  0.00  0.00    -0.049 C 
ATOM     38  H15 H52 d           8.462   7.506   6.070  0.00  0.00     0.033 H 
ATOM     39  H16 H52 d           9.715   8.742   5.711  0.00  0.00     0.033 H 
ATOM     40  H17 H52 d           9.389   7.425   4.533  0.00  0.00     0.033 H 
ENDBRANCH  24  37
ENDBRANCH  19  22
ENDBRANCH   1  19
BRANCH   2  41
ATOM     41  C2M H52 d          13.191   6.781   2.827  0.00  0.00    -0.055 C 
ATOM     42  H2  H52 d          13.435   7.170   1.828  0.00  0.00     0.030 H 
ATOM     43  H3  H52 d          12.640   5.835   2.727  0.00  0.00     0.030 H 
ATOM     44  H4  H52 d          14.121   6.607   3.388  0.00  0.00     0.030 H 
ENDBRANCH   2  41
TORSDOF 4
ENDMDL
MODEL 6
REMARK VINA RESULT:      -7.3      1.614      3.478
REMARK  4 active torsions:
REMARK  status: ('A' for Active; 'I' for Inactive)
REMARK    1  A    between atoms: S5_2  and  N21_4 
REMARK    2  A    between atoms: S5_2  and  C5_12 
REMARK    3  A    between atoms: C22_5  and  C2M_6 
REMARK    4  A    between atoms: C4_14  and  CM_15 
ROOT
ATOM      1  N21 H52 d          10.749   8.668   4.393  0.00  0.00    -0.301 N 
ATOM      2  C22 H52 d          12.112   8.624   3.716  0.00  0.00     0.042 C 
ATOM      3  C23 H52 d          12.421   7.376   2.881  0.00  0.00     0.100 C 
ATOM      4  N24 H52 d          11.487   7.367   1.688  0.00  0.00    -0.073 N 
ATOM      5  C25 H52 d          10.262   6.532   2.026  0.00  0.00     0.083 C 
ATOM      6  C26 H52 d           9.273   7.239   2.970  0.00  0.00    -0.027 C 
ATOM      7  C27 H52 d           9.882   7.461   4.348  0.00  0.00     0.007 C 
ATOM      8  H1  H52 d          12.096   9.460   3.001  0.00  0.00     0.075 H 
ATOM      9  H5  H52 d          12.260   6.471   3.488  0.00  0.00     0.078 H 
ATOM     10  H6  H52 d          13.466   7.405   2.538  0.00  0.00     0.078 H 
ATOM     11  H7  H52 d          11.959   6.967   0.892  0.00  0.00     0.277 HD
ATOM     12  H8  H52 d          11.204   8.310   1.473  0.00  0.00     0.277 HD
ATOM     13  H9  H52 d          10.599   5.602   2.508  0.00  0.00     0.075 H 
ATOM     14  H10 H52 d           9.738   6.290   1.090  0.00  0.00     0.075 H 
ATOM     15  H11 H52 d           8.371   6.617   3.073  0.00  0.00     0.037 H 
ATOM     16  H12 H52 d           9.000   8.213   2.538  0.00  0.00     0.037 H 
ATOM     17  H13 H52 d           9.070   7.582   5.079  0.00  0.00     0.065 H 
ATOM     18  H14 H52 d          10.487   6.581   4.614  0.00  0.00     0.065 H 
ENDROOT
BRANCH   1  19
ATOM     19  S5  H52 d          10.146  10.221   4.791  0.00  0.00     0.262 S 
ATOM     20  O1  H52 d          10.712  11.325   3.969  0.00  0.00    -0.200 OA
ATOM     21  O2  H52 d          10.307  10.306   6.248  0.00  0.00    -0.200 OA
BRANCH  19  22
ATOM     22  C5  H52 d           8.381  10.163   4.536  0.00  0.00     0.091 A 
ATOM     23  C10 H52 d           7.679  10.232   3.244  0.00  0.00     0.006 A 
ATOM     24  C4  H52 d           8.198  10.288   1.887  0.00  0.00    -0.032 A 
ATOM     25  C9  H52 d           6.253  10.257   3.301  0.00  0.00    -0.006 A 
ATOM     26  C3  H52 d           7.364  10.385   0.794  0.00  0.00     0.008 A 
ATOM     27  N2  H52 d           6.023  10.439   0.925  0.00  0.00    -0.272 NA
ATOM     28  H22 H52 d           7.799  10.419  -0.199  0.00  0.00     0.115 H 
ATOM     29  C1  H52 d           5.470  10.345   2.110  0.00  0.00     0.013 A 
ATOM     30  H21 H52 d           4.389  10.335   2.187  0.00  0.00     0.116 H 
ATOM     31  C8  H52 d           5.567  10.205   4.546  0.00  0.00    -0.071 A 
ATOM     32  C7  H52 d           6.256  10.144   5.725  0.00  0.00    -0.081 A 
ATOM     33  H18 H52 d           4.483  10.215   4.561  0.00  0.00     0.084 H 
ATOM     34  C6  H52 d           7.672  10.151   5.719  0.00  0.00    -0.059 A 
ATOM     35  H19 H52 d           5.718  10.090   6.665  0.00  0.00     0.083 H 
ATOM     36  H20 H52 d           8.209  10.147   6.661  0.00  0.00     0.085 H 
BRANCH  24  37
ATOM     37  CM  H52 d           9.634  10.232   1.464  0.00  0.00    -0.049 C 
ATOM     38  H15 H52 d           9.808   9.318   0.877  0.00  0.00     0.033 H 
ATOM     39  H16 H52 d          10.279  10.223   2.355  0.00  0.00     0.033 H 
ATOM     40  H17 H52 d           9.870  11.113   0.850  0.00  0.00     0.033 H 
ENDBRANCH  24  37
ENDBRANCH  19  22
ENDBRANCH   1  19
BRANCH   2  41
ATOM     41  C2M H52 d          13.270   8.902   4.659  0.00  0.00    -0.055 C 
ATOM     42  H2  H52 d          13.476   8.005   5.261  0.00  0.00     0.030 H 
ATOM     43  H3  H52 d          13.008   9.737   5.325  0.00  0.00     0.030 H 
ATOM     44  H4  H52 d          14.164   9.164   4.075  0.00  0.00     0.030 H 
ENDBRANCH   2  41
TORSDOF 4
ENDMDL
MODEL 7
REMARK VINA RESULT:      -7.3      2.790      6.852
REMARK  4 active torsions:
REMARK  status: ('A' for Active; 'I' for Inactive)
REMARK    1  A    between atoms: S5_2  and  N21_4 
REMARK    2  A    between atoms: S5_2  and  C5_12 
REMARK    3  A    between atoms: C22_5  and  C2M_6 
REMARK    4  A    between atoms: C4_14  and  CM_15 
ROOT
ATOM      1  N21 H52 d           8.895   9.613   2.572  0.00  0.00    -0.301 N 
ATOM      2  C22 H52 d           9.138   9.847   4.056  0.00  0.00     0.042 C 
ATOM      3  C23 H52 d           8.081  10.672   4.800  0.00  0.00     0.100 C 
ATOM      4  N24 H52 d           6.793   9.873   4.823  0.00  0.00    -0.073 N 
ATOM      5  C25 H52 d           5.931  10.294   3.645  0.00  0.00     0.083 C 
ATOM      6  C26 H52 d           6.414   9.736   2.294  0.00  0.00    -0.027 C 
ATOM      7  C27 H52 d           7.768  10.317   1.905  0.00  0.00     0.007 C 
ATOM      8  H1  H52 d           9.099   8.844   4.507  0.00  0.00     0.075 H 
ATOM      9  H5  H52 d           7.919  11.628   4.279  0.00  0.00     0.078 H 
ATOM     10  H6  H52 d           8.418  10.869   5.829  0.00  0.00     0.078 H 
ATOM     11  H7  H52 d           6.301  10.052   5.684  0.00  0.00     0.277 HD
ATOM     12  H8  H52 d           7.004   8.890   4.754  0.00  0.00     0.277 HD
ATOM     13  H9  H52 d           5.933  11.393   3.588  0.00  0.00     0.075 H 
ATOM     14  H10 H52 d           4.905   9.939   3.820  0.00  0.00     0.075 H 
ATOM     15  H11 H52 d           5.679   9.993   1.516  0.00  0.00     0.037 H 
ATOM     16  H12 H52 d           6.502   8.643   2.369  0.00  0.00     0.037 H 
ATOM     17  H13 H52 d           7.891  10.230   0.816  0.00  0.00     0.065 H 
ATOM     18  H14 H52 d           7.794  11.379   2.194  0.00  0.00     0.065 H 
ENDROOT
BRANCH   1  19
ATOM     19  S5  H52 d           9.670   8.251   1.878  0.00  0.00     0.262 S 
ATOM     20  O1  H52 d           9.417   8.080   0.422  0.00  0.00    -0.200 OA
ATOM     21  O2  H52 d           9.306   7.141   2.768  0.00  0.00    -0.200 OA
BRANCH  19  22
ATOM     22  C5  H52 d          11.421   8.477   2.135  0.00  0.00     0.091 A 
ATOM     23  C10 H52 d          12.292   9.440   1.441  0.00  0.00     0.006 A 
ATOM     24  C4  H52 d          11.975  10.470   0.465  0.00  0.00    -0.032 A 
ATOM     25  C9  H52 d          13.684   9.372   1.752  0.00  0.00    -0.006 A 
ATOM     26  C3  H52 d          12.952  11.259  -0.102  0.00  0.00     0.008 A 
ATOM     27  N2  H52 d          14.254  11.115   0.215  0.00  0.00    -0.272 NA
ATOM     28  H22 H52 d          12.665  12.017  -0.823  0.00  0.00     0.115 H 
ATOM     29  C1  H52 d          14.622  10.244   1.122  0.00  0.00     0.013 A 
ATOM     30  H21 H52 d          15.668  10.183   1.401  0.00  0.00     0.116 H 
ATOM     31  C8  H52 d          14.179   8.426   2.692  0.00  0.00    -0.071 A 
ATOM     32  C7  H52 d          13.338   7.546   3.314  0.00  0.00    -0.081 A 
ATOM     33  H18 H52 d          15.239   8.402   2.919  0.00  0.00     0.084 H 
ATOM     34  C6  H52 d          11.955   7.555   3.010  0.00  0.00    -0.059 A 
ATOM     35  H19 H52 d          13.730   6.842   4.038  0.00  0.00     0.083 H 
ATOM     36  H20 H52 d          11.303   6.824   3.476  0.00  0.00     0.085 H 
BRANCH  24  37
ATOM     37  CM  H52 d          10.617  10.843  -0.048  0.00  0.00    -0.049 C 
ATOM     38  H15 H52 d          10.444  11.916   0.123  0.00  0.00     0.033 H 
ATOM     39  H16 H52 d           9.851  10.259   0.482  0.00  0.00     0.033 H 
ATOM     40  H17 H52 d          10.560  10.630  -1.126  0.00  0.00     0.033 H 
ENDBRANCH  24  37
ENDBRANCH  19  22
ENDBRANCH   1  19
BRANCH   2  41
ATOM     41  C2M H52 d          10.520  10.394   4.369  0.00  0.00    -0.055 C 
ATOM     42  H2  H52 d          10.732  11.252   3.714  0.00  0.00     0.030 H 
ATOM     43  H3  H52 d          11.272   9.609   4.198  0.00  0.00     0.030 H 
ATOM     44  H4  H52 d          10.558  10.716   5.419  0.00  0.00     0.030 H 
ENDBRANCH   2  41
TORSDOF 4
ENDMDL
MODEL 8
REMARK VINA RESULT:      -7.3      1.610      2.779
REMARK  4 active torsions:
REMARK  status: ('A' for Active; 'I' for Inactive)
REMARK    1  A    between atoms: S5_2  and  N21_4 
REMARK    2  A    between atoms: S5_2  and  C5_12 
REMARK    3  A    between atoms: C22_5  and  C2M_6 
REMARK    4  A    between atoms: C4_14  and  CM_15 
ROOT
ATOM      1  N21 H52 d          10.120   9.387   2.312  0.00  0.00    -0.301 N 
ATOM      2  C22 H52 d          10.404   8.118   3.102  0.00  0.00     0.042 C 
ATOM      3  C23 H52 d          11.718   8.086   3.893  0.00  0.00     0.100 C 
ATOM      4  N24 H52 d          11.626   9.120   4.998  0.00  0.00    -0.073 N 
ATOM      5  C25 H52 d          12.243  10.420   4.509  0.00  0.00     0.083 C 
ATOM      6  C26 H52 d          11.353  11.194   3.521  0.00  0.00    -0.027 C 
ATOM      7  C27 H52 d          11.176  10.429   2.215  0.00  0.00     0.007 C 
ATOM      8  H1  H52 d           9.605   8.074   3.857  0.00  0.00     0.075 H 
ATOM      9  H5  H52 d          12.561   8.324   3.228  0.00  0.00     0.078 H 
ATOM     10  H6  H52 d          11.866   7.086   4.328  0.00  0.00     0.078 H 
ATOM     11  H7  H52 d          12.125   8.792   5.810  0.00  0.00     0.277 HD
ATOM     12  H8  H52 d          10.659   9.273   5.237  0.00  0.00     0.277 HD
ATOM     13  H9  H52 d          13.195  10.185   4.009  0.00  0.00     0.075 H 
ATOM     14  H10 H52 d          12.436  11.062   5.381  0.00  0.00     0.075 H 
ATOM     15  H11 H52 d          11.820  12.167   3.305  0.00  0.00     0.037 H 
ATOM     16  H12 H52 d          10.365  11.354   3.978  0.00  0.00     0.037 H 
ATOM     17  H13 H52 d          10.900  11.141   1.423  0.00  0.00     0.065 H 
ATOM     18  H14 H52 d          12.129   9.944   1.957  0.00  0.00     0.065 H 
ENDROOT
BRANCH   1  19
ATOM     19  S5  H52 d           8.476   9.704   1.945  0.00  0.00     0.262 S 
ATOM     20  O1  H52 d           7.806   8.628   1.167  0.00  0.00    -0.200 OA
ATOM     21  O2  H52 d           8.491  11.054   1.368  0.00  0.00    -0.200 OA
BRANCH  19  22
ATOM     22  C5  H52 d           7.635   9.892   3.507  0.00  0.00     0.091 A 
ATOM     23  C10 H52 d           6.178   9.909   3.723  0.00  0.00     0.006 A 
ATOM     24  C4  H52 d           5.082   9.711   2.788  0.00  0.00    -0.032 A 
ATOM     25  C9  H52 d           5.739  10.165   5.057  0.00  0.00    -0.006 A 
ATOM     26  C3  H52 d           3.764   9.800   3.184  0.00  0.00     0.008 A 
ATOM     27  N2  H52 d           3.423  10.080   4.458  0.00  0.00    -0.272 NA
ATOM     28  H22 H52 d           2.982   9.641   2.451  0.00  0.00     0.115 H 
ATOM     29  C1  H52 d           4.349  10.225   5.375  0.00  0.00     0.013 A 
ATOM     30  H21 H52 d           4.050  10.395   6.403  0.00  0.00     0.116 H 
ATOM     31  C8  H52 d           6.674  10.379   6.108  0.00  0.00    -0.071 A 
ATOM     32  C7  H52 d           8.019  10.358   5.867  0.00  0.00    -0.081 A 
ATOM     33  H18 H52 d           6.314  10.561   7.114  0.00  0.00     0.084 H 
ATOM     34  C6  H52 d           8.499  10.141   4.552  0.00  0.00    -0.059 A 
ATOM     35  H19 H52 d           8.717  10.508   6.682  0.00  0.00     0.083 H 
ATOM     36  H20 H52 d           9.566  10.171   4.364  0.00  0.00     0.085 H 
BRANCH  24  37
ATOM     37  CM  H52 d           5.183   9.377   1.331  0.00  0.00    -0.049 C 
ATOM     38  H15 H52 d           4.595   8.471   1.121  0.00  0.00     0.033 H 
ATOM     39  H16 H52 d           6.236   9.199   1.068  0.00  0.00     0.033 H 
ATOM     40  H17 H52 d           4.793  10.215   0.735  0.00  0.00     0.033 H 
ENDBRANCH  24  37
ENDBRANCH  19  22
ENDBRANCH   1  19
BRANCH   2  41
ATOM     41  C2M H52 d          10.276   6.847   2.281  0.00  0.00    -0.055 C 
ATOM     42  H2  H52 d          10.945   6.903   1.410  0.00  0.00     0.030 H 
ATOM     43  H3  H52 d           9.237   6.735   1.938  0.00  0.00     0.030 H 
ATOM     44  H4  H52 d          10.553   5.981   2.900  0.00  0.00     0.030 H 
ENDBRANCH   2  41
TORSDOF 4
ENDMDL
MODEL 9
REMARK VINA RESULT:      -6.9      2.078      6.391
REMARK  4 active torsions:
REMARK  status: ('A' for Active; 'I' for Inactive)
REMARK    1  A    between atoms: S5_2  and  N21_4 
REMARK    2  A    between atoms: S5_2  and  C5_12 
REMARK    3  A    between atoms: C22_5  and  C2M_6 
REMARK    4  A    between atoms: C4_14  and  CM_15 
ROOT
ATOM      1  N21 H52 d           7.011   9.829   3.733  0.00  0.00    -0.301 N 
ATOM      2  C22 H52 d           6.349  10.024   5.090  0.00  0.00     0.042 C 
ATOM      3  C23 H52 d           4.928  10.601   5.080  0.00  0.00     0.100 C 
ATOM      4  N24 H52 d           4.011   9.579   4.436  0.00  0.00    -0.073 N 
ATOM      5  C25 H52 d           3.882   9.898   2.955  0.00  0.00     0.083 C 
ATOM      6  C26 H52 d           5.122   9.511   2.128  0.00  0.00    -0.027 C 
ATOM      7  C27 H52 d           6.332  10.350   2.517  0.00  0.00     0.007 C 
ATOM      8  H1  H52 d           6.251   9.008   5.501  0.00  0.00     0.075 H 
ATOM      9  H5  H52 d           4.908  11.537   4.502  0.00  0.00     0.078 H 
ATOM     10  H6  H52 d           4.599  10.800   6.111  0.00  0.00     0.078 H 
ATOM     11  H7  H52 d           3.103   9.619   4.871  0.00  0.00     0.277 HD
ATOM     12  H8  H52 d           4.400   8.657   4.551  0.00  0.00     0.277 HD
ATOM     13  H9  H52 d           3.715  10.980   2.846  0.00  0.00     0.075 H 
ATOM     14  H10 H52 d           3.014   9.352   2.557  0.00  0.00     0.075 H 
ATOM     15  H11 H52 d           4.904   9.670   1.061  0.00  0.00     0.037 H 
ATOM     16  H12 H52 d           5.351   8.450   2.303  0.00  0.00     0.037 H 
ATOM     17  H13 H52 d           7.049  10.346   1.683  0.00  0.00     0.065 H 
ATOM     18  H14 H52 d           6.001  11.381   2.711  0.00  0.00     0.065 H 
ENDROOT
BRANCH   1  19
ATOM     19  S5  H52 d           8.272   8.672   3.660  0.00  0.00     0.262 S 
ATOM     20  O1  H52 d           8.152   7.709   2.532  0.00  0.00    -0.200 OA
ATOM     21  O2  H52 d           8.334   8.123   5.021  0.00  0.00    -0.200 OA
BRANCH  19  22
ATOM     22  C5  H52 d           9.792   9.586   3.475  0.00  0.00     0.091 A 
ATOM     23  C10 H52 d          10.409  10.016   2.209  0.00  0.00     0.006 A 
ATOM     24  C4  H52 d           9.941   9.890   0.838  0.00  0.00    -0.032 A 
ATOM     25  C9  H52 d          11.679  10.660   2.311  0.00  0.00    -0.006 A 
ATOM     26  C3  H52 d          10.692  10.332  -0.230  0.00  0.00     0.008 A 
ATOM     27  N2  H52 d          11.903  10.901  -0.060  0.00  0.00    -0.272 NA
ATOM     28  H22 H52 d          10.298  10.220  -1.234  0.00  0.00     0.115 H 
ATOM     29  C1  H52 d          12.378  11.098   1.146  0.00  0.00     0.013 A 
ATOM     30  H21 H52 d          13.328  11.606   1.261  0.00  0.00     0.116 H 
ATOM     31  C8  H52 d          12.293  10.874   3.576  0.00  0.00    -0.071 A 
ATOM     32  C7  H52 d          11.689  10.458   4.730  0.00  0.00    -0.081 A 
ATOM     33  H18 H52 d          13.253  11.375   3.627  0.00  0.00     0.084 H 
ATOM     34  C6  H52 d          10.444   9.785   4.674  0.00  0.00    -0.059 A 
ATOM     35  H19 H52 d          12.163  10.643   5.687  0.00  0.00     0.083 H 
ATOM     36  H20 H52 d           9.995   9.421   5.591  0.00  0.00     0.085 H 
BRANCH  24  37
ATOM     37  CM  H52 d           8.638   9.313   0.376  0.00  0.00    -0.049 C 
ATOM     38  H15 H52 d           8.799   8.289   0.009  0.00  0.00     0.033 H 
ATOM     39  H16 H52 d           8.229   9.933  -0.435  0.00  0.00     0.033 H 
ATOM     40  H17 H52 d           7.927   9.294   1.216  0.00  0.00     0.033 H 
ENDBRANCH  24  37
ENDBRANCH  19  22
ENDBRANCH   1  19
BRANCH   2  41
ATOM     41  C2M H52 d           7.203  10.797   6.080  0.00  0.00    -0.055 C 
ATOM     42  H2  H52 d           8.201  10.339   6.139  0.00  0.00     0.030 H 
ATOM     43  H3  H52 d           6.728  10.770   7.071  0.00  0.00     0.030 H 
ATOM     44  H4  H52 d           7.297  11.841   5.746  0.00  0.00     0.030 H 
ENDBRANCH   2  41
TORSDOF 4
ENDMDL
MODEL 10
REMARK VINA RESULT:      -6.2      2.277      3.582
REMARK  4 active torsions:
REMARK  status: ('A' for Active; 'I' for Inactive)
REMARK    1  A    between atoms: S5_2  and  N21_4 
REMARK    2  A    between atoms: S5_2  and  C5_12 
REMARK    3  A    between atoms: C22_5  and  C2M_6 
REMARK    4  A    between atoms: C4_14  and  CM_15 
ROOT
ATOM      1  N21 H52 d          12.135   8.921   2.491  0.00  0.00    -0.301 N 
ATOM      2  C22 H52 d          12.998   7.794   3.041  0.00  0.00     0.042 C 
ATOM      3  C23 H52 d          13.953   8.160   4.183  0.00  0.00     0.100 C 
ATOM      4  N24 H52 d          13.118   8.524   5.395  0.00  0.00    -0.073 N 
ATOM      5  C25 H52 d          12.914  10.030   5.418  0.00  0.00     0.083 C 
ATOM      6  C26 H52 d          11.886  10.531   4.386  0.00  0.00    -0.027 C 
ATOM      7  C27 H52 d          12.377  10.311   2.961  0.00  0.00     0.007 C 
ATOM      8  H1  H52 d          12.281   7.080   3.473  0.00  0.00     0.075 H 
ATOM      9  H5  H52 d          14.577   9.017   3.889  0.00  0.00     0.078 H 
ATOM     10  H6  H52 d          14.598   7.300   4.419  0.00  0.00     0.078 H 
ATOM     11  H7  H52 d          13.595   8.234   6.234  0.00  0.00     0.277 HD
ATOM     12  H8  H52 d          12.224   8.063   5.340  0.00  0.00     0.277 HD
ATOM     13  H9  H52 d          13.879  10.515   5.210  0.00  0.00     0.075 H 
ATOM     14  H10 H52 d          12.568  10.319   6.421  0.00  0.00     0.075 H 
ATOM     15  H11 H52 d          11.717  11.607   4.544  0.00  0.00     0.037 H 
ATOM     16  H12 H52 d          10.942   9.986   4.528  0.00  0.00     0.037 H 
ATOM     17  H13 H52 d          11.850  11.008   2.293  0.00  0.00     0.065 H 
ATOM     18  H14 H52 d          13.458  10.514   2.924  0.00  0.00     0.065 H 
ENDROOT
BRANCH   1  19
ATOM     19  S5  H52 d          10.690   8.456   1.696  0.00  0.00     0.262 S 
ATOM     20  O1  H52 d          10.658   7.030   1.273  0.00  0.00    -0.200 OA
ATOM     21  O2  H52 d          10.507   9.478   0.658  0.00  0.00    -0.200 OA
BRANCH  19  22
ATOM     22  C5  H52 d           9.360   8.744   2.849  0.00  0.00     0.091 A 
ATOM     23  C10 H52 d           8.086   9.427   2.567  0.00  0.00     0.006 A 
ATOM     24  C4  H52 d           7.554   9.960   1.323  0.00  0.00    -0.032 A 
ATOM     25  C9  H52 d           7.212   9.618   3.679  0.00  0.00    -0.006 A 
ATOM     26  C3  H52 d           6.337  10.604   1.270  0.00  0.00     0.008 A 
ATOM     27  N2  H52 d           5.578  10.780   2.370  0.00  0.00    -0.272 NA
ATOM     28  H22 H52 d           5.981  10.981   0.318  0.00  0.00     0.115 H 
ATOM     29  C1  H52 d           5.961  10.288   3.524  0.00  0.00     0.013 A 
ATOM     30  H21 H52 d           5.309  10.393   4.384  0.00  0.00     0.116 H 
ATOM     31  C8  H52 d           7.565   9.158   4.977  0.00  0.00    -0.071 A 
ATOM     32  C7  H52 d           8.758   8.530   5.200  0.00  0.00    -0.081 A 
ATOM     33  H18 H52 d           6.878   9.306   5.803  0.00  0.00     0.084 H 
ATOM     34  C6  H52 d           9.672   8.348   4.133  0.00  0.00    -0.059 A 
ATOM     35  H19 H52 d           9.006   8.171   6.192  0.00  0.00     0.083 H 
ATOM     36  H20 H52 d          10.634   7.889   4.329  0.00  0.00     0.085 H 
BRANCH  24  37
ATOM     37  CM  H52 d           8.183   9.888  -0.035  0.00  0.00    -0.049 C 
ATOM     38  H15 H52 d           8.546   8.865  -0.217  0.00  0.00     0.033 H 
ATOM     39  H16 H52 d           9.028  10.591  -0.086  0.00  0.00     0.033 H 
ATOM     40  H17 H52 d           7.438  10.154  -0.799  0.00  0.00     0.033 H 
ENDBRANCH  24  37
ENDBRANCH  19  22
ENDBRANCH   1  19
BRANCH   2  41
ATOM     41  C2M H52 d          13.757   7.030   1.970  0.00  0.00    -0.055 C 
ATOM     42  H2  H52 d          14.577   7.655   1.585  0.00  0.00     0.030 H 
ATOM     43  H3  H52 d          13.074   6.775   1.147  0.00  0.00     0.030 H 
ATOM     44  H4  H52 d          14.172   6.108   2.402  0.00  0.00     0.030 H 
ENDBRANCH   2  41
TORSDOF 4
ENDMDL
