REMARK  7 active torsions:
REMARK  status: ('A' for Active; 'I' for Inactive)
REMARK    1  A    between atoms: C2_4  and  C8_8 
REMARK    2  A    between atoms: C4_6  and  C7_7 
REMARK    3  A    between atoms: C13_9  and  C14_10 
REMARK    4  A    between atoms: C16_16  and  C19_17 
REMARK    5  A    between atoms: C17_18  and  O20_19 
REMARK    6  A    between atoms: C48_24  and  C49_25 
REMARK    7  A    between atoms: C36_28  and  C38_29 
ROOT
ATOM      1  C8  GYN d           5.297  24.803  -7.823  0.00  0.00    -0.048 C 
ATOM      2  C13 GYN d           4.330  25.580  -7.294  0.00  0.00    -0.070 C 
ATOM      3  C12 GYN d           3.929  25.531  -5.834  0.00  0.00    -0.003 C 
ATOM      4  C27 GYN d           4.970  24.809  -4.965  0.00  0.00     0.011 C 
ATOM      5  C10 GYN d           5.361  23.510  -5.671  0.00  0.00    -0.049 C 
ATOM      6  C9  GYN d           5.954  23.680  -7.061  0.00  0.00    -0.041 C 
ATOM      7  C15 GYN d           3.690  26.947  -5.333  0.00  0.00    -0.090 C 
ATOM      8  C16 GYN d           2.505  27.471  -4.948  0.00  0.00    -0.059 C 
ATOM      9  C17 GYN d           2.498  28.909  -4.487  0.00  0.00     0.057 C 
ATOM     10  C18 GYN d           1.891  29.041  -3.095  0.00  0.00    -0.035 C 
ATOM     11  C21 GYN d           2.893  28.878  -1.967  0.00  0.00    -0.038 C 
ATOM     12  C43 GYN d           2.662  27.604  -1.168  0.00  0.00     0.040 C 
ATOM     13  C47 GYN d           3.259  27.640   0.235  0.00  0.00    -0.035 C 
ATOM     14  C48 GYN d           2.332  26.775   1.073  0.00  0.00    -0.026 C 
ATOM     15  O43 GYN d           1.290  27.232  -0.970  0.00  0.00    -0.376 OA
ATOM     16  C37 GYN d           1.261  26.277   0.110  0.00  0.00     0.063 C 
ATOM     17  C36 GYN d           1.550  24.864  -0.351  0.00  0.00    -0.059 C 
ATOM     18  C35 GYN d           2.102  24.667  -1.567  0.00  0.00    -0.098 C 
ATOM     19  C34 GYN d           2.470  23.338  -2.202  0.00  0.00    -0.045 C 
ATOM     20  C33 GYN d           3.031  23.560  -3.615  0.00  0.00    -0.025 C 
ATOM     21  C32 GYN d           4.337  24.352  -3.654  0.00  0.00     0.016 C 
ATOM     22  N31 GYN d           4.931  24.609  -2.560  0.00  0.00    -0.298 NA
ATOM     23  C30 GYN d           6.312  24.999  -2.316  0.00  0.00     0.015 C 
ATOM     24  C46 GYN d           6.596  26.096  -3.331  0.00  0.00    -0.047 C 
ATOM     25  C28 GYN d           6.211  25.711  -4.757  0.00  0.00    -0.051 C 
ATOM     26  H11 GYN d           2.984  24.973  -5.758  0.00  0.00     0.054 H 
ATOM     27  H12 GYN d           4.459  22.887  -5.760  0.00  0.00     0.035 H 
ATOM     28  H13 GYN d           6.104  22.993  -5.045  0.00  0.00     0.035 H 
ATOM     29  H14 GYN d           7.028  23.897  -6.965  0.00  0.00     0.039 H 
ATOM     30  H15 GYN d           5.818  22.744  -7.622  0.00  0.00     0.039 H 
ATOM     31  H16 GYN d           4.558  27.602  -5.279  0.00  0.00     0.078 H 
ATOM     32  H20 GYN d           3.528  29.296  -4.475  0.00  0.00     0.090 H 
ATOM     33  H22 GYN d           1.114  28.270  -2.982  0.00  0.00     0.037 H 
ATOM     34  H23 GYN d           1.434  30.038  -3.010  0.00  0.00     0.037 H 
ATOM     35  H24 GYN d           2.807  29.741  -1.290  0.00  0.00     0.036 H 
ATOM     36  H25 GYN d           3.906  28.848  -2.395  0.00  0.00     0.036 H 
ATOM     37  H26 GYN d           3.153  26.797  -1.731  0.00  0.00     0.083 H 
ATOM     38  H27 GYN d           3.282  28.670   0.620  0.00  0.00     0.037 H 
ATOM     39  H28 GYN d           4.278  27.227   0.233  0.00  0.00     0.037 H 
ATOM     40  H29 GYN d           2.882  25.928   1.509  0.00  0.00     0.043 H 
ATOM     41  H33 GYN d           0.275  26.291   0.597  0.00  0.00     0.091 H 
ATOM     42  H37 GYN d           2.306  25.559  -2.157  0.00  0.00     0.077 H 
ATOM     43  H38 GYN d           1.573  22.704  -2.263  0.00  0.00     0.039 H 
ATOM     44  H39 GYN d           3.231  22.839  -1.584  0.00  0.00     0.039 H 
ATOM     45  H40 GYN d           2.279  24.107  -4.203  0.00  0.00     0.042 H 
ATOM     46  H41 GYN d           3.211  22.576  -4.073  0.00  0.00     0.042 H 
ATOM     47  H42 GYN d           6.988  24.145  -2.470  0.00  0.00     0.067 H 
ATOM     48  H43 GYN d           6.431  25.380  -1.291  0.00  0.00     0.067 H 
ATOM     49  H44 GYN d           7.672  26.323  -3.309  0.00  0.00     0.035 H 
ATOM     50  H45 GYN d           6.026  26.993  -3.045  0.00  0.00     0.035 H 
ATOM     51  H46 GYN d           6.031  26.645  -5.309  0.00  0.00     0.034 H 
ATOM     52  H47 GYN d           7.072  25.186  -5.196  0.00  0.00     0.034 H 
ENDROOT
BRANCH   1  53
ATOM     53  C2  GYN d           5.795  25.069  -9.217  0.00  0.00     0.071 C 
ATOM     54  O1  GYN d           7.159  25.489  -9.161  0.00  0.00    -0.311 OA
ATOM     55  C5  GYN d           7.836  24.787 -10.227  0.00  0.00     0.263 C 
ATOM     56  O6  GYN d           9.016  24.954 -10.465  0.00  0.00    -0.265 OA
ATOM     57  C4  GYN d           6.961  23.871 -11.004  0.00  0.00     0.029 C 
ATOM     58  C3  GYN d           5.713  23.838 -10.130  0.00  0.00    -0.025 C 
ATOM     59  H4  GYN d           6.725  24.295 -11.991  0.00  0.00     0.055 H 
ATOM     60  H2  GYN d           4.809  23.887 -10.755  0.00  0.00     0.038 H 
ATOM     61  H3  GYN d           5.694  22.918  -9.528  0.00  0.00     0.038 H 
ATOM     62  H1  GYN d           5.184  25.872  -9.655  0.00  0.00     0.091 H 
BRANCH  57  63
ATOM     63  C7  GYN d           7.619  22.517 -11.209  0.00  0.00    -0.064 C 
ATOM     64  H5  GYN d           8.507  22.634 -11.848  0.00  0.00     0.028 H 
ATOM     65  H6  GYN d           6.907  21.832 -11.693  0.00  0.00     0.028 H 
ATOM     66  H7  GYN d           7.920  22.104 -10.235  0.00  0.00     0.028 H 
ENDBRANCH  57  63
ENDBRANCH   1  53
BRANCH   2  67
ATOM     67  C14 GYN d           3.603  26.572  -8.177  0.00  0.00    -0.054 C 
ATOM     68  H8  GYN d           3.991  26.502  -9.204  0.00  0.00     0.033 H 
ATOM     69  H9  GYN d           3.763  27.590  -7.794  0.00  0.00     0.033 H 
ATOM     70  H10 GYN d           2.527  26.345  -8.175  0.00  0.00     0.033 H 
ENDBRANCH   2  67
BRANCH   8  71
ATOM     71  C19 GYN d           1.212  26.691  -4.979  0.00  0.00    -0.052 C 
ATOM     72  H17 GYN d           1.408  25.670  -5.339  0.00  0.00     0.033 H 
ATOM     73  H18 GYN d           0.500  27.187  -5.655  0.00  0.00     0.033 H 
ATOM     74  H19 GYN d           0.786  26.647  -3.966  0.00  0.00     0.033 H 
ENDBRANCH   8  71
BRANCH   9  75
ATOM     75  O20 GYN d           1.698  29.668  -5.406  0.00  0.00    -0.391 OA
ATOM     76  H21 GYN d           1.681  30.578  -5.133  0.00  0.00     0.210 HD
ENDBRANCH   9  75
BRANCH  17  77
ATOM     77  C38 GYN d           1.195  23.700   0.546  0.00  0.00    -0.052 C 
ATOM     78  H34 GYN d           1.474  22.758   0.052  0.00  0.00     0.033 H 
ATOM     79  H35 GYN d           0.113  23.704   0.741  0.00  0.00     0.033 H 
ATOM     80  H36 GYN d           1.740  23.791   1.497  0.00  0.00     0.033 H 
ENDBRANCH  17  77
BRANCH  14  81
ATOM     81  C49 GYN d           1.707  27.610   2.192  0.00  0.00    -0.070 C 
ATOM     82  H30 GYN d           1.038  26.976   2.793  0.00  0.00     0.028 H 
ATOM     83  H31 GYN d           1.131  28.438   1.754  0.00  0.00     0.028 H 
ATOM     84  H32 GYN d           2.502  28.016   2.834  0.00  0.00     0.028 H 
ENDBRANCH  14  81
TORSDOF 7
