MODEL 1
REMARK VINA RESULT:     -11.1      0.000      0.000
REMARK  10 active torsions:
REMARK  status: ('A' for Active; 'I' for Inactive)
REMARK    1  A    between atoms: C1_1  and  C7_7 
REMARK    2  A    between atoms: C3_3  and  O1_8 
REMARK    3  A    between atoms: C4_4  and  O2_9 
REMARK    4  A    between atoms: O3_10  and  C5_5 
REMARK    5  A    between atoms: O1_8  and  P1_13 
REMARK    6  A    between atoms: C8_17  and  O3_10 
REMARK    7  A    between atoms: C8_17  and  C9_18 
REMARK    8  A    between atoms: C8_17  and  C10_19 
REMARK    9  A    between atoms: O14_26  and  C8_17 
REMARK   10  A    between atoms: P2_22  and  O14_26 
ROOT
ATOM      1  C1  GG9 d          56.656  11.885  27.971  0.00  0.00     0.020 C 
ATOM      2  C2  GG9 d          55.505  11.091  28.277  0.00  0.00    -0.060 C 
ATOM      3  C3  GG9 d          55.663   9.825  29.117  0.00  0.00     0.096 C 
ATOM      4  C4  GG9 d          56.988   9.850  30.004  0.00  0.00     0.089 C 
ATOM      5  C5  GG9 d          58.223  10.096  29.089  0.00  0.00     0.074 C 
ATOM      6  C6  GG9 d          58.038  11.532  28.459  0.00  0.00    -0.008 C 
ATOM      7  H1  GG9 d          54.523  11.387  27.913  0.00  0.00     0.082 H 
ATOM      8  H2  GG9 d          54.811   9.766  29.809  0.00  0.00     0.095 H 
ATOM      9  H3  GG9 d          56.928  10.664  30.741  0.00  0.00     0.091 H 
ATOM     10  H4  GG9 d          58.276   9.333  28.298  0.00  0.00     0.088 H 
ATOM     11  H5  GG9 d          58.320  12.270  29.225  0.00  0.00     0.044 H 
ATOM     12  H6  GG9 d          58.724  11.611  27.603  0.00  0.00     0.044 H 
ENDROOT
BRANCH   5  13
ATOM     13  O3  GG9 d          59.414  10.058  29.885  0.00  0.00    -0.334 OA
BRANCH  13  14
ATOM     14  C8  GG9 d          60.394   8.993  29.796  0.00  0.00     0.326 C 
BRANCH  14  15
ATOM     15  C9  GG9 d          59.865   7.483  29.721  0.00  0.00     0.272 C 
ATOM     16  F1  GG9 d          58.940   7.307  28.841  0.00  0.00    -0.208 F 
ATOM     17  F2  GG9 d          60.855   6.628  29.567  0.00  0.00    -0.208 F 
ATOM     18  H8  GG9 d          59.409   7.265  30.697  0.00  0.00     0.155 H 
ENDBRANCH  14  15
BRANCH  14  19
ATOM     19  C10 GG9 d          61.293   9.101  31.003  0.00  0.00     0.245 C 
ATOM     20  O9  GG9 d          61.847  10.252  31.033  0.00  0.00    -0.644 OA
ATOM     21  O10 GG9 d          61.457   8.216  31.864  0.00  0.00    -0.644 OA
ENDBRANCH  14  19
BRANCH  14  22
ATOM     22  O14 GG9 d          61.279   9.233  28.626  0.00  0.00    -0.228 OA
BRANCH  22  23
ATOM     23  P2  GG9 d          61.069   9.428  27.004  0.00  0.00     0.425 P 
ATOM     24  O11 GG9 d          62.268   8.770  26.288  0.00  0.00    -0.617 OA
ATOM     25  O12 GG9 d          61.068  10.917  26.818  0.00  0.00    -0.617 OA
ATOM     26  O13 GG9 d          59.744   8.771  26.542  0.00  0.00    -0.617 OA
ENDBRANCH  22  23
ENDBRANCH  14  22
ENDBRANCH  13  14
ENDBRANCH   5  13
BRANCH   4  27
ATOM     27  O2  GG9 d          57.051   8.592  30.695  0.00  0.00    -0.390 OA
ATOM     28  H7  GG9 d          57.090   7.886  30.061  0.00  0.00     0.210 HD
ENDBRANCH   4  27
BRANCH   3  29
ATOM     29  O1  GG9 d          55.595   8.598  28.162  0.00  0.00    -0.271 OA
BRANCH  29  30
ATOM     30  P1  GG9 d          54.204   7.758  27.821  0.00  0.00     0.422 P 
ATOM     31  O6  GG9 d          53.345   8.693  26.965  0.00  0.00    -0.617 OA
ATOM     32  O7  GG9 d          53.563   7.419  29.233  0.00  0.00    -0.617 OA
ATOM     33  O8  GG9 d          54.781   6.561  27.023  0.00  0.00    -0.617 OA
ENDBRANCH  29  30
ENDBRANCH   3  29
BRANCH   1  34
ATOM     34  C7  GG9 d          56.473  13.129  27.154  0.00  0.00     0.205 C 
ATOM     35  O4  GG9 d          55.626  13.116  26.281  0.00  0.00    -0.644 OA
ATOM     36  O5  GG9 d          57.158  14.068  27.440  0.00  0.00    -0.644 OA
ENDBRANCH   1  34
TORSDOF 10
ENDMDL
