MODEL 1
REMARK VINA RESULT:     -10.3      0.000      0.000
REMARK  10 active torsions:
REMARK  status: ('A' for Active; 'I' for Inactive)
REMARK    1  A    between atoms: C1_1  and  C7_7 
REMARK    2  A    between atoms: C3_3  and  O1_8 
REMARK    3  A    between atoms: C4_4  and  O2_9 
REMARK    4  A    between atoms: O3_10  and  C5_5 
REMARK    5  A    between atoms: O1_8  and  P1_13 
REMARK    6  A    between atoms: C8_17  and  O3_10 
REMARK    7  A    between atoms: C8_17  and  C9_18 
REMARK    8  A    between atoms: C8_17  and  C10_19 
REMARK    9  A    between atoms: O14_26  and  C8_17 
REMARK   10  A    between atoms: P2_22  and  O14_26 
ROOT
ATOM      1  C1  GG9 d          55.946  11.416  27.947  0.00  0.00     0.020 C 
ATOM      2  C2  GG9 d          54.892  10.687  28.585  0.00  0.00    -0.060 C 
ATOM      3  C3  GG9 d          55.233   9.627  29.630  0.00  0.00     0.096 C 
ATOM      4  C4  GG9 d          56.674   9.853  30.274  0.00  0.00     0.089 C 
ATOM      5  C5  GG9 d          57.744   9.919  29.146  0.00  0.00     0.074 C 
ATOM      6  C6  GG9 d          57.400  11.190  28.274  0.00  0.00    -0.008 C 
ATOM      7  H1  GG9 d          53.854  10.888  28.328  0.00  0.00     0.082 H 
ATOM      8  H2  GG9 d          54.498   9.701  30.444  0.00  0.00     0.095 H 
ATOM      9  H3  GG9 d          56.689  10.801  30.829  0.00  0.00     0.091 H 
ATOM     10  H4  GG9 d          57.712   9.009  28.528  0.00  0.00     0.088 H 
ATOM     11  H5  GG9 d          57.761  12.075  28.819  0.00  0.00     0.044 H 
ATOM     12  H6  GG9 d          57.945  11.098  27.322  0.00  0.00     0.044 H 
ENDROOT
BRANCH   5  13
ATOM     13  O3  GG9 d          59.042  10.063  29.734  0.00  0.00    -0.334 OA
BRANCH  13  14
ATOM     14  C8  GG9 d          60.080   9.057  29.624  0.00  0.00     0.326 C 
BRANCH  14  15
ATOM     15  C9  GG9 d          59.636   7.530  29.439  0.00  0.00     0.272 C 
ATOM     16  F1  GG9 d          58.600   7.384  28.687  0.00  0.00    -0.208 F 
ATOM     17  F2  GG9 d          60.640   6.776  29.040  0.00  0.00    -0.208 F 
ATOM     18  H8  GG9 d          59.346   7.168  30.437  0.00  0.00     0.155 H 
ENDBRANCH  14  15
BRANCH  14  19
ATOM     19  C10 GG9 d          60.926   9.138  30.870  0.00  0.00     0.245 C 
ATOM     20  O9  GG9 d          61.243  10.353  31.105  0.00  0.00    -0.644 OA
ATOM     21  O10 GG9 d          61.252   8.172  31.587  0.00  0.00    -0.644 OA
ENDBRANCH  14  19
BRANCH  14  22
ATOM     22  O14 GG9 d          60.994   9.412  28.507  0.00  0.00    -0.228 OA
BRANCH  22  23
ATOM     23  P2  GG9 d          60.883   9.487  26.865  0.00  0.00     0.425 P 
ATOM     24  O11 GG9 d          62.151   8.836  26.272  0.00  0.00    -0.617 OA
ATOM     25  O12 GG9 d          60.833  10.959  26.574  0.00  0.00    -0.617 OA
ATOM     26  O13 GG9 d          59.619   8.742  26.369  0.00  0.00    -0.617 OA
ENDBRANCH  22  23
ENDBRANCH  14  22
ENDBRANCH  13  14
ENDBRANCH   5  13
BRANCH   4  27
ATOM     27  O2  GG9 d          56.898   8.767  31.187  0.00  0.00    -0.390 OA
ATOM     28  H7  GG9 d          57.662   8.956  31.720  0.00  0.00     0.210 HD
ENDBRANCH   4  27
BRANCH   3  29
ATOM     29  O1  GG9 d          55.077   8.227  28.967  0.00  0.00    -0.271 OA
BRANCH  29  30
ATOM     30  P1  GG9 d          54.676   7.988  27.374  0.00  0.00     0.422 P 
ATOM     31  O6  GG9 d          53.699   9.110  27.012  0.00  0.00    -0.617 OA
ATOM     32  O7  GG9 d          54.032   6.539  27.317  0.00  0.00    -0.617 OA
ATOM     33  O8  GG9 d          56.064   8.150  26.703  0.00  0.00    -0.617 OA
ENDBRANCH  29  30
ENDBRANCH   3  29
BRANCH   1  34
ATOM     34  C7  GG9 d          55.586  12.460  26.933  0.00  0.00     0.205 C 
ATOM     35  O4  GG9 d          56.449  13.251  26.602  0.00  0.00    -0.644 OA
ATOM     36  O5  GG9 d          54.473  12.425  26.494  0.00  0.00    -0.644 OA
ENDBRANCH   1  34
TORSDOF 10
ENDMDL
