MODEL 1
REMARK VINA RESULT:      -7.7      0.000      0.000
REMARK  6 active torsions:
REMARK  status: ('A' for Active; 'I' for Inactive)
REMARK    1  A    between atoms: P_1  and  O5'_4 
REMARK    2  A    between atoms: O5'_4  and  C5'_6 
REMARK    3  A    between atoms: C5'_6  and  C4'_7 
REMARK    4  A    between atoms: C1'_9  and  N9_10 
REMARK    5  A    between atoms: C2'_21  and  O2'_22 
REMARK    6  A    between atoms: C3'_23  and  O3'_24 
ROOT
ATOM      1  C4' XMP d           2.465  39.389  46.338  0.00  0.00     0.089 C 
ATOM      2  O4' XMP d           2.739  40.538  47.205  0.00  0.00    -0.353 OA
ATOM      3  C1' XMP d           1.625  41.449  47.148  0.00  0.00     0.139 C 
ATOM      4  C2' XMP d           0.604  40.876  46.175  0.00  0.00     0.105 C 
ATOM      5  C3' XMP d           1.417  39.913  45.361  0.00  0.00     0.091 C 
ATOM      6  H3  XMP d           2.048  38.538  46.896  0.00  0.00     0.090 H 
ATOM      7  H4  XMP d           1.145  41.508  48.136  0.00  0.00     0.122 H 
ATOM      8  H8  XMP d           0.186  41.670  45.539  0.00  0.00     0.093 H 
ATOM      9  H10 XMP d           1.909  40.436  44.527  0.00  0.00     0.091 H 
ENDROOT
BRANCH   3  10
ATOM     10  N9  XMP d           2.182  42.786  46.837  0.00  0.00    -0.295 N 
ATOM     11  C4  XMP d           3.153  43.004  45.882  0.00  0.00     0.149 A 
ATOM     12  N3  XMP d           3.756  42.051  45.079  0.00  0.00    -0.292 N 
ATOM     13  C5  XMP d           3.385  44.364  45.904  0.00  0.00     0.170 A 
ATOM     14  C2  XMP d           4.674  42.602  44.236  0.00  0.00     0.328 A 
ATOM     15  H5  XMP d           3.543  41.074  45.112  0.00  0.00     0.172 HD
ATOM     16  N1  XMP d           4.974  43.968  44.190  0.00  0.00    -0.273 N 
ATOM     17  O2  XMP d           5.312  41.918  43.441  0.00  0.00    -0.247 OA
ATOM     18  C6  XMP d           4.345  44.945  45.027  0.00  0.00     0.282 A 
ATOM     19  H6  XMP d           5.666  44.279  43.538  0.00  0.00     0.173 HD
ATOM     20  O6  XMP d           4.650  46.128  44.942  0.00  0.00    -0.265 OA
ATOM     21  N7  XMP d           2.572  45.018  46.867  0.00  0.00    -0.234 NA
ATOM     22  C8  XMP d           1.891  44.021  47.373  0.00  0.00     0.071 A 
ATOM     23  H7  XMP d           1.150  44.157  48.158  0.00  0.00     0.144 H 
ENDBRANCH   3  10
BRANCH   4  24
ATOM     24  O2' XMP d          -0.466  40.206  46.854  0.00  0.00    -0.388 OA
ATOM     25  H9  XMP d          -0.400  39.270  46.701  0.00  0.00     0.210 HD
ENDBRANCH   4  24
BRANCH   1  26
ATOM     26  C5' XMP d           3.815  39.007  45.787  0.00  0.00     0.059 C 
ATOM     27  H1  XMP d           4.430  39.911  45.669  0.00  0.00     0.079 H 
ATOM     28  H2  XMP d           4.310  38.314  46.482  0.00  0.00     0.079 H 
BRANCH  26  29
ATOM     29  O5' XMP d           3.655  38.371  44.514  0.00  0.00    -0.280 OA
BRANCH  29  30
ATOM     30  P   XMP d           3.617  36.776  44.330  0.00  0.00     0.422 P 
ATOM     31  O1P XMP d           4.219  36.115  45.490  0.00  0.00    -0.617 OA
ATOM     32  O2P XMP d           4.396  36.497  43.072  0.00  0.00    -0.617 OA
ATOM     33  O3P XMP d           2.119  36.416  44.170  0.00  0.00    -0.617 OA
ENDBRANCH  29  30
ENDBRANCH  26  29
ENDBRANCH   1  26
BRANCH   5  34
ATOM     34  O3' XMP d           0.597  38.885  44.830  0.00  0.00    -0.390 OA
ATOM     35  H11 XMP d           0.031  38.547  45.515  0.00  0.00     0.210 HD
ENDBRANCH   5  34
TORSDOF 6
ENDMDL
MODEL 2
REMARK VINA RESULT:      -7.0      2.813      6.080
REMARK  6 active torsions:
REMARK  status: ('A' for Active; 'I' for Inactive)
REMARK    1  A    between atoms: P_1  and  O5'_4 
REMARK    2  A    between atoms: O5'_4  and  C5'_6 
REMARK    3  A    between atoms: C5'_6  and  C4'_7 
REMARK    4  A    between atoms: C1'_9  and  N9_10 
REMARK    5  A    between atoms: C2'_21  and  O2'_22 
REMARK    6  A    between atoms: C3'_23  and  O3'_24 
ROOT
ATOM      1  C4' XMP d           1.480  43.463  47.031  0.00  0.00     0.089 C 
ATOM      2  O4' XMP d           1.873  42.733  45.822  0.00  0.00    -0.353 OA
ATOM      3  C1' XMP d           1.510  41.348  45.967  0.00  0.00     0.139 C 
ATOM      4  C2' XMP d           0.885  41.171  47.344  0.00  0.00     0.105 C 
ATOM      5  C3' XMP d           1.378  42.373  48.095  0.00  0.00     0.091 C 
ATOM      6  H3  XMP d           0.503  43.954  46.920  0.00  0.00     0.090 H 
ATOM      7  H4  XMP d           0.746  41.086  45.220  0.00  0.00     0.122 H 
ATOM      8  H8  XMP d           1.240  40.243  47.815  0.00  0.00     0.093 H 
ATOM      9  H10 XMP d           2.371  42.176  48.527  0.00  0.00     0.091 H 
ENDROOT
BRANCH   3  10
ATOM     10  N9  XMP d           2.724  40.555  45.667  0.00  0.00    -0.295 N 
ATOM     11  C4  XMP d           2.692  39.249  45.224  0.00  0.00     0.149 A 
ATOM     12  N3  XMP d           1.564  38.479  44.992  0.00  0.00    -0.292 N 
ATOM     13  C5  XMP d           4.013  38.887  45.063  0.00  0.00     0.170 A 
ATOM     14  C2  XMP d           1.882  37.229  44.554  0.00  0.00     0.328 A 
ATOM     15  H5  XMP d           0.627  38.802  45.129  0.00  0.00     0.172 HD
ATOM     16  N1  XMP d           3.192  36.776  44.363  0.00  0.00    -0.273 N 
ATOM     17  O2  XMP d           1.017  36.399  44.289  0.00  0.00    -0.247 OA
ATOM     18  C6  XMP d           4.351  37.581  44.608  0.00  0.00     0.282 A 
ATOM     19  H6  XMP d           3.327  35.839  44.040  0.00  0.00     0.173 HD
ATOM     20  O6  XMP d           5.475  37.129  44.424  0.00  0.00    -0.265 OA
ATOM     21  N7  XMP d           4.892  39.949  45.403  0.00  0.00    -0.234 NA
ATOM     22  C8  XMP d           4.056  40.896  45.746  0.00  0.00     0.071 A 
ATOM     23  H7  XMP d           4.388  41.881  46.071  0.00  0.00     0.144 H 
ENDBRANCH   3  10
BRANCH   4  24
ATOM     24  O2' XMP d          -0.547  41.149  47.284  0.00  0.00    -0.388 OA
ATOM     25  H9  XMP d          -0.822  40.907  46.408  0.00  0.00     0.210 HD
ENDBRANCH   4  24
BRANCH   1  26
ATOM     26  C5' XMP d           2.547  44.513  47.198  0.00  0.00     0.059 C 
ATOM     27  H1  XMP d           2.171  45.316  47.851  0.00  0.00     0.079 H 
ATOM     28  H2  XMP d           3.439  44.059  47.653  0.00  0.00     0.079 H 
BRANCH  26  29
ATOM     29  O5' XMP d           2.891  45.061  45.921  0.00  0.00    -0.280 OA
BRANCH  29  30
ATOM     30  P   XMP d           4.405  45.183  45.399  0.00  0.00     0.422 P 
ATOM     31  O1P XMP d           4.920  43.865  45.021  0.00  0.00    -0.617 OA
ATOM     32  O2P XMP d           5.181  45.768  46.549  0.00  0.00    -0.617 OA
ATOM     33  O3P XMP d           4.347  46.152  44.192  0.00  0.00    -0.617 OA
ENDBRANCH  29  30
ENDBRANCH  26  29
ENDBRANCH   1  26
BRANCH   5  34
ATOM     34  O3' XMP d           0.486  42.711  49.145  0.00  0.00    -0.390 OA
ATOM     35  H11 XMP d          -0.009  43.485  48.901  0.00  0.00     0.210 HD
ENDBRANCH   5  34
TORSDOF 6
ENDMDL
MODEL 3
REMARK VINA RESULT:      -6.4      1.879      3.936
REMARK  6 active torsions:
REMARK  status: ('A' for Active; 'I' for Inactive)
REMARK    1  A    between atoms: P_1  and  O5'_4 
REMARK    2  A    between atoms: O5'_4  and  C5'_6 
REMARK    3  A    between atoms: C5'_6  and  C4'_7 
REMARK    4  A    between atoms: C1'_9  and  N9_10 
REMARK    5  A    between atoms: C2'_21  and  O2'_22 
REMARK    6  A    between atoms: C3'_23  and  O3'_24 
ROOT
ATOM      1  C4' XMP d           3.419  41.049  44.180  0.00  0.00     0.089 C 
ATOM      2  O4' XMP d           2.818  42.382  44.281  0.00  0.00    -0.353 OA
ATOM      3  C1' XMP d           3.860  43.374  44.247  0.00  0.00     0.139 C 
ATOM      4  C2' XMP d           5.194  42.646  44.153  0.00  0.00     0.105 C 
ATOM      5  C3' XMP d           4.859  41.265  44.635  0.00  0.00     0.091 C 
ATOM      6  H3  XMP d           3.417  40.670  43.148  0.00  0.00     0.090 H 
ATOM      7  H4  XMP d           3.755  43.990  43.342  0.00  0.00     0.122 H 
ATOM      8  H8  XMP d           5.941  43.118  44.807  0.00  0.00     0.093 H 
ATOM      9  H10 XMP d           4.917  41.217  45.733  0.00  0.00     0.091 H 
ENDROOT
BRANCH   3  10
ATOM     10  N9  XMP d           3.650  44.255  45.419  0.00  0.00    -0.295 N 
ATOM     11  C4  XMP d           2.563  44.157  46.262  0.00  0.00     0.149 A 
ATOM     12  N3  XMP d           1.517  43.255  46.165  0.00  0.00    -0.292 N 
ATOM     13  C5  XMP d           2.748  45.142  47.210  0.00  0.00     0.170 A 
ATOM     14  C2  XMP d           0.605  43.424  47.162  0.00  0.00     0.328 A 
ATOM     15  H5  XMP d           1.440  42.561  45.448  0.00  0.00     0.172 HD
ATOM     16  N1  XMP d           0.710  44.395  48.164  0.00  0.00    -0.273 N 
ATOM     17  O2  XMP d          -0.394  42.714  47.250  0.00  0.00    -0.247 OA
ATOM     18  C6  XMP d           1.796  45.325  48.253  0.00  0.00     0.282 A 
ATOM     19  H6  XMP d          -0.012  44.444  48.854  0.00  0.00     0.173 HD
ATOM     20  O6  XMP d           1.834  46.155  49.153  0.00  0.00    -0.265 OA
ATOM     21  N7  XMP d           3.944  45.872  46.980  0.00  0.00    -0.234 NA
ATOM     22  C8  XMP d           4.418  45.288  45.908  0.00  0.00     0.071 A 
ATOM     23  H7  XMP d           5.352  45.596  45.438  0.00  0.00     0.144 H 
ENDBRANCH   3  10
BRANCH   4  24
ATOM     24  O2' XMP d           5.697  42.618  42.811  0.00  0.00    -0.388 OA
ATOM     25  H9  XMP d           5.009  42.331  42.222  0.00  0.00     0.210 HD
ENDBRANCH   4  24
BRANCH   1  26
ATOM     26  C5' XMP d           2.534  40.175  45.030  0.00  0.00     0.059 C 
ATOM     27  H1  XMP d           3.012  40.012  46.008  0.00  0.00     0.079 H 
ATOM     28  H2  XMP d           1.562  40.669  45.175  0.00  0.00     0.079 H 
BRANCH  26  29
ATOM     29  O5' XMP d           2.334  38.914  44.383  0.00  0.00    -0.280 OA
BRANCH  29  30
ATOM     30  P   XMP d           2.800  37.517  45.023  0.00  0.00     0.422 P 
ATOM     31  O1P XMP d           2.007  37.214  46.216  0.00  0.00    -0.617 OA
ATOM     32  O2P XMP d           4.257  37.695  45.361  0.00  0.00    -0.617 OA
ATOM     33  O3P XMP d           2.594  36.464  43.906  0.00  0.00    -0.617 OA
ENDBRANCH  29  30
ENDBRANCH  26  29
ENDBRANCH   1  26
BRANCH   5  34
ATOM     34  O3' XMP d           5.757  40.311  44.092  0.00  0.00    -0.390 OA
ATOM     35  H11 XMP d           6.097  40.632  43.265  0.00  0.00     0.210 HD
ENDBRANCH   5  34
TORSDOF 6
ENDMDL
MODEL 4
REMARK VINA RESULT:      -6.1      2.729      5.349
REMARK  6 active torsions:
REMARK  status: ('A' for Active; 'I' for Inactive)
REMARK    1  A    between atoms: P_1  and  O5'_4 
REMARK    2  A    between atoms: O5'_4  and  C5'_6 
REMARK    3  A    between atoms: C5'_6  and  C4'_7 
REMARK    4  A    between atoms: C1'_9  and  N9_10 
REMARK    5  A    between atoms: C2'_21  and  O2'_22 
REMARK    6  A    between atoms: C3'_23  and  O3'_24 
ROOT
ATOM      1  C4' XMP d           1.810  43.523  46.718  0.00  0.00     0.089 C 
ATOM      2  O4' XMP d           1.060  42.907  45.620  0.00  0.00    -0.353 OA
ATOM      3  C1' XMP d           0.225  41.860  46.147  0.00  0.00     0.139 C 
ATOM      4  C2' XMP d           0.472  41.776  47.647  0.00  0.00     0.105 C 
ATOM      5  C3' XMP d           1.801  42.455  47.808  0.00  0.00     0.091 C 
ATOM      6  H3  XMP d           1.320  44.431  47.097  0.00  0.00     0.090 H 
ATOM      7  H4  XMP d          -0.833  42.122  46.000  0.00  0.00     0.122 H 
ATOM      8  H8  XMP d           0.526  40.728  47.974  0.00  0.00     0.093 H 
ATOM      9  H10 XMP d           2.620  41.739  47.639  0.00  0.00     0.091 H 
ENDROOT
BRANCH   3  10
ATOM     10  N9  XMP d           0.504  40.646  45.346  0.00  0.00    -0.295 N 
ATOM     11  C4  XMP d           1.378  39.655  45.741  0.00  0.00     0.149 A 
ATOM     12  N3  XMP d           2.119  39.621  46.910  0.00  0.00    -0.292 N 
ATOM     13  C5  XMP d           1.347  38.717  44.729  0.00  0.00     0.170 A 
ATOM     14  C2  XMP d           2.882  38.495  46.997  0.00  0.00     0.328 A 
ATOM     15  H5  XMP d           2.098  40.337  47.608  0.00  0.00     0.172 HD
ATOM     16  N1  XMP d           2.914  37.494  46.020  0.00  0.00    -0.273 N 
ATOM     17  O2  XMP d           3.607  38.281  47.965  0.00  0.00    -0.247 OA
ATOM     18  C6  XMP d           2.143  37.540  44.814  0.00  0.00     0.282 A 
ATOM     19  H6  XMP d           3.508  36.704  46.172  0.00  0.00     0.173 HD
ATOM     20  O6  XMP d           2.214  36.633  43.994  0.00  0.00    -0.265 OA
ATOM     21  N7  XMP d           0.462  39.102  43.687  0.00  0.00    -0.234 NA
ATOM     22  C8  XMP d           0.004  40.247  44.126  0.00  0.00     0.071 A 
ATOM     23  H7  XMP d          -0.719  40.841  43.568  0.00  0.00     0.144 H 
ENDBRANCH   3  10
BRANCH   4  24
ATOM     24  O2' XMP d          -0.547  42.449  48.397  0.00  0.00    -0.388 OA
ATOM     25  H9  XMP d          -1.218  41.825  48.649  0.00  0.00     0.210 HD
ENDBRANCH   4  24
BRANCH   1  26
ATOM     26  C5' XMP d           3.135  43.894  46.105  0.00  0.00     0.059 C 
ATOM     27  H1  XMP d           3.236  44.989  46.089  0.00  0.00     0.079 H 
ATOM     28  H2  XMP d           3.949  43.459  46.704  0.00  0.00     0.079 H 
BRANCH  26  29
ATOM     29  O5' XMP d           3.207  43.390  44.767  0.00  0.00    -0.280 OA
BRANCH  29  30
ATOM     30  P   XMP d           4.129  42.143  44.349  0.00  0.00     0.422 P 
ATOM     31  O1P XMP d           4.441  41.324  45.523  0.00  0.00    -0.617 OA
ATOM     32  O2P XMP d           5.374  42.745  43.753  0.00  0.00    -0.617 OA
ATOM     33  O3P XMP d           3.308  41.360  43.295  0.00  0.00    -0.617 OA
ENDBRANCH  29  30
ENDBRANCH  26  29
ENDBRANCH   1  26
BRANCH   5  34
ATOM     34  O3' XMP d           1.934  42.998  49.111  0.00  0.00    -0.390 OA
ATOM     35  H11 XMP d           2.856  43.075  49.329  0.00  0.00     0.210 HD
ENDBRANCH   5  34
TORSDOF 6
ENDMDL
MODEL 5
REMARK VINA RESULT:      -6.0      2.778      6.120
REMARK  6 active torsions:
REMARK  status: ('A' for Active; 'I' for Inactive)
REMARK    1  A    between atoms: P_1  and  O5'_4 
REMARK    2  A    between atoms: O5'_4  and  C5'_6 
REMARK    3  A    between atoms: C5'_6  and  C4'_7 
REMARK    4  A    between atoms: C1'_9  and  N9_10 
REMARK    5  A    between atoms: C2'_21  and  O2'_22 
REMARK    6  A    between atoms: C3'_23  and  O3'_24 
ROOT
ATOM      1  C4' XMP d           3.513  43.238  45.558  0.00  0.00     0.089 C 
ATOM      2  O4' XMP d           3.993  41.965  46.102  0.00  0.00    -0.353 OA
ATOM      3  C1' XMP d           4.682  41.238  45.068  0.00  0.00     0.139 C 
ATOM      4  C2' XMP d           4.613  42.066  43.792  0.00  0.00     0.105 C 
ATOM      5  C3' XMP d           3.462  42.993  44.053  0.00  0.00     0.091 C 
ATOM      6  H3  XMP d           4.205  44.066  45.768  0.00  0.00     0.090 H 
ATOM      7  H4  XMP d           5.743  41.130  45.336  0.00  0.00     0.122 H 
ATOM      8  H8  XMP d           4.409  41.424  42.923  0.00  0.00     0.093 H 
ATOM      9  H10 XMP d           2.511  42.509  43.783  0.00  0.00     0.091 H 
ENDROOT
BRANCH   3  10
ATOM     10  N9  XMP d           4.086  39.882  45.029  0.00  0.00    -0.295 N 
ATOM     11  C4  XMP d           2.757  39.641  44.753  0.00  0.00     0.149 A 
ATOM     12  N3  XMP d           1.783  40.585  44.476  0.00  0.00    -0.292 N 
ATOM     13  C5  XMP d           2.617  38.269  44.812  0.00  0.00     0.170 A 
ATOM     14  C2  XMP d           0.569  40.010  44.244  0.00  0.00     0.328 A 
ATOM     15  H5  XMP d           1.949  41.570  44.450  0.00  0.00     0.172 HD
ATOM     16  N1  XMP d           0.335  38.631  44.283  0.00  0.00    -0.273 N 
ATOM     17  O2  XMP d          -0.422  40.683  43.975  0.00  0.00    -0.247 OA
ATOM     18  C6  XMP d           1.351  37.664  44.572  0.00  0.00     0.282 A 
ATOM     19  H6  XMP d          -0.592  38.303  44.099  0.00  0.00     0.173 HD
ATOM     20  O6  XMP d           1.086  36.468  44.593  0.00  0.00    -0.265 OA
ATOM     21  N7  XMP d           3.846  37.631  45.126  0.00  0.00    -0.234 NA
ATOM     22  C8  XMP d           4.662  38.649  45.237  0.00  0.00     0.071 A 
ATOM     23  H7  XMP d           5.718  38.529  45.475  0.00  0.00     0.144 H 
ENDBRANCH   3  10
BRANCH   4  24
ATOM     24  O2' XMP d           5.824  42.797  43.561  0.00  0.00    -0.388 OA
ATOM     25  H9  XMP d           5.666  43.474  42.914  0.00  0.00     0.210 HD
ENDBRANCH   4  24
BRANCH   1  26
ATOM     26  C5' XMP d           2.212  43.485  46.276  0.00  0.00     0.059 C 
ATOM     27  H1  XMP d           2.245  44.471  46.764  0.00  0.00     0.079 H 
ATOM     28  H2  XMP d           1.384  43.462  45.552  0.00  0.00     0.079 H 
BRANCH  26  29
ATOM     29  O5' XMP d           2.005  42.472  47.266  0.00  0.00    -0.280 OA
BRANCH  29  30
ATOM     30  P   XMP d           0.550  41.934  47.679  0.00  0.00     0.422 P 
ATOM     31  O1P XMP d          -0.469  42.481  46.780  0.00  0.00    -0.617 OA
ATOM     32  O2P XMP d           0.338  42.395  49.097  0.00  0.00    -0.617 OA
ATOM     33  O3P XMP d           0.639  40.390  47.584  0.00  0.00    -0.617 OA
ENDBRANCH  29  30
ENDBRANCH  26  29
ENDBRANCH   1  26
BRANCH   5  34
ATOM     34  O3' XMP d           3.595  44.185  43.296  0.00  0.00    -0.390 OA
ATOM     35  H11 XMP d           4.409  44.616  43.527  0.00  0.00     0.210 HD
ENDBRANCH   5  34
TORSDOF 6
ENDMDL
MODEL 6
REMARK VINA RESULT:      -5.9      2.831      5.302
REMARK  6 active torsions:
REMARK  status: ('A' for Active; 'I' for Inactive)
REMARK    1  A    between atoms: P_1  and  O5'_4 
REMARK    2  A    between atoms: O5'_4  and  C5'_6 
REMARK    3  A    between atoms: C5'_6  and  C4'_7 
REMARK    4  A    between atoms: C1'_9  and  N9_10 
REMARK    5  A    between atoms: C2'_21  and  O2'_22 
REMARK    6  A    between atoms: C3'_23  and  O3'_24 
ROOT
ATOM      1  C4' XMP d           5.556  41.242  44.330  0.00  0.00     0.089 C 
ATOM      2  O4' XMP d           4.871  41.747  45.523  0.00  0.00    -0.353 OA
ATOM      3  C1' XMP d           3.935  40.757  45.986  0.00  0.00     0.139 C 
ATOM      4  C2' XMP d           3.996  39.574  45.029  0.00  0.00     0.105 C 
ATOM      5  C3' XMP d           4.611  40.169  43.796  0.00  0.00     0.091 C 
ATOM      6  H3  XMP d           6.526  40.783  44.571  0.00  0.00     0.090 H 
ATOM      7  H4  XMP d           4.240  40.396  46.979  0.00  0.00     0.122 H 
ATOM      8  H8  XMP d           2.987  39.193  44.818  0.00  0.00     0.093 H 
ATOM      9  H10 XMP d           3.836  40.631  43.166  0.00  0.00     0.091 H 
ENDROOT
BRANCH   3  10
ATOM     10  N9  XMP d           2.629  41.440  46.136  0.00  0.00    -0.295 N 
ATOM     11  C4  XMP d           2.486  42.700  46.679  0.00  0.00     0.149 A 
ATOM     12  N3  XMP d           3.496  43.515  47.161  0.00  0.00    -0.292 N 
ATOM     13  C5  XMP d           1.132  42.964  46.633  0.00  0.00     0.170 A 
ATOM     14  C2  XMP d           3.013  44.702  47.626  0.00  0.00     0.328 A 
ATOM     15  H5  XMP d           4.464  43.264  47.167  0.00  0.00     0.172 HD
ATOM     16  N1  XMP d           1.659  45.053  47.619  0.00  0.00    -0.273 N 
ATOM     17  O2  XMP d           3.756  45.562  48.090  0.00  0.00    -0.247 OA
ATOM     18  C6  XMP d           0.623  44.201  47.119  0.00  0.00     0.282 A 
ATOM     19  H6  XMP d           1.400  45.948  47.984  0.00  0.00     0.173 HD
ATOM     20  O6  XMP d          -0.547  44.563  47.140  0.00  0.00    -0.265 OA
ATOM     21  N7  XMP d           0.407  41.881  46.067  0.00  0.00    -0.234 NA
ATOM     22  C8  XMP d           1.360  41.024  45.799  0.00  0.00     0.071 A 
ATOM     23  H7  XMP d           1.164  40.055  45.344  0.00  0.00     0.144 H 
ENDBRANCH   3  10
BRANCH   4  24
ATOM     24  O2' XMP d           4.801  38.507  45.546  0.00  0.00    -0.388 OA
ATOM     25  H9  XMP d           5.552  38.871  46.002  0.00  0.00     0.210 HD
ENDBRANCH   4  24
BRANCH   1  26
ATOM     26  C5' XMP d           5.784  42.466  43.482  0.00  0.00     0.059 C 
ATOM     27  H1  XMP d           6.706  42.970  43.809  0.00  0.00     0.079 H 
ATOM     28  H2  XMP d           5.884  42.168  42.428  0.00  0.00     0.079 H 
BRANCH  26  29
ATOM     29  O5' XMP d           4.677  43.363  43.619  0.00  0.00    -0.280 OA
BRANCH  29  30
ATOM     30  P   XMP d           4.853  44.944  43.841  0.00  0.00     0.422 P 
ATOM     31  O1P XMP d           3.563  45.624  43.702  0.00  0.00    -0.617 OA
ATOM     32  O2P XMP d           5.827  45.392  42.784  0.00  0.00    -0.617 OA
ATOM     33  O3P XMP d           5.439  45.097  45.266  0.00  0.00    -0.617 OA
ENDBRANCH  29  30
ENDBRANCH  26  29
ENDBRANCH   1  26
BRANCH   5  34
ATOM     34  O3' XMP d           5.280  39.175  43.037  0.00  0.00    -0.390 OA
ATOM     35  H11 XMP d           4.671  38.788  42.419  0.00  0.00     0.210 HD
ENDBRANCH   5  34
TORSDOF 6
ENDMDL
MODEL 7
REMARK VINA RESULT:      -5.6      3.246      6.761
REMARK  6 active torsions:
REMARK  status: ('A' for Active; 'I' for Inactive)
REMARK    1  A    between atoms: P_1  and  O5'_4 
REMARK    2  A    between atoms: O5'_4  and  C5'_6 
REMARK    3  A    between atoms: C5'_6  and  C4'_7 
REMARK    4  A    between atoms: C1'_9  and  N9_10 
REMARK    5  A    between atoms: C2'_21  and  O2'_22 
REMARK    6  A    between atoms: C3'_23  and  O3'_24 
ROOT
ATOM      1  C4' XMP d           3.197  43.694  45.732  0.00  0.00     0.089 C 
ATOM      2  O4' XMP d           3.838  42.458  46.192  0.00  0.00    -0.353 OA
ATOM      3  C1' XMP d           4.807  42.037  45.216  0.00  0.00     0.139 C 
ATOM      4  C2' XMP d           4.766  43.027  44.060  0.00  0.00     0.105 C 
ATOM      5  C3' XMP d           3.425  43.681  44.224  0.00  0.00     0.091 C 
ATOM      6  H3  XMP d           3.667  44.590  46.163  0.00  0.00     0.090 H 
ATOM      7  H4  XMP d           5.816  42.080  45.653  0.00  0.00     0.122 H 
ATOM      8  H8  XMP d           4.830  42.502  43.096  0.00  0.00     0.093 H 
ATOM      9  H10 XMP d           2.644  43.082  43.731  0.00  0.00     0.091 H 
ENDROOT
BRANCH   3  10
ATOM     10  N9  XMP d           4.512  40.619  44.904  0.00  0.00    -0.295 N 
ATOM     11  C4  XMP d           3.759  39.800  45.719  0.00  0.00     0.149 A 
ATOM     12  N3  XMP d           3.171  40.144  46.925  0.00  0.00    -0.292 N 
ATOM     13  C5  XMP d           3.721  38.581  45.074  0.00  0.00     0.170 A 
ATOM     14  C2  XMP d           2.491  39.099  47.475  0.00  0.00     0.328 A 
ATOM     15  H5  XMP d           3.236  41.050  47.342  0.00  0.00     0.172 HD
ATOM     16  N1  XMP d           2.400  37.830  46.893  0.00  0.00    -0.273 N 
ATOM     17  O2  XMP d           1.896  39.209  48.544  0.00  0.00    -0.247 OA
ATOM     18  C6  XMP d           3.014  37.486  45.646  0.00  0.00     0.282 A 
ATOM     19  H6  XMP d           1.878  37.125  47.374  0.00  0.00     0.173 HD
ATOM     20  O6  XMP d           2.900  36.356  45.186  0.00  0.00    -0.265 OA
ATOM     21  N7  XMP d           4.446  38.612  43.854  0.00  0.00    -0.234 NA
ATOM     22  C8  XMP d           4.880  39.847  43.825  0.00  0.00     0.071 A 
ATOM     23  H7  XMP d           5.487  40.235  43.008  0.00  0.00     0.144 H 
ENDBRANCH   3  10
BRANCH   4  24
ATOM     24  O2' XMP d           5.825  43.990  44.141  0.00  0.00    -0.388 OA
ATOM     25  H9  XMP d           5.586  44.764  43.643  0.00  0.00     0.210 HD
ENDBRANCH   4  24
BRANCH   1  26
ATOM     26  C5' XMP d           1.780  43.589  46.232  0.00  0.00     0.059 C 
ATOM     27  H1  XMP d           1.094  43.520  45.374  0.00  0.00     0.079 H 
ATOM     28  H2  XMP d           1.678  42.689  46.856  0.00  0.00     0.079 H 
BRANCH  26  29
ATOM     29  O5' XMP d           1.454  44.745  47.010  0.00  0.00    -0.280 OA
BRANCH  29  30
ATOM     30  P   XMP d           1.358  44.725  48.613  0.00  0.00     0.422 P 
ATOM     31  O1P XMP d           1.132  46.079  49.126  0.00  0.00    -0.617 OA
ATOM     32  O2P XMP d           2.674  44.170  49.087  0.00  0.00    -0.617 OA
ATOM     33  O3P XMP d           0.180  43.775  48.943  0.00  0.00    -0.617 OA
ENDBRANCH  29  30
ENDBRANCH  26  29
ENDBRANCH   1  26
BRANCH   5  34
ATOM     34  O3' XMP d           3.426  44.980  43.656  0.00  0.00    -0.390 OA
ATOM     35  H11 XMP d           4.131  45.048  43.023  0.00  0.00     0.210 HD
ENDBRANCH   5  34
TORSDOF 6
ENDMDL
