MODEL 1
REMARK VINA RESULT:      -6.9      0.000      0.000
REMARK  8 active torsions:
REMARK  status: ('A' for Active; 'I' for Inactive)
REMARK    1  A    between atoms: C15_7  and  S14_8 
REMARK    2  A    between atoms: S14_8  and  C13_11 
REMARK    3  A    between atoms: C13_11  and  C11_12 
REMARK    4  A    between atoms: C11_12  and  O11_13 
REMARK    5  A    between atoms: C11_12  and  C12_14 
REMARK    6  A    between atoms: C11_12  and  C10_15 
REMARK       I    between atoms: C10_15  and  N9_17 
REMARK    7  A    between atoms: N9_17  and  C1_18 
REMARK    8  A    between atoms: C3_25  and  C7_26 
ROOT
ATOM      1  C1  MOL d          28.107   3.191   5.501  0.00  0.00     0.035 A 
ATOM      2  C2  MOL d          26.779   2.858   5.758  0.00  0.00    -0.041 A 
ATOM      3  C6  MOL d          28.386   4.396   4.867  0.00  0.00    -0.056 A 
ATOM      4  C5  MOL d          27.344   5.247   4.512  0.00  0.00    -0.060 A 
ATOM      5  C4  MOL d          26.022   4.902   4.777  0.00  0.00     0.059 A 
ATOM      6  C8  MOL d          25.032   5.863   4.397  0.00  0.00     0.100 C 
ATOM      7  N8  MOL d          24.255   6.634   4.084  0.00  0.00    -0.191 NA
ATOM      8  C3  MOL d          25.713   3.688   5.401  0.00  0.00     0.070 A 
ATOM      9  H12 MOL d          26.563   1.919   6.255  0.00  0.00     0.088 H 
ATOM     10  H13 MOL d          29.412   4.672   4.650  0.00  0.00     0.087 H 
ATOM     11  H14 MOL d          27.565   6.189   4.024  0.00  0.00     0.086 H 
ENDROOT
BRANCH   8  12
ATOM     12  C7  MOL d          24.274   3.224   5.697  0.00  0.00     0.419 C 
ATOM     13  F7B MOL d          24.306   2.044   6.309  0.00  0.00    -0.166 F 
ATOM     14  F7C MOL d          23.575   4.054   6.465  0.00  0.00    -0.166 F 
ATOM     15  F7A MOL d          23.553   3.086   4.587  0.00  0.00    -0.166 F 
ENDBRANCH   8  12
BRANCH   1  16
ATOM     16  N9  MOL d          29.127   2.364   5.734  0.00  0.00    -0.325 N 
ATOM     17  C10 MOL d          29.351   1.693   6.862  0.00  0.00     0.257 C 
ATOM     18  O10 MOL d          28.716   1.835   7.906  0.00  0.00    -0.270 OA
ATOM     19  H11 MOL d          29.786   2.236   4.993  0.00  0.00     0.169 HD
BRANCH  17  20
ATOM     20  C11 MOL d          30.586   0.790   6.816  0.00  0.00     0.148 C 
BRANCH  20  21
ATOM     21  C13 MOL d          30.238  -0.549   6.160  0.00  0.00     0.070 C 
ATOM     22  H5  MOL d          31.089  -1.231   6.300  0.00  0.00     0.062 H 
ATOM     23  H6  MOL d          29.353  -0.959   6.668  0.00  0.00     0.062 H 
BRANCH  21  24
ATOM     24  S14 MOL d          29.874  -0.455   4.368  0.00  0.00     0.178 S 
ATOM     25  O14 MOL d          30.237  -1.748   3.700  0.00  0.00    -0.222 OA
ATOM     26  O15 MOL d          30.658   0.667   3.757  0.00  0.00    -0.222 OA
BRANCH  24  27
ATOM     27  C15 MOL d          28.164  -0.161   4.147  0.00  0.00     0.059 A 
ATOM     28  C16 MOL d          27.237  -0.723   5.020  0.00  0.00    -0.059 A 
ATOM     29  C17 MOL d          25.879  -0.469   4.851  0.00  0.00    -0.044 A 
ATOM     30  H1  MOL d          27.572  -1.358   5.832  0.00  0.00     0.085 H 
ATOM     31  C18 MOL d          25.451   0.348   3.808  0.00  0.00     0.116 A 
ATOM     32  H2  MOL d          25.155  -0.907   5.529  0.00  0.00     0.088 H 
ATOM     33  F18 MOL d          24.138   0.599   3.637  0.00  0.00    -0.206 F 
ATOM     34  C19 MOL d          26.378   0.909   2.936  0.00  0.00    -0.044 A 
ATOM     35  C20 MOL d          27.736   0.654   3.105  0.00  0.00    -0.059 A 
ATOM     36  H3  MOL d          26.043   1.545   2.124  0.00  0.00     0.088 H 
ATOM     37  H4  MOL d          28.459   1.090   2.424  0.00  0.00     0.085 H 
ENDBRANCH  24  27
ENDBRANCH  21  24
ENDBRANCH  20  21
BRANCH  20  38
ATOM     38  O11 MOL d          31.027   0.555   8.156  0.00  0.00    -0.380 OA
ATOM     39  H7  MOL d          30.279   0.342   8.702  0.00  0.00     0.211 HD
ENDBRANCH  20  38
BRANCH  20  40
ATOM     40  C12 MOL d          31.688   1.498   6.024  0.00  0.00    -0.038 C 
ATOM     41  H8  MOL d          32.502   0.788   5.815  0.00  0.00     0.032 H 
ATOM     42  H9  MOL d          32.078   2.340   6.613  0.00  0.00     0.032 H 
ATOM     43  H10 MOL d          31.275   1.873   5.076  0.00  0.00     0.032 H 
ENDBRANCH  20  40
ENDBRANCH  17  20
ENDBRANCH   1  16
TORSDOF 8
ENDMDL
MODEL 2
REMARK VINA RESULT:      -6.2      3.670      5.957
REMARK  8 active torsions:
REMARK  status: ('A' for Active; 'I' for Inactive)
REMARK    1  A    between atoms: C15_7  and  S14_8 
REMARK    2  A    between atoms: S14_8  and  C13_11 
REMARK    3  A    between atoms: C13_11  and  C11_12 
REMARK    4  A    between atoms: C11_12  and  O11_13 
REMARK    5  A    between atoms: C11_12  and  C12_14 
REMARK    6  A    between atoms: C11_12  and  C10_15 
REMARK       I    between atoms: C10_15  and  N9_17 
REMARK    7  A    between atoms: N9_17  and  C1_18 
REMARK    8  A    between atoms: C3_25  and  C7_26 
ROOT
ATOM      1  C1  MOL d          28.637   1.950   6.075  0.00  0.00     0.035 A 
ATOM      2  C2  MOL d          28.751   1.539   7.401  0.00  0.00    -0.041 A 
ATOM      3  C6  MOL d          29.745   1.841   5.242  0.00  0.00    -0.056 A 
ATOM      4  C5  MOL d          30.934   1.318   5.740  0.00  0.00    -0.060 A 
ATOM      5  C4  MOL d          31.032   0.911   7.067  0.00  0.00     0.059 A 
ATOM      6  C8  MOL d          32.292   0.361   7.466  0.00  0.00     0.100 C 
ATOM      7  N8  MOL d          33.301  -0.068   7.771  0.00  0.00    -0.191 NA
ATOM      8  C3  MOL d          29.936   1.023   7.930  0.00  0.00     0.070 A 
ATOM      9  H12 MOL d          27.885   1.623   8.049  0.00  0.00     0.088 H 
ATOM     10  H13 MOL d          29.682   2.161   4.208  0.00  0.00     0.087 H 
ATOM     11  H14 MOL d          31.794   1.228   5.086  0.00  0.00     0.086 H 
ENDROOT
BRANCH   8  12
ATOM     12  C7  MOL d          29.978   0.624   9.417  0.00  0.00     0.419 C 
ATOM     13  F7B MOL d          29.923  -0.700   9.523  0.00  0.00    -0.166 F 
ATOM     14  F7C MOL d          31.065   1.032  10.067  0.00  0.00    -0.166 F 
ATOM     15  F7A MOL d          28.954   1.129  10.101  0.00  0.00    -0.166 F 
ENDBRANCH   8  12
BRANCH   1  16
ATOM     16  N9  MOL d          27.550   2.545   5.583  0.00  0.00    -0.325 N 
ATOM     17  C10 MOL d          27.500   3.759   5.039  0.00  0.00     0.257 C 
ATOM     18  O10 MOL d          28.429   4.566   5.024  0.00  0.00    -0.270 OA
ATOM     19  H11 MOL d          26.692   2.032   5.626  0.00  0.00     0.169 HD
BRANCH  17  20
ATOM     20  C11 MOL d          26.113   4.155   4.525  0.00  0.00     0.148 C 
BRANCH  20  21
ATOM     21  C13 MOL d          25.658   3.188   3.429  0.00  0.00     0.070 C 
ATOM     22  H5  MOL d          24.857   3.675   2.853  0.00  0.00     0.062 H 
ATOM     23  H6  MOL d          26.515   2.991   2.769  0.00  0.00     0.062 H 
BRANCH  21  24
ATOM     24  S14 MOL d          25.026   1.581   4.036  0.00  0.00     0.178 S 
ATOM     25  O14 MOL d          23.849   1.146   3.213  0.00  0.00    -0.222 OA
ATOM     26  O15 MOL d          24.615   1.716   5.472  0.00  0.00    -0.222 OA
BRANCH  24  27
ATOM     27  C15 MOL d          26.290   0.381   3.900  0.00  0.00     0.059 A 
ATOM     28  C16 MOL d          27.255   0.488   2.902  0.00  0.00    -0.059 A 
ATOM     29  C17 MOL d          28.271  -0.460   2.811  0.00  0.00    -0.044 A 
ATOM     30  H1  MOL d          27.215   1.308   2.195  0.00  0.00     0.085 H 
ATOM     31  C18 MOL d          28.321  -1.511   3.722  0.00  0.00     0.116 A 
ATOM     32  H2  MOL d          29.022  -0.379   2.033  0.00  0.00     0.088 H 
ATOM     33  F18 MOL d          29.301  -2.433   3.641  0.00  0.00    -0.206 F 
ATOM     34  C19 MOL d          27.357  -1.617   4.720  0.00  0.00    -0.044 A 
ATOM     35  C20 MOL d          26.341  -0.671   4.808  0.00  0.00    -0.059 A 
ATOM     36  H3  MOL d          27.397  -2.438   5.428  0.00  0.00     0.088 H 
ATOM     37  H4  MOL d          25.589  -0.754   5.585  0.00  0.00     0.085 H 
ENDBRANCH  24  27
ENDBRANCH  21  24
ENDBRANCH  20  21
BRANCH  20  38
ATOM     38  O11 MOL d          26.191   5.477   3.983  0.00  0.00    -0.380 OA
ATOM     39  H7  MOL d          26.101   6.111   4.685  0.00  0.00     0.211 HD
ENDBRANCH  20  38
BRANCH  20  40
ATOM     40  C12 MOL d          25.127   4.133   5.695  0.00  0.00    -0.038 C 
ATOM     41  H8  MOL d          25.523   4.743   6.520  0.00  0.00     0.032 H 
ATOM     42  H9  MOL d          24.991   3.097   6.039  0.00  0.00     0.032 H 
ATOM     43  H10 MOL d          24.160   4.541   5.368  0.00  0.00     0.032 H 
ENDBRANCH  20  40
ENDBRANCH  17  20
ENDBRANCH   1  16
TORSDOF 8
ENDMDL
MODEL 3
REMARK VINA RESULT:      -5.9      3.428      6.146
REMARK  8 active torsions:
REMARK  status: ('A' for Active; 'I' for Inactive)
REMARK    1  A    between atoms: C15_7  and  S14_8 
REMARK    2  A    between atoms: S14_8  and  C13_11 
REMARK    3  A    between atoms: C13_11  and  C11_12 
REMARK    4  A    between atoms: C11_12  and  O11_13 
REMARK    5  A    between atoms: C11_12  and  C12_14 
REMARK    6  A    between atoms: C11_12  and  C10_15 
REMARK       I    between atoms: C10_15  and  N9_17 
REMARK    7  A    between atoms: N9_17  and  C1_18 
REMARK    8  A    between atoms: C3_25  and  C7_26 
ROOT
ATOM      1  C1  MOL d          30.246   0.240   6.413  0.00  0.00     0.035 A 
ATOM      2  C2  MOL d          29.531   0.528   7.573  0.00  0.00    -0.041 A 
ATOM      3  C6  MOL d          31.626   0.091   6.494  0.00  0.00    -0.056 A 
ATOM      4  C5  MOL d          32.263   0.222   7.724  0.00  0.00    -0.060 A 
ATOM      5  C4  MOL d          31.535   0.509   8.875  0.00  0.00     0.059 A 
ATOM      6  C8  MOL d          32.286   0.593  10.091  0.00  0.00     0.100 C 
ATOM      7  N8  MOL d          32.897   0.662  11.049  0.00  0.00    -0.191 NA
ATOM      8  C3  MOL d          30.148   0.678   8.818  0.00  0.00     0.070 A 
ATOM      9  H12 MOL d          28.455   0.642   7.508  0.00  0.00     0.088 H 
ATOM     10  H13 MOL d          32.204  -0.126   5.603  0.00  0.00     0.087 H 
ATOM     11  H14 MOL d          33.338   0.099   7.786  0.00  0.00     0.086 H 
ENDROOT
BRANCH   8  12
ATOM     12  C7  MOL d          29.280   1.028  10.042  0.00  0.00     0.419 C 
ATOM     13  F7B MOL d          28.905  -0.090  10.656  0.00  0.00    -0.166 F 
ATOM     14  F7C MOL d          29.885   1.796  10.944  0.00  0.00    -0.166 F 
ATOM     15  F7A MOL d          28.178   1.693   9.703  0.00  0.00    -0.166 F 
ENDBRANCH   8  12
BRANCH   1  16
ATOM     16  N9  MOL d          29.691   0.203   5.201  0.00  0.00    -0.325 N 
ATOM     17  C10 MOL d          28.514  -0.336   4.893  0.00  0.00     0.257 C 
ATOM     18  O10 MOL d          27.816  -0.996   5.663  0.00  0.00    -0.270 OA
ATOM     19  H11 MOL d          30.208   0.620   4.452  0.00  0.00     0.169 HD
BRANCH  17  20
ATOM     20  C11 MOL d          28.125  -0.188   3.420  0.00  0.00     0.148 C 
BRANCH  20  21
ATOM     21  C13 MOL d          27.480   1.179   3.177  0.00  0.00     0.070 C 
ATOM     22  H5  MOL d          27.971   1.911   3.836  0.00  0.00     0.062 H 
ATOM     23  H6  MOL d          27.653   1.458   2.127  0.00  0.00     0.062 H 
BRANCH  21  24
ATOM     24  S14 MOL d          25.678   1.247   3.495  0.00  0.00     0.178 S 
ATOM     25  O14 MOL d          25.305   0.251   4.553  0.00  0.00    -0.222 OA
ATOM     26  O15 MOL d          24.936   0.941   2.229  0.00  0.00    -0.222 OA
BRANCH  24  27
ATOM     27  C15 MOL d          25.255   2.851   4.048  0.00  0.00     0.059 A 
ATOM     28  C16 MOL d          24.028   3.080   4.664  0.00  0.00    -0.059 A 
ATOM     29  C17 MOL d          23.706   4.355   5.120  0.00  0.00    -0.044 A 
ATOM     30  H1  MOL d          23.324   2.266   4.789  0.00  0.00     0.085 H 
ATOM     31  C18 MOL d          24.613   5.398   4.961  0.00  0.00     0.116 A 
ATOM     32  H2  MOL d          22.750   4.535   5.599  0.00  0.00     0.088 H 
ATOM     33  F18 MOL d          24.309   6.635   5.400  0.00  0.00    -0.206 F 
ATOM     34  C19 MOL d          25.840   5.169   4.345  0.00  0.00    -0.044 A 
ATOM     35  C20 MOL d          26.160   3.894   3.888  0.00  0.00    -0.059 A 
ATOM     36  H3  MOL d          26.545   5.983   4.222  0.00  0.00     0.088 H 
ATOM     37  H4  MOL d          27.116   3.715   3.407  0.00  0.00     0.085 H 
ENDBRANCH  24  27
ENDBRANCH  21  24
ENDBRANCH  20  21
BRANCH  20  38
ATOM     38  O11 MOL d          27.185  -1.215   3.093  0.00  0.00    -0.380 OA
ATOM     39  H7  MOL d          26.356  -0.819   2.851  0.00  0.00     0.211 HD
ENDBRANCH  20  38
BRANCH  20  40
ATOM     40  C12 MOL d          29.381  -0.343   2.560  0.00  0.00    -0.038 C 
ATOM     41  H8  MOL d          29.100  -0.332   1.496  0.00  0.00     0.032 H 
ATOM     42  H9  MOL d          29.873  -1.296   2.799  0.00  0.00     0.032 H 
ATOM     43  H10 MOL d          30.071   0.488   2.765  0.00  0.00     0.032 H 
ENDBRANCH  20  40
ENDBRANCH  17  20
ENDBRANCH   1  16
TORSDOF 8
ENDMDL
MODEL 4
REMARK VINA RESULT:      -5.2      1.984      3.955
REMARK  8 active torsions:
REMARK  status: ('A' for Active; 'I' for Inactive)
REMARK    1  A    between atoms: C15_7  and  S14_8 
REMARK    2  A    between atoms: S14_8  and  C13_11 
REMARK    3  A    between atoms: C13_11  and  C11_12 
REMARK    4  A    between atoms: C11_12  and  O11_13 
REMARK    5  A    between atoms: C11_12  and  C12_14 
REMARK    6  A    between atoms: C11_12  and  C10_15 
REMARK       I    between atoms: C10_15  and  N9_17 
REMARK    7  A    between atoms: N9_17  and  C1_18 
REMARK    8  A    between atoms: C3_25  and  C7_26 
ROOT
ATOM      1  C1  MOL d          27.646   1.783   4.909  0.00  0.00     0.035 A 
ATOM      2  C2  MOL d          26.335   1.920   5.360  0.00  0.00    -0.041 A 
ATOM      3  C6  MOL d          28.314   2.908   4.436  0.00  0.00    -0.056 A 
ATOM      4  C5  MOL d          27.670   4.141   4.431  0.00  0.00    -0.060 A 
ATOM      5  C4  MOL d          26.361   4.263   4.887  0.00  0.00     0.059 A 
ATOM      6  C8  MOL d          25.806   5.582   4.866  0.00  0.00     0.100 C 
ATOM      7  N8  MOL d          25.376   6.635   4.837  0.00  0.00    -0.191 NA
ATOM      8  C3  MOL d          25.662   3.144   5.354  0.00  0.00     0.070 A 
ATOM      9  H12 MOL d          25.817   1.043   5.730  0.00  0.00     0.088 H 
ATOM     10  H13 MOL d          29.332   2.824   4.073  0.00  0.00     0.087 H 
ATOM     11  H14 MOL d          28.195   5.017   4.068  0.00  0.00     0.086 H 
ENDROOT
BRANCH   8  12
ATOM     12  C7  MOL d          24.202   3.194   5.843  0.00  0.00     0.419 C 
ATOM     13  F7B MOL d          23.556   2.109   5.426  0.00  0.00    -0.166 F 
ATOM     14  F7C MOL d          24.066   3.257   7.165  0.00  0.00    -0.166 F 
ATOM     15  F7A MOL d          23.552   4.257   5.376  0.00  0.00    -0.166 F 
ENDBRANCH   8  12
BRANCH   1  16
ATOM     16  N9  MOL d          28.266   0.607   4.803  0.00  0.00    -0.325 N 
ATOM     17  C10 MOL d          29.220   0.300   3.928  0.00  0.00     0.257 C 
ATOM     18  O10 MOL d          29.584   1.019   2.998  0.00  0.00    -0.270 OA
ATOM     19  H11 MOL d          27.989  -0.111   5.442  0.00  0.00     0.169 HD
BRANCH  17  20
ATOM     20  C11 MOL d          29.770  -1.121   4.077  0.00  0.00     0.148 C 
BRANCH  20  21
ATOM     21  C13 MOL d          30.430  -1.292   5.448  0.00  0.00     0.070 C 
ATOM     22  H5  MOL d          29.654  -1.600   6.165  0.00  0.00     0.062 H 
ATOM     23  H6  MOL d          31.188  -2.085   5.366  0.00  0.00     0.062 H 
BRANCH  21  24
ATOM     24  S14 MOL d          31.244   0.211   6.101  0.00  0.00     0.178 S 
ATOM     25  O14 MOL d          31.150   1.325   5.100  0.00  0.00    -0.222 OA
ATOM     26  O15 MOL d          32.685  -0.087   6.391  0.00  0.00    -0.222 OA
BRANCH  24  27
ATOM     27  C15 MOL d          30.442   0.702   7.575  0.00  0.00     0.059 A 
ATOM     28  C16 MOL d          29.769   1.919   7.636  0.00  0.00    -0.059 A 
ATOM     29  C17 MOL d          29.115   2.295   8.806  0.00  0.00    -0.044 A 
ATOM     30  H1  MOL d          29.755   2.575   6.774  0.00  0.00     0.085 H 
ATOM     31  C18 MOL d          29.133   1.450   9.912  0.00  0.00     0.116 A 
ATOM     32  H2  MOL d          28.592   3.243   8.856  0.00  0.00     0.088 H 
ATOM     33  F18 MOL d          28.502   1.806  11.049  0.00  0.00    -0.206 F 
ATOM     34  C19 MOL d          29.805   0.233   9.851  0.00  0.00    -0.044 A 
ATOM     35  C20 MOL d          30.460  -0.140   8.682  0.00  0.00    -0.059 A 
ATOM     36  H3  MOL d          29.819  -0.423  10.713  0.00  0.00     0.088 H 
ATOM     37  H4  MOL d          30.985  -1.088   8.633  0.00  0.00     0.085 H 
ENDBRANCH  24  27
ENDBRANCH  21  24
ENDBRANCH  20  21
BRANCH  20  38
ATOM     38  O11 MOL d          30.745  -1.340   3.055  0.00  0.00    -0.380 OA
ATOM     39  H7  MOL d          30.315  -1.664   2.272  0.00  0.00     0.211 HD
ENDBRANCH  20  38
BRANCH  20  40
ATOM     40  C12 MOL d          28.618  -2.116   3.915  0.00  0.00    -0.038 C 
ATOM     41  H8  MOL d          29.009  -3.143   3.976  0.00  0.00     0.032 H 
ATOM     42  H9  MOL d          28.139  -1.965   2.937  0.00  0.00     0.032 H 
ATOM     43  H10 MOL d          27.879  -1.957   4.714  0.00  0.00     0.032 H 
ENDBRANCH  20  40
ENDBRANCH  17  20
ENDBRANCH   1  16
TORSDOF 8
ENDMDL
