MODEL 1
REMARK VINA RESULT:      -8.1      0.000      0.000
REMARK  20 active torsions:
REMARK  status: ('A' for Active; 'I' for Inactive)
REMARK    1  A    between atoms: C3_3  and  C7_7 
REMARK    2  A    between atoms: C4_4  and  C27_27 
REMARK    3  A    between atoms: C7_7  and  C8_8 
REMARK    4  A    between atoms: C8_8  and  C9_9 
REMARK    5  A    between atoms: C9_9  and  C10_10 
REMARK    6  A    between atoms: C10_10  and  C11_11 
REMARK    7  A    between atoms: C11_11  and  C12_12 
REMARK    8  A    between atoms: C12_12  and  C13_13 
REMARK    9  A    between atoms: C13_13  and  C14_14 
REMARK   10  A    between atoms: C14_14  and  C15_15 
REMARK   11  A    between atoms: C15_15  and  C16_16 
REMARK       I    between atoms: C16_16  and  N17_17 
REMARK   12  A    between atoms: N17_17  and  C18_18 
REMARK   13  A    between atoms: C18_18  and  C20_20 
REMARK   14  A    between atoms: C18_18  and  C21_21 
REMARK   15  A    between atoms: C20_20  and  C23_23 
REMARK       I    between atoms: C21_21  and  N22_22 
REMARK   16  A    between atoms: N22_22  and  O32_32 
REMARK   17  A    between atoms: C23_23  and  C24_24 
REMARK   18  A    between atoms: C24_24  and  C25_25 
REMARK   19  A    between atoms: C25_25  and  N26_26 
REMARK   20  A    between atoms: C27_27  and  N28_28 
REMARK       I    between atoms: N28_28  and  C29_29 
REMARK       I    between atoms: C29_29  and  N30_30 
ROOT
ATOM      1  C12 FA4 d          28.919   5.161  14.613  0.00  0.00    -0.065 C 
ATOM      2  H15 FA4 d          29.132   6.001  15.291  0.00  0.00     0.033 H 
ATOM      3  H16 FA4 d          28.797   5.539  13.588  0.00  0.00     0.033 H 
ENDROOT
BRANCH   1   4
ATOM      4  C11 FA4 d          27.607   4.503  15.049  0.00  0.00    -0.065 C 
ATOM      5  H13 FA4 d          27.432   4.731  16.111  0.00  0.00     0.033 H 
ATOM      6  H14 FA4 d          26.786   4.918  14.446  0.00  0.00     0.033 H 
BRANCH   4   7
ATOM      7  C10 FA4 d          27.631   2.983  14.869  0.00  0.00    -0.065 C 
ATOM      8  H11 FA4 d          28.530   2.714  14.295  0.00  0.00     0.033 H 
ATOM      9  H12 FA4 d          27.677   2.515  15.863  0.00  0.00     0.033 H 
BRANCH   7  10
ATOM     10  C9  FA4 d          26.403   2.442  14.132  0.00  0.00    -0.065 C 
ATOM     11  H9  FA4 d          26.010   3.232  13.475  0.00  0.00     0.033 H 
ATOM     12  H10 FA4 d          26.710   1.578  13.524  0.00  0.00     0.033 H 
BRANCH  10  13
ATOM     13  C8  FA4 d          25.290   1.999  15.083  0.00  0.00    -0.061 C 
ATOM     14  H7  FA4 d          24.861   1.057  14.710  0.00  0.00     0.033 H 
ATOM     15  H8  FA4 d          25.724   1.835  16.081  0.00  0.00     0.033 H 
BRANCH  13  16
ATOM     16  C7  FA4 d          24.165   3.041  15.199  0.00  0.00    -0.040 C 
ATOM     17  H5  FA4 d          23.889   3.148  16.259  0.00  0.00     0.040 H 
ATOM     18  H6  FA4 d          24.536   4.005  14.819  0.00  0.00     0.040 H 
BRANCH  16  19
ATOM     19  C3  FA4 d          22.938   2.649  14.415  0.00  0.00    -0.050 A 
ATOM     20  C2  FA4 d          22.934   1.414  13.686  0.00  0.00    -0.076 A 
ATOM     21  C1  FA4 d          21.788   1.016  12.934  0.00  0.00    -0.082 A 
ATOM     22  H2  FA4 d          23.811   0.776  13.706  0.00  0.00     0.084 H 
ATOM     23  C6  FA4 d          20.622   1.844  12.888  0.00  0.00    -0.082 A 
ATOM     24  H1  FA4 d          21.801   0.076  12.393  0.00  0.00     0.083 H 
ATOM     25  C5  FA4 d          20.599   3.087  13.611  0.00  0.00    -0.075 A 
ATOM     26  H4  FA4 d          19.758   1.536  12.310  0.00  0.00     0.083 H 
ATOM     27  C4  FA4 d          21.746   3.504  14.375  0.00  0.00    -0.034 A 
ATOM     28  H3  FA4 d          19.715   3.713  13.580  0.00  0.00     0.084 H 
BRANCH  27  29
ATOM     29  C27 FA4 d          21.630   4.827  15.111  0.00  0.00     0.033 C 
ATOM     30  H37 FA4 d          22.635   5.166  15.401  0.00  0.00     0.072 H 
ATOM     31  H38 FA4 d          21.017   4.684  16.012  0.00  0.00     0.072 H 
BRANCH  29  32
ATOM     32  N28 FA4 d          21.004   5.852  14.264  0.00  0.00    -0.223 N 
ATOM     33  C29 FA4 d          21.768   6.623  13.414  0.00  0.00     0.665 C 
ATOM     34  N30 FA4 d          21.225   7.104  12.301  0.00  0.00    -0.235 N 
ATOM     35  N31 FA4 d          23.053   6.895  13.687  0.00  0.00    -0.235 N 
ATOM     36  H40 FA4 d          21.789   7.681  11.661  0.00  0.00     0.174 HD
ATOM     37  H41 FA4 d          20.241   6.899  12.079  0.00  0.00     0.174 HD
ATOM     38  H42 FA4 d          23.485   6.528  14.547  0.00  0.00     0.174 HD
ATOM     39  H43 FA4 d          23.607   7.470  13.037  0.00  0.00     0.174 HD
ATOM     40  H39 FA4 d          19.985   5.995  14.305  0.00  0.00     0.178 HD
ENDBRANCH  29  32
ENDBRANCH  27  29
ENDBRANCH  16  19
ENDBRANCH  13  16
ENDBRANCH  10  13
ENDBRANCH   7  10
ENDBRANCH   4   7
ENDBRANCH   1   4
BRANCH   1  41
ATOM     41  C13 FA4 d          30.107   4.205  14.639  0.00  0.00    -0.065 C 
ATOM     42  H17 FA4 d          30.397   3.976  13.603  0.00  0.00     0.033 H 
ATOM     43  H18 FA4 d          29.801   3.279  15.147  0.00  0.00     0.033 H 
BRANCH  41  44
ATOM     44  C14 FA4 d          31.320   4.789  15.370  0.00  0.00    -0.057 C 
ATOM     45  H19 FA4 d          32.001   5.221  14.621  0.00  0.00     0.033 H 
ATOM     46  H20 FA4 d          31.831   3.973  15.903  0.00  0.00     0.033 H 
BRANCH  44  47
ATOM     47  C15 FA4 d          30.964   5.878  16.382  0.00  0.00     0.009 C 
ATOM     48  H21 FA4 d          30.948   5.441  17.392  0.00  0.00     0.047 H 
ATOM     49  H22 FA4 d          29.969   6.282  16.142  0.00  0.00     0.047 H 
BRANCH  47  50
ATOM     50  C16 FA4 d          31.991   7.018  16.345  0.00  0.00     0.218 C 
ATOM     51  N17 FA4 d          32.024   7.607  15.129  0.00  0.00    -0.348 N 
ATOM     52  H23 FA4 d          31.423   7.265  14.406  0.00  0.00     0.163 HD
ATOM     53  O19 FA4 d          32.669   7.317  17.332  0.00  0.00    -0.274 OA
BRANCH  51  54
ATOM     54  C18 FA4 d          32.907   8.721  14.843  0.00  0.00     0.091 C 
ATOM     55  H24 FA4 d          33.584   8.883  15.694  0.00  0.00     0.087 H 
BRANCH  54  56
ATOM     56  C20 FA4 d          32.035   9.964  14.647  0.00  0.00    -0.038 C 
ATOM     57  H25 FA4 d          31.017   9.637  14.389  0.00  0.00     0.036 H 
ATOM     58  H26 FA4 d          32.453  10.553  13.816  0.00  0.00     0.036 H 
BRANCH  56  59
ATOM     59  C23 FA4 d          31.955  10.859  15.879  0.00  0.00    -0.061 C 
ATOM     60  H28 FA4 d          32.640  10.470  16.647  0.00  0.00     0.033 H 
ATOM     61  H29 FA4 d          30.925  10.843  16.264  0.00  0.00     0.033 H 
BRANCH  59  62
ATOM     62  C24 FA4 d          32.341  12.303  15.559  0.00  0.00    -0.043 C 
ATOM     63  H30 FA4 d          33.327  12.305  15.071  0.00  0.00     0.035 H 
ATOM     64  H31 FA4 d          32.397  12.871  16.499  0.00  0.00     0.035 H 
BRANCH  62  65
ATOM     65  C25 FA4 d          31.334  12.986  14.632  0.00  0.00     0.080 C 
ATOM     66  H32 FA4 d          30.785  13.746  15.207  0.00  0.00     0.075 H 
ATOM     67  H33 FA4 d          30.628  12.228  14.259  0.00  0.00     0.075 H 
BRANCH  65  68
ATOM     68  N26 FA4 d          31.971  13.632  13.492  0.00  0.00    -0.079 N 
ATOM     69  H34 FA4 d          32.972  13.609  13.609  0.00  0.00     0.274 HD
ATOM     70  H35 FA4 d          31.663  14.590  13.434  0.00  0.00     0.274 HD
ATOM     71  H36 FA4 d          31.721  13.146  12.646  0.00  0.00     0.274 HD
ENDBRANCH  65  68
ENDBRANCH  62  65
ENDBRANCH  59  62
ENDBRANCH  56  59
ENDBRANCH  54  56
BRANCH  54  72
ATOM     72  C21 FA4 d          33.746   8.422  13.588  0.00  0.00     0.263 C 
ATOM     73  N22 FA4 d          33.638   7.159  13.152  0.00  0.00    -0.236 N 
ATOM     74  H27 FA4 d          33.054   6.506  13.635  0.00  0.00     0.197 HD
ATOM     75  O33 FA4 d          34.433   9.288  13.056  0.00  0.00    -0.269 OA
BRANCH  73  76
ATOM     76  O32 FA4 d          34.349   6.760  12.017  0.00  0.00    -0.287 OA
ATOM     77  H44 FA4 d          35.190   6.405  12.280  0.00  0.00     0.244 HD
ENDBRANCH  73  76
ENDBRANCH  54  72
ENDBRANCH  51  54
ENDBRANCH  47  50
ENDBRANCH  44  47
ENDBRANCH  41  44
ENDBRANCH   1  41
TORSDOF 20
ENDMDL
MODEL 2
REMARK VINA RESULT:      -8.0      1.575      1.978
REMARK  20 active torsions:
REMARK  status: ('A' for Active; 'I' for Inactive)
REMARK    1  A    between atoms: C3_3  and  C7_7 
REMARK    2  A    between atoms: C4_4  and  C27_27 
REMARK    3  A    between atoms: C7_7  and  C8_8 
REMARK    4  A    between atoms: C8_8  and  C9_9 
REMARK    5  A    between atoms: C9_9  and  C10_10 
REMARK    6  A    between atoms: C10_10  and  C11_11 
REMARK    7  A    between atoms: C11_11  and  C12_12 
REMARK    8  A    between atoms: C12_12  and  C13_13 
REMARK    9  A    between atoms: C13_13  and  C14_14 
REMARK   10  A    between atoms: C14_14  and  C15_15 
REMARK   11  A    between atoms: C15_15  and  C16_16 
REMARK       I    between atoms: C16_16  and  N17_17 
REMARK   12  A    between atoms: N17_17  and  C18_18 
REMARK   13  A    between atoms: C18_18  and  C20_20 
REMARK   14  A    between atoms: C18_18  and  C21_21 
REMARK   15  A    between atoms: C20_20  and  C23_23 
REMARK       I    between atoms: C21_21  and  N22_22 
REMARK   16  A    between atoms: N22_22  and  O32_32 
REMARK   17  A    between atoms: C23_23  and  C24_24 
REMARK   18  A    between atoms: C24_24  and  C25_25 
REMARK   19  A    between atoms: C25_25  and  N26_26 
REMARK   20  A    between atoms: C27_27  and  N28_28 
REMARK       I    between atoms: N28_28  and  C29_29 
REMARK       I    between atoms: C29_29  and  N30_30 
ROOT
ATOM      1  C12 FA4 d          29.871   4.828  15.768  0.00  0.00    -0.065 C 
ATOM      2  H15 FA4 d          30.928   5.128  15.721  0.00  0.00     0.033 H 
ATOM      3  H16 FA4 d          29.680   4.305  16.716  0.00  0.00     0.033 H 
ENDROOT
BRANCH   1   4
ATOM      4  C11 FA4 d          29.587   3.863  14.614  0.00  0.00    -0.065 C 
ATOM      5  H13 FA4 d          30.168   4.181  13.735  0.00  0.00     0.033 H 
ATOM      6  H14 FA4 d          29.900   2.852  14.913  0.00  0.00     0.033 H 
BRANCH   4   7
ATOM      7  C10 FA4 d          28.103   3.828  14.238  0.00  0.00    -0.065 C 
ATOM      8  H11 FA4 d          27.667   4.816  14.447  0.00  0.00     0.033 H 
ATOM      9  H12 FA4 d          28.021   3.610  13.163  0.00  0.00     0.033 H 
BRANCH   7  10
ATOM     10  C9  FA4 d          27.308   2.771  15.010  0.00  0.00    -0.065 C 
ATOM     11  H9  FA4 d          27.965   1.909  15.203  0.00  0.00     0.033 H 
ATOM     12  H10 FA4 d          26.982   3.205  15.966  0.00  0.00     0.033 H 
BRANCH  10  13
ATOM     13  C8  FA4 d          26.075   2.285  14.248  0.00  0.00    -0.061 C 
ATOM     14  H7  FA4 d          26.240   2.443  13.172  0.00  0.00     0.033 H 
ATOM     15  H8  FA4 d          25.939   1.211  14.445  0.00  0.00     0.033 H 
BRANCH  13  16
ATOM     16  C7  FA4 d          24.795   3.029  14.666  0.00  0.00    -0.040 C 
ATOM     17  H5  FA4 d          24.538   2.741  15.696  0.00  0.00     0.040 H 
ATOM     18  H6  FA4 d          24.985   4.112  14.624  0.00  0.00     0.040 H 
BRANCH  16  19
ATOM     19  C3  FA4 d          23.627   2.707  13.767  0.00  0.00    -0.050 A 
ATOM     20  C2  FA4 d          22.993   1.425  13.870  0.00  0.00    -0.076 A 
ATOM     21  C1  FA4 d          21.885   1.091  13.033  0.00  0.00    -0.082 A 
ATOM     22  H2  FA4 d          23.357   0.702  14.591  0.00  0.00     0.084 H 
ATOM     23  C6  FA4 d          21.390   2.027  12.070  0.00  0.00    -0.082 A 
ATOM     24  H1  FA4 d          21.415   0.118  13.128  0.00  0.00     0.083 H 
ATOM     25  C5  FA4 d          22.008   3.320  11.947  0.00  0.00    -0.075 A 
ATOM     26  H4  FA4 d          20.552   1.762  11.435  0.00  0.00     0.083 H 
ATOM     27  C4  FA4 d          23.124   3.674  12.784  0.00  0.00    -0.034 A 
ATOM     28  H3  FA4 d          21.630   4.031  11.221  0.00  0.00     0.084 H 
BRANCH  27  29
ATOM     29  C27 FA4 d          23.708   5.062  12.589  0.00  0.00     0.033 C 
ATOM     30  H37 FA4 d          23.321   5.486  11.651  0.00  0.00     0.072 H 
ATOM     31  H38 FA4 d          24.804   4.985  12.531  0.00  0.00     0.072 H 
BRANCH  29  32
ATOM     32  N28 FA4 d          23.348   5.951  13.701  0.00  0.00    -0.223 N 
ATOM     33  C29 FA4 d          22.159   6.649  13.686  0.00  0.00     0.665 C 
ATOM     34  N30 FA4 d          21.575   6.970  14.834  0.00  0.00    -0.235 N 
ATOM     35  N31 FA4 d          21.577   7.007  12.532  0.00  0.00    -0.235 N 
ATOM     36  H40 FA4 d          20.686   7.492  14.832  0.00  0.00     0.174 HD
ATOM     37  H41 FA4 d          22.010   6.698  15.727  0.00  0.00     0.174 HD
ATOM     38  H42 FA4 d          22.021   6.763  11.635  0.00  0.00     0.174 HD
ATOM     39  H43 FA4 d          20.688   7.525  12.542  0.00  0.00     0.174 HD
ATOM     40  H39 FA4 d          23.990   6.053  14.500  0.00  0.00     0.178 HD
ENDBRANCH  29  32
ENDBRANCH  27  29
ENDBRANCH  16  19
ENDBRANCH  13  16
ENDBRANCH  10  13
ENDBRANCH   7  10
ENDBRANCH   4   7
ENDBRANCH   1   4
BRANCH   1  41
ATOM     41  C13 FA4 d          29.009   6.085  15.725  0.00  0.00    -0.065 C 
ATOM     42  H17 FA4 d          28.174   5.963  16.432  0.00  0.00     0.033 H 
ATOM     43  H18 FA4 d          28.612   6.204  14.706  0.00  0.00     0.033 H 
BRANCH  41  44
ATOM     44  C14 FA4 d          29.788   7.350  16.100  0.00  0.00    -0.057 C 
ATOM     45  H19 FA4 d          29.079   8.085  16.509  0.00  0.00     0.033 H 
ATOM     46  H20 FA4 d          30.252   7.755  15.189  0.00  0.00     0.033 H 
BRANCH  44  47
ATOM     47  C15 FA4 d          30.888   7.112  17.136  0.00  0.00     0.009 C 
ATOM     48  H21 FA4 d          30.755   6.113  17.579  0.00  0.00     0.047 H 
ATOM     49  H22 FA4 d          30.811   7.876  17.924  0.00  0.00     0.047 H 
BRANCH  47  50
ATOM     50  C16 FA4 d          32.277   7.195  16.488  0.00  0.00     0.218 C 
ATOM     51  N17 FA4 d          32.444   8.368  15.839  0.00  0.00    -0.348 N 
ATOM     52  H23 FA4 d          31.695   9.031  15.830  0.00  0.00     0.163 HD
ATOM     53  O19 FA4 d          33.096   6.278  16.586  0.00  0.00    -0.274 OA
BRANCH  51  54
ATOM     54  C18 FA4 d          33.681   8.692  15.155  0.00  0.00     0.091 C 
ATOM     55  H24 FA4 d          34.504   8.100  15.580  0.00  0.00     0.087 H 
BRANCH  54  56
ATOM     56  C20 FA4 d          33.959  10.181  15.380  0.00  0.00    -0.038 C 
ATOM     57  H25 FA4 d          33.411  10.755  14.619  0.00  0.00     0.036 H 
ATOM     58  H26 FA4 d          35.039  10.354  15.264  0.00  0.00     0.036 H 
BRANCH  56  59
ATOM     59  C23 FA4 d          33.537  10.682  16.757  0.00  0.00    -0.061 C 
ATOM     60  H28 FA4 d          34.394  11.184  17.231  0.00  0.00     0.033 H 
ATOM     61  H29 FA4 d          33.230   9.823  17.371  0.00  0.00     0.033 H 
BRANCH  59  62
ATOM     62  C24 FA4 d          32.373  11.669  16.670  0.00  0.00    -0.043 C 
ATOM     63  H30 FA4 d          32.010  11.697  15.632  0.00  0.00     0.035 H 
ATOM     64  H31 FA4 d          32.733  12.667  16.960  0.00  0.00     0.035 H 
BRANCH  62  65
ATOM     65  C25 FA4 d          31.210  11.281  17.586  0.00  0.00     0.080 C 
ATOM     66  H32 FA4 d          31.004  12.119  18.268  0.00  0.00     0.075 H 
ATOM     67  H33 FA4 d          31.501  10.396  18.170  0.00  0.00     0.075 H 
BRANCH  65  68
ATOM     68  N26 FA4 d          29.993  10.974  16.844  0.00  0.00    -0.079 N 
ATOM     69  H34 FA4 d          30.063  11.351  15.912  0.00  0.00     0.274 HD
ATOM     70  H35 FA4 d          29.201  11.383  17.314  0.00  0.00     0.274 HD
ATOM     71  H36 FA4 d          29.874   9.974  16.793  0.00  0.00     0.274 HD
ENDBRANCH  65  68
ENDBRANCH  62  65
ENDBRANCH  59  62
ENDBRANCH  56  59
ENDBRANCH  54  56
BRANCH  54  72
ATOM     72  C21 FA4 d          33.556   8.367  13.656  0.00  0.00     0.263 C 
ATOM     73  N22 FA4 d          34.476   8.971  12.891  0.00  0.00    -0.236 N 
ATOM     74  H27 FA4 d          35.161   9.572  13.304  0.00  0.00     0.197 HD
ATOM     75  O33 FA4 d          32.685   7.613  13.236  0.00  0.00    -0.269 OA
BRANCH  73  76
ATOM     76  O32 FA4 d          34.471   8.755  11.510  0.00  0.00    -0.287 OA
ATOM     77  H44 FA4 d          33.583   8.833  11.181  0.00  0.00     0.244 HD
ENDBRANCH  73  76
ENDBRANCH  54  72
ENDBRANCH  51  54
ENDBRANCH  47  50
ENDBRANCH  44  47
ENDBRANCH  41  44
ENDBRANCH   1  41
TORSDOF 20
ENDMDL
MODEL 3
REMARK VINA RESULT:      -7.8      4.159     10.950
REMARK  20 active torsions:
REMARK  status: ('A' for Active; 'I' for Inactive)
REMARK    1  A    between atoms: C3_3  and  C7_7 
REMARK    2  A    between atoms: C4_4  and  C27_27 
REMARK    3  A    between atoms: C7_7  and  C8_8 
REMARK    4  A    between atoms: C8_8  and  C9_9 
REMARK    5  A    between atoms: C9_9  and  C10_10 
REMARK    6  A    between atoms: C10_10  and  C11_11 
REMARK    7  A    between atoms: C11_11  and  C12_12 
REMARK    8  A    between atoms: C12_12  and  C13_13 
REMARK    9  A    between atoms: C13_13  and  C14_14 
REMARK   10  A    between atoms: C14_14  and  C15_15 
REMARK   11  A    between atoms: C15_15  and  C16_16 
REMARK       I    between atoms: C16_16  and  N17_17 
REMARK   12  A    between atoms: N17_17  and  C18_18 
REMARK   13  A    between atoms: C18_18  and  C20_20 
REMARK   14  A    between atoms: C18_18  and  C21_21 
REMARK   15  A    between atoms: C20_20  and  C23_23 
REMARK       I    between atoms: C21_21  and  N22_22 
REMARK   16  A    between atoms: N22_22  and  O32_32 
REMARK   17  A    between atoms: C23_23  and  C24_24 
REMARK   18  A    between atoms: C24_24  and  C25_25 
REMARK   19  A    between atoms: C25_25  and  N26_26 
REMARK   20  A    between atoms: C27_27  and  N28_28 
REMARK       I    between atoms: N28_28  and  C29_29 
REMARK       I    between atoms: C29_29  and  N30_30 
ROOT
ATOM      1  C12 FA4 d          26.704   4.839  13.971  0.00  0.00    -0.065 C 
ATOM      2  H15 FA4 d          26.351   5.606  13.265  0.00  0.00     0.033 H 
ATOM      3  H16 FA4 d          26.066   4.845  14.866  0.00  0.00     0.033 H 
ENDROOT
BRANCH   1   4
ATOM      4  C11 FA4 d          28.136   5.185  14.390  0.00  0.00    -0.065 C 
ATOM      5  H13 FA4 d          28.815   4.948  13.557  0.00  0.00     0.033 H 
ATOM      6  H14 FA4 d          28.189   6.261  14.611  0.00  0.00     0.033 H 
BRANCH   4   7
ATOM      7  C10 FA4 d          28.582   4.404  15.628  0.00  0.00    -0.065 C 
ATOM      8  H11 FA4 d          28.378   5.016  16.519  0.00  0.00     0.033 H 
ATOM      9  H12 FA4 d          28.001   3.472  15.682  0.00  0.00     0.033 H 
BRANCH   7  10
ATOM     10  C9  FA4 d          30.072   4.048  15.614  0.00  0.00    -0.065 C 
ATOM     11  H9  FA4 d          30.449   4.071  16.647  0.00  0.00     0.033 H 
ATOM     12  H10 FA4 d          30.187   3.034  15.204  0.00  0.00     0.033 H 
BRANCH  10  13
ATOM     13  C8  FA4 d          30.903   5.014  14.769  0.00  0.00    -0.061 C 
ATOM     14  H7  FA4 d          31.430   4.440  13.992  0.00  0.00     0.033 H 
ATOM     15  H8  FA4 d          30.225   5.739  14.293  0.00  0.00     0.033 H 
BRANCH  13  16
ATOM     16  C7  FA4 d          31.940   5.784  15.604  0.00  0.00    -0.040 C 
ATOM     17  H5  FA4 d          32.298   5.130  16.413  0.00  0.00     0.040 H 
ATOM     18  H6  FA4 d          32.784   6.058  14.954  0.00  0.00     0.040 H 
BRANCH  16  19
ATOM     19  C3  FA4 d          31.368   7.039  16.211  0.00  0.00    -0.050 A 
ATOM     20  C2  FA4 d          30.835   6.997  17.542  0.00  0.00    -0.076 A 
ATOM     21  C1  FA4 d          30.286   8.170  18.145  0.00  0.00    -0.082 A 
ATOM     22  H2  FA4 d          30.849   6.066  18.097  0.00  0.00     0.084 H 
ATOM     23  C6  FA4 d          30.251   9.409  17.429  0.00  0.00    -0.082 A 
ATOM     24  H1  FA4 d          29.891   8.120  19.153  0.00  0.00     0.083 H 
ATOM     25  C5  FA4 d          30.780   9.479  16.094  0.00  0.00    -0.075 A 
ATOM     26  H4  FA4 d          29.828  10.293  17.893  0.00  0.00     0.083 H 
ATOM     27  C4  FA4 d          31.339   8.307  15.472  0.00  0.00    -0.034 A 
ATOM     28  H3  FA4 d          30.758  10.419  15.553  0.00  0.00     0.084 H 
BRANCH  27  29
ATOM     29  C27 FA4 d          31.879   8.476  14.063  0.00  0.00     0.033 C 
ATOM     30  H37 FA4 d          31.359   9.315  13.578  0.00  0.00     0.072 H 
ATOM     31  H38 FA4 d          31.694   7.553  13.495  0.00  0.00     0.072 H 
BRANCH  29  32
ATOM     32  N28 FA4 d          33.322   8.749  14.077  0.00  0.00    -0.223 N 
ATOM     33  C29 FA4 d          34.170   8.089  13.213  0.00  0.00     0.665 C 
ATOM     34  N30 FA4 d          35.291   8.681  12.817  0.00  0.00    -0.235 N 
ATOM     35  N31 FA4 d          33.883   6.860  12.760  0.00  0.00    -0.235 N 
ATOM     36  H40 FA4 d          35.931   8.195  12.172  0.00  0.00     0.174 HD
ATOM     37  H41 FA4 d          35.520   9.627  13.155  0.00  0.00     0.174 HD
ATOM     38  H42 FA4 d          33.016   6.390  13.060  0.00  0.00     0.174 HD
ATOM     39  H43 FA4 d          34.528   6.385  12.113  0.00  0.00     0.174 HD
ATOM     40  H39 FA4 d          33.703   9.441  14.738  0.00  0.00     0.178 HD
ENDBRANCH  29  32
ENDBRANCH  27  29
ENDBRANCH  16  19
ENDBRANCH  13  16
ENDBRANCH  10  13
ENDBRANCH   7  10
ENDBRANCH   4   7
ENDBRANCH   1   4
BRANCH   1  41
ATOM     41  C13 FA4 d          26.588   3.474  13.301  0.00  0.00    -0.065 C 
ATOM     42  H17 FA4 d          27.578   2.996  13.304  0.00  0.00     0.033 H 
ATOM     43  H18 FA4 d          26.253   3.619  12.264  0.00  0.00     0.033 H 
BRANCH  41  44
ATOM     44  C14 FA4 d          25.594   2.549  14.013  0.00  0.00    -0.057 C 
ATOM     45  H19 FA4 d          26.137   1.656  14.356  0.00  0.00     0.033 H 
ATOM     46  H20 FA4 d          24.818   2.252  13.292  0.00  0.00     0.033 H 
BRANCH  44  47
ATOM     47  C15 FA4 d          24.910   3.192  15.220  0.00  0.00     0.009 C 
ATOM     48  H21 FA4 d          25.393   4.156  15.437  0.00  0.00     0.047 H 
ATOM     49  H22 FA4 d          25.013   2.526  16.090  0.00  0.00     0.047 H 
BRANCH  47  50
ATOM     50  C16 FA4 d          23.418   3.428  14.942  0.00  0.00     0.218 C 
ATOM     51  N17 FA4 d          23.234   4.502  14.143  0.00  0.00    -0.348 N 
ATOM     52  H23 FA4 d          24.031   5.019  13.831  0.00  0.00     0.163 HD
ATOM     53  O19 FA4 d          22.545   2.694  15.413  0.00  0.00    -0.274 OA
BRANCH  51  54
ATOM     54  C18 FA4 d          21.911   4.924  13.725  0.00  0.00     0.091 C 
ATOM     55  H24 FA4 d          21.151   4.315  14.235  0.00  0.00     0.087 H 
BRANCH  54  56
ATOM     56  C20 FA4 d          21.809   4.701  12.214  0.00  0.00    -0.038 C 
ATOM     57  H25 FA4 d          22.471   5.421  11.711  0.00  0.00     0.036 H 
ATOM     58  H26 FA4 d          20.769   4.881  11.906  0.00  0.00     0.036 H 
BRANCH  56  59
ATOM     59  C23 FA4 d          22.205   3.296  11.773  0.00  0.00    -0.061 C 
ATOM     60  H28 FA4 d          22.449   2.698  12.664  0.00  0.00     0.033 H 
ATOM     61  H29 FA4 d          23.091   3.362  11.124  0.00  0.00     0.033 H 
BRANCH  59  62
ATOM     62  C24 FA4 d          21.080   2.603  11.005  0.00  0.00    -0.043 C 
ATOM     63  H30 FA4 d          21.496   2.171  10.083  0.00  0.00     0.035 H 
ATOM     64  H31 FA4 d          20.316   3.350  10.747  0.00  0.00     0.035 H 
BRANCH  62  65
ATOM     65  C25 FA4 d          20.421   1.486  11.817  0.00  0.00     0.080 C 
ATOM     66  H32 FA4 d          20.355   0.586  11.189  0.00  0.00     0.075 H 
ATOM     67  H33 FA4 d          19.408   1.809  12.103  0.00  0.00     0.075 H 
BRANCH  65  68
ATOM     68  N26 FA4 d          21.167   1.158  13.025  0.00  0.00    -0.079 N 
ATOM     69  H34 FA4 d          21.674   0.299  12.885  0.00  0.00     0.274 HD
ATOM     70  H35 FA4 d          20.526   1.048  13.796  0.00  0.00     0.274 HD
ATOM     71  H36 FA4 d          21.816   1.901  13.232  0.00  0.00     0.274 HD
ENDBRANCH  65  68
ENDBRANCH  62  65
ENDBRANCH  59  62
ENDBRANCH  56  59
ENDBRANCH  54  56
BRANCH  54  72
ATOM     72  C21 FA4 d          21.690   6.403  14.088  0.00  0.00     0.263 C 
ATOM     73  N22 FA4 d          21.516   6.620  15.400  0.00  0.00    -0.236 N 
ATOM     74  H27 FA4 d          21.534   5.855  16.044  0.00  0.00     0.197 HD
ATOM     75  O33 FA4 d          21.688   7.279  13.230  0.00  0.00    -0.269 OA
BRANCH  73  76
ATOM     76  O32 FA4 d          21.308   7.923  15.860  0.00  0.00    -0.287 OA
ATOM     77  H44 FA4 d          20.375   8.102  15.889  0.00  0.00     0.244 HD
ENDBRANCH  73  76
ENDBRANCH  54  72
ENDBRANCH  51  54
ENDBRANCH  47  50
ENDBRANCH  44  47
ENDBRANCH  41  44
ENDBRANCH   1  41
TORSDOF 20
ENDMDL
MODEL 4
REMARK VINA RESULT:      -7.2      3.963     11.097
REMARK  20 active torsions:
REMARK  status: ('A' for Active; 'I' for Inactive)
REMARK    1  A    between atoms: C3_3  and  C7_7 
REMARK    2  A    between atoms: C4_4  and  C27_27 
REMARK    3  A    between atoms: C7_7  and  C8_8 
REMARK    4  A    between atoms: C8_8  and  C9_9 
REMARK    5  A    between atoms: C9_9  and  C10_10 
REMARK    6  A    between atoms: C10_10  and  C11_11 
REMARK    7  A    between atoms: C11_11  and  C12_12 
REMARK    8  A    between atoms: C12_12  and  C13_13 
REMARK    9  A    between atoms: C13_13  and  C14_14 
REMARK   10  A    between atoms: C14_14  and  C15_15 
REMARK   11  A    between atoms: C15_15  and  C16_16 
REMARK       I    between atoms: C16_16  and  N17_17 
REMARK   12  A    between atoms: N17_17  and  C18_18 
REMARK   13  A    between atoms: C18_18  and  C20_20 
REMARK   14  A    between atoms: C18_18  and  C21_21 
REMARK   15  A    between atoms: C20_20  and  C23_23 
REMARK       I    between atoms: C21_21  and  N22_22 
REMARK   16  A    between atoms: N22_22  and  O32_32 
REMARK   17  A    between atoms: C23_23  and  C24_24 
REMARK   18  A    between atoms: C24_24  and  C25_25 
REMARK   19  A    between atoms: C25_25  and  N26_26 
REMARK   20  A    between atoms: C27_27  and  N28_28 
REMARK       I    between atoms: N28_28  and  C29_29 
REMARK       I    between atoms: C29_29  and  N30_30 
ROOT
ATOM      1  C12 FA4 d          28.791   4.948  14.942  0.00  0.00    -0.065 C 
ATOM      2  H15 FA4 d          29.054   5.566  14.071  0.00  0.00     0.033 H 
ATOM      3  H16 FA4 d          27.766   5.184  15.264  0.00  0.00     0.033 H 
ENDROOT
BRANCH   1   4
ATOM      4  C11 FA4 d          29.750   5.285  16.087  0.00  0.00    -0.065 C 
ATOM      5  H13 FA4 d          29.718   6.371  16.267  0.00  0.00     0.033 H 
ATOM      6  H14 FA4 d          29.422   4.754  16.992  0.00  0.00     0.033 H 
BRANCH   4   7
ATOM      7  C10 FA4 d          31.193   4.880  15.773  0.00  0.00    -0.065 C 
ATOM      8  H11 FA4 d          31.485   4.072  16.460  0.00  0.00     0.033 H 
ATOM      9  H12 FA4 d          31.235   4.514  14.737  0.00  0.00     0.033 H 
BRANCH   7  10
ATOM     10  C9  FA4 d          32.191   6.032  15.924  0.00  0.00    -0.065 C 
ATOM     11  H9  FA4 d          33.139   5.628  16.310  0.00  0.00     0.033 H 
ATOM     12  H10 FA4 d          32.359   6.483  14.935  0.00  0.00     0.033 H 
BRANCH  10  13
ATOM     13  C8  FA4 d          31.699   7.120  16.880  0.00  0.00    -0.061 C 
ATOM     14  H7  FA4 d          30.799   7.585  16.451  0.00  0.00     0.033 H 
ATOM     15  H8  FA4 d          31.447   6.654  17.844  0.00  0.00     0.033 H 
BRANCH  13  16
ATOM     16  C7  FA4 d          32.753   8.213  17.120  0.00  0.00    -0.040 C 
ATOM     17  H5  FA4 d          32.799   8.429  18.198  0.00  0.00     0.040 H 
ATOM     18  H6  FA4 d          33.731   7.843  16.778  0.00  0.00     0.040 H 
BRANCH  16  19
ATOM     19  C3  FA4 d          32.433   9.489  16.383  0.00  0.00    -0.050 A 
ATOM     20  C2  FA4 d          31.294  10.265  16.781  0.00  0.00    -0.076 A 
ATOM     21  C1  FA4 d          30.965  11.477  16.102  0.00  0.00    -0.082 A 
ATOM     22  H2  FA4 d          30.678   9.928  17.606  0.00  0.00     0.084 H 
ATOM     23  C6  FA4 d          31.762  11.939  15.006  0.00  0.00    -0.082 A 
ATOM     24  H1  FA4 d          30.103  12.053  16.420  0.00  0.00     0.083 H 
ATOM     25  C5  FA4 d          32.909  11.180  14.587  0.00  0.00    -0.075 A 
ATOM     26  H4  FA4 d          31.501  12.858  14.493  0.00  0.00     0.083 H 
ATOM     27  C4  FA4 d          33.256   9.956  15.261  0.00  0.00    -0.034 A 
ATOM     28  H3  FA4 d          33.515  11.531  13.759  0.00  0.00     0.084 H 
BRANCH  27  29
ATOM     29  C27 FA4 d          34.487   9.225  14.754  0.00  0.00     0.033 C 
ATOM     30  H37 FA4 d          35.030   8.801  15.611  0.00  0.00     0.072 H 
ATOM     31  H38 FA4 d          35.135   9.938  14.225  0.00  0.00     0.072 H 
BRANCH  29  32
ATOM     32  N28 FA4 d          34.118   8.140  13.835  0.00  0.00    -0.223 N 
ATOM     33  C29 FA4 d          34.567   8.141  12.531  0.00  0.00     0.665 C 
ATOM     34  N30 FA4 d          34.735   6.987  11.896  0.00  0.00    -0.235 N 
ATOM     35  N31 FA4 d          34.842   9.287  11.891  0.00  0.00    -0.235 N 
ATOM     36  H40 FA4 d          35.070   6.978  10.922  0.00  0.00     0.174 HD
ATOM     37  H41 FA4 d          34.531   6.100  12.378  0.00  0.00     0.174 HD
ATOM     38  H42 FA4 d          34.716  10.189  12.373  0.00  0.00     0.174 HD
ATOM     39  H43 FA4 d          35.180   9.266  10.919  0.00  0.00     0.174 HD
ATOM     40  H39 FA4 d          33.519   7.371  14.168  0.00  0.00     0.178 HD
ENDBRANCH  29  32
ENDBRANCH  27  29
ENDBRANCH  16  19
ENDBRANCH  13  16
ENDBRANCH  10  13
ENDBRANCH   7  10
ENDBRANCH   4   7
ENDBRANCH   1   4
BRANCH   1  41
ATOM     41  C13 FA4 d          28.843   3.482  14.528  0.00  0.00    -0.065 C 
ATOM     42  H17 FA4 d          29.656   2.989  15.080  0.00  0.00     0.033 H 
ATOM     43  H18 FA4 d          29.046   3.428  13.449  0.00  0.00     0.033 H 
BRANCH  41  44
ATOM     44  C14 FA4 d          27.534   2.738  14.818  0.00  0.00    -0.057 C 
ATOM     45  H19 FA4 d          27.690   2.089  15.692  0.00  0.00     0.033 H 
ATOM     46  H20 FA4 d          27.284   2.121  13.942  0.00  0.00     0.033 H 
BRANCH  44  47
ATOM     47  C15 FA4 d          26.351   3.664  15.108  0.00  0.00     0.009 C 
ATOM     48  H21 FA4 d          26.732   4.648  15.420  0.00  0.00     0.047 H 
ATOM     49  H22 FA4 d          25.746   3.231  15.919  0.00  0.00     0.047 H 
BRANCH  47  50
ATOM     50  C16 FA4 d          25.472   3.837  13.862  0.00  0.00     0.218 C 
ATOM     51  N17 FA4 d          24.189   3.498  14.118  0.00  0.00    -0.348 N 
ATOM     52  H23 FA4 d          23.944   3.178  15.033  0.00  0.00     0.163 HD
ATOM     53  O19 FA4 d          25.934   4.241  12.791  0.00  0.00    -0.274 OA
BRANCH  51  54
ATOM     54  C18 FA4 d          23.159   3.588  13.101  0.00  0.00     0.091 C 
ATOM     55  H24 FA4 d          23.607   3.904  12.148  0.00  0.00     0.087 H 
BRANCH  54  56
ATOM     56  C20 FA4 d          22.147   4.641  13.560  0.00  0.00    -0.038 C 
ATOM     57  H25 FA4 d          21.985   4.521  14.641  0.00  0.00     0.036 H 
ATOM     58  H26 FA4 d          21.200   4.469  13.026  0.00  0.00     0.036 H 
BRANCH  56  59
ATOM     59  C23 FA4 d          22.592   6.076  13.297  0.00  0.00    -0.061 C 
ATOM     60  H28 FA4 d          22.927   6.160  12.252  0.00  0.00     0.033 H 
ATOM     61  H29 FA4 d          23.428   6.318  13.970  0.00  0.00     0.033 H 
BRANCH  59  62
ATOM     62  C24 FA4 d          21.460   7.075  13.535  0.00  0.00    -0.043 C 
ATOM     63  H30 FA4 d          20.504   6.531  13.541  0.00  0.00     0.035 H 
ATOM     64  H31 FA4 d          21.458   7.808  12.715  0.00  0.00     0.035 H 
BRANCH  62  65
ATOM     65  C25 FA4 d          21.609   7.822  14.862  0.00  0.00     0.080 C 
ATOM     66  H32 FA4 d          20.897   8.660  14.876  0.00  0.00     0.075 H 
ATOM     67  H33 FA4 d          22.636   8.211  14.933  0.00  0.00     0.075 H 
BRANCH  65  68
ATOM     68  N26 FA4 d          21.350   6.969  16.015  0.00  0.00    -0.079 N 
ATOM     69  H34 FA4 d          21.899   7.287  16.798  0.00  0.00     0.274 HD
ATOM     70  H35 FA4 d          21.602   6.018  15.793  0.00  0.00     0.274 HD
ATOM     71  H36 FA4 d          20.372   7.012  16.252  0.00  0.00     0.274 HD
ENDBRANCH  65  68
ENDBRANCH  62  65
ENDBRANCH  59  62
ENDBRANCH  56  59
ENDBRANCH  54  56
BRANCH  54  72
ATOM     72  C21 FA4 d          22.489   2.216  12.906  0.00  0.00     0.263 C 
ATOM     73  N22 FA4 d          21.161   2.280  12.736  0.00  0.00    -0.236 N 
ATOM     74  H27 FA4 d          20.693   3.164  12.745  0.00  0.00     0.197 HD
ATOM     75  O33 FA4 d          23.144   1.179  12.904  0.00  0.00    -0.269 OA
BRANCH  73  76
ATOM     76  O32 FA4 d          20.435   1.101  12.546  0.00  0.00    -0.287 OA
ATOM     77  H44 FA4 d          20.304   0.958  11.615  0.00  0.00     0.244 HD
ENDBRANCH  73  76
ENDBRANCH  54  72
ENDBRANCH  51  54
ENDBRANCH  47  50
ENDBRANCH  44  47
ENDBRANCH  41  44
ENDBRANCH   1  41
TORSDOF 20
ENDMDL
MODEL 5
REMARK VINA RESULT:      -7.1      3.542     11.158
REMARK  20 active torsions:
REMARK  status: ('A' for Active; 'I' for Inactive)
REMARK    1  A    between atoms: C3_3  and  C7_7 
REMARK    2  A    between atoms: C4_4  and  C27_27 
REMARK    3  A    between atoms: C7_7  and  C8_8 
REMARK    4  A    between atoms: C8_8  and  C9_9 
REMARK    5  A    between atoms: C9_9  and  C10_10 
REMARK    6  A    between atoms: C10_10  and  C11_11 
REMARK    7  A    between atoms: C11_11  and  C12_12 
REMARK    8  A    between atoms: C12_12  and  C13_13 
REMARK    9  A    between atoms: C13_13  and  C14_14 
REMARK   10  A    between atoms: C14_14  and  C15_15 
REMARK   11  A    between atoms: C15_15  and  C16_16 
REMARK       I    between atoms: C16_16  and  N17_17 
REMARK   12  A    between atoms: N17_17  and  C18_18 
REMARK   13  A    between atoms: C18_18  and  C20_20 
REMARK   14  A    between atoms: C18_18  and  C21_21 
REMARK   15  A    between atoms: C20_20  and  C23_23 
REMARK       I    between atoms: C21_21  and  N22_22 
REMARK   16  A    between atoms: N22_22  and  O32_32 
REMARK   17  A    between atoms: C23_23  and  C24_24 
REMARK   18  A    between atoms: C24_24  and  C25_25 
REMARK   19  A    between atoms: C25_25  and  N26_26 
REMARK   20  A    between atoms: C27_27  and  N28_28 
REMARK       I    between atoms: N28_28  and  C29_29 
REMARK       I    between atoms: C29_29  and  N30_30 
ROOT
ATOM      1  C12 FA4 d          30.538   5.390  15.479  0.00  0.00    -0.065 C 
ATOM      2  H15 FA4 d          31.299   5.211  16.253  0.00  0.00     0.033 H 
ATOM      3  H16 FA4 d          30.947   6.063  14.711  0.00  0.00     0.033 H 
ENDROOT
BRANCH   1   4
ATOM      4  C11 FA4 d          29.332   6.072  16.130  0.00  0.00    -0.065 C 
ATOM      5  H13 FA4 d          29.003   6.901  15.486  0.00  0.00     0.033 H 
ATOM      6  H14 FA4 d          28.519   5.337  16.225  0.00  0.00     0.033 H 
BRANCH   4   7
ATOM      7  C10 FA4 d          29.658   6.627  17.519  0.00  0.00    -0.065 C 
ATOM      8  H11 FA4 d          29.190   5.978  18.274  0.00  0.00     0.033 H 
ATOM      9  H12 FA4 d          30.750   6.615  17.652  0.00  0.00     0.033 H 
BRANCH   7  10
ATOM     10  C9  FA4 d          29.158   8.059  17.731  0.00  0.00    -0.065 C 
ATOM     11  H9  FA4 d          28.616   8.379  16.829  0.00  0.00     0.033 H 
ATOM     12  H10 FA4 d          28.474   8.069  18.593  0.00  0.00     0.033 H 
BRANCH  10  13
ATOM     13  C8  FA4 d          30.293   9.049  17.997  0.00  0.00    -0.061 C 
ATOM     14  H7  FA4 d          29.924  10.068  17.807  0.00  0.00     0.033 H 
ATOM     15  H8  FA4 d          30.600   8.959  19.050  0.00  0.00     0.033 H 
BRANCH  13  16
ATOM     16  C7  FA4 d          31.518   8.793  17.102  0.00  0.00    -0.040 C 
ATOM     17  H5  FA4 d          32.392   8.606  17.744  0.00  0.00     0.040 H 
ATOM     18  H6  FA4 d          31.323   7.906  16.481  0.00  0.00     0.040 H 
BRANCH  16  19
ATOM     19  C3  FA4 d          31.821   9.962  16.199  0.00  0.00    -0.050 A 
ATOM     20  C2  FA4 d          31.082  11.181  16.354  0.00  0.00    -0.076 A 
ATOM     21  C1  FA4 d          31.345  12.305  15.514  0.00  0.00    -0.082 A 
ATOM     22  H2  FA4 d          30.315  11.250  17.117  0.00  0.00     0.084 H 
ATOM     23  C6  FA4 d          32.349  12.235  14.496  0.00  0.00    -0.082 A 
ATOM     24  H1  FA4 d          30.779  13.220  15.648  0.00  0.00     0.083 H 
ATOM     25  C5  FA4 d          33.106  11.025  14.320  0.00  0.00    -0.075 A 
ATOM     26  H4  FA4 d          32.539  13.092  13.859  0.00  0.00     0.083 H 
ATOM     27  C4  FA4 d          32.854   9.883  15.159  0.00  0.00    -0.034 A 
ATOM     28  H3  FA4 d          33.870  10.972  13.552  0.00  0.00     0.084 H 
BRANCH  27  29
ATOM     29  C27 FA4 d          33.705   8.650  14.906  0.00  0.00     0.033 C 
ATOM     30  H37 FA4 d          33.049   7.813  14.627  0.00  0.00     0.072 H 
ATOM     31  H38 FA4 d          34.252   8.397  15.825  0.00  0.00     0.072 H 
BRANCH  29  32
ATOM     32  N28 FA4 d          34.669   8.885  13.824  0.00  0.00    -0.223 N 
ATOM     33  C29 FA4 d          34.595   8.169  12.648  0.00  0.00     0.665 C 
ATOM     34  N30 FA4 d          35.035   8.715  11.520  0.00  0.00    -0.235 N 
ATOM     35  N31 FA4 d          34.080   6.930  12.620  0.00  0.00    -0.235 N 
ATOM     36  H40 FA4 d          34.983   8.186  10.637  0.00  0.00     0.174 HD
ATOM     37  H41 FA4 d          35.429   9.666  11.528  0.00  0.00     0.174 HD
ATOM     38  H42 FA4 d          33.735   6.497  13.488  0.00  0.00     0.174 HD
ATOM     39  H43 FA4 d          34.030   6.413  11.731  0.00  0.00     0.174 HD
ATOM     40  H39 FA4 d          35.409   9.592  13.944  0.00  0.00     0.178 HD
ENDBRANCH  29  32
ENDBRANCH  27  29
ENDBRANCH  16  19
ENDBRANCH  13  16
ENDBRANCH  10  13
ENDBRANCH   7  10
ENDBRANCH   4   7
ENDBRANCH   1   4
BRANCH   1  41
ATOM     41  C13 FA4 d          30.193   4.058  14.822  0.00  0.00    -0.065 C 
ATOM     42  H17 FA4 d          30.935   3.309  15.133  0.00  0.00     0.033 H 
ATOM     43  H18 FA4 d          30.234   4.184  13.730  0.00  0.00     0.033 H 
BRANCH  41  44
ATOM     44  C14 FA4 d          28.797   3.554  15.206  0.00  0.00    -0.057 C 
ATOM     45  H19 FA4 d          28.263   4.368  15.719  0.00  0.00     0.033 H 
ATOM     46  H20 FA4 d          28.913   2.702  15.893  0.00  0.00     0.033 H 
BRANCH  44  47
ATOM     47  C15 FA4 d          27.956   3.101  14.012  0.00  0.00     0.009 C 
ATOM     48  H21 FA4 d          28.441   2.234  13.538  0.00  0.00     0.047 H 
ATOM     49  H22 FA4 d          27.887   3.925  13.287  0.00  0.00     0.047 H 
BRANCH  47  50
ATOM     50  C16 FA4 d          26.542   2.704  14.458  0.00  0.00     0.218 C 
ATOM     51  N17 FA4 d          25.602   3.356  13.739  0.00  0.00    -0.348 N 
ATOM     52  H23 FA4 d          25.890   4.003  13.034  0.00  0.00     0.163 HD
ATOM     53  O19 FA4 d          26.350   1.885  15.361  0.00  0.00    -0.274 OA
BRANCH  51  54
ATOM     54  C18 FA4 d          24.185   3.141  13.964  0.00  0.00     0.091 C 
ATOM     55  H24 FA4 d          24.016   2.854  15.012  0.00  0.00     0.087 H 
BRANCH  54  56
ATOM     56  C20 FA4 d          23.738   2.000  13.047  0.00  0.00    -0.038 C 
ATOM     57  H25 FA4 d          24.536   1.243  13.021  0.00  0.00     0.036 H 
ATOM     58  H26 FA4 d          23.585   2.406  12.036  0.00  0.00     0.036 H 
BRANCH  56  59
ATOM     59  C23 FA4 d          22.447   1.322  13.494  0.00  0.00    -0.061 C 
ATOM     60  H28 FA4 d          22.113   1.779  14.437  0.00  0.00     0.033 H 
ATOM     61  H29 FA4 d          22.644   0.252  13.655  0.00  0.00     0.033 H 
BRANCH  59  62
ATOM     62  C24 FA4 d          21.338   1.470  12.453  0.00  0.00    -0.043 C 
ATOM     63  H30 FA4 d          20.435   1.854  12.951  0.00  0.00     0.035 H 
ATOM     64  H31 FA4 d          21.125   0.481  12.021  0.00  0.00     0.035 H 
BRANCH  62  65
ATOM     65  C25 FA4 d          21.720   2.428  11.323  0.00  0.00     0.080 C 
ATOM     66  H32 FA4 d          21.528   1.932  10.361  0.00  0.00     0.075 H 
ATOM     67  H33 FA4 d          22.792   2.662  11.408  0.00  0.00     0.075 H 
BRANCH  65  68
ATOM     68  N26 FA4 d          20.965   3.673  11.367  0.00  0.00    -0.079 N 
ATOM     69  H34 FA4 d          21.386   4.299  12.034  0.00  0.00     0.274 HD
ATOM     70  H35 FA4 d          20.014   3.480  11.641  0.00  0.00     0.274 HD
ATOM     71  H36 FA4 d          20.971   4.102  10.455  0.00  0.00     0.274 HD
ENDBRANCH  65  68
ENDBRANCH  62  65
ENDBRANCH  59  62
ENDBRANCH  56  59
ENDBRANCH  54  56
BRANCH  54  72
ATOM     72  C21 FA4 d          23.403   4.434  13.669  0.00  0.00     0.263 C 
ATOM     73  N22 FA4 d          23.964   5.205  12.727  0.00  0.00    -0.236 N 
ATOM     74  H27 FA4 d          24.817   4.924  12.287  0.00  0.00     0.197 HD
ATOM     75  O33 FA4 d          22.358   4.697  14.256  0.00  0.00    -0.269 OA
BRANCH  73  76
ATOM     76  O32 FA4 d          23.349   6.407  12.366  0.00  0.00    -0.287 OA
ATOM     77  H44 FA4 d          22.658   6.231  11.738  0.00  0.00     0.244 HD
ENDBRANCH  73  76
ENDBRANCH  54  72
ENDBRANCH  51  54
ENDBRANCH  47  50
ENDBRANCH  44  47
ENDBRANCH  41  44
ENDBRANCH   1  41
TORSDOF 20
ENDMDL
MODEL 6
REMARK VINA RESULT:      -7.0      1.948      3.161
REMARK  20 active torsions:
REMARK  status: ('A' for Active; 'I' for Inactive)
REMARK    1  A    between atoms: C3_3  and  C7_7 
REMARK    2  A    between atoms: C4_4  and  C27_27 
REMARK    3  A    between atoms: C7_7  and  C8_8 
REMARK    4  A    between atoms: C8_8  and  C9_9 
REMARK    5  A    between atoms: C9_9  and  C10_10 
REMARK    6  A    between atoms: C10_10  and  C11_11 
REMARK    7  A    between atoms: C11_11  and  C12_12 
REMARK    8  A    between atoms: C12_12  and  C13_13 
REMARK    9  A    between atoms: C13_13  and  C14_14 
REMARK   10  A    between atoms: C14_14  and  C15_15 
REMARK   11  A    between atoms: C15_15  and  C16_16 
REMARK       I    between atoms: C16_16  and  N17_17 
REMARK   12  A    between atoms: N17_17  and  C18_18 
REMARK   13  A    between atoms: C18_18  and  C20_20 
REMARK   14  A    between atoms: C18_18  and  C21_21 
REMARK   15  A    between atoms: C20_20  and  C23_23 
REMARK       I    between atoms: C21_21  and  N22_22 
REMARK   16  A    between atoms: N22_22  and  O32_32 
REMARK   17  A    between atoms: C23_23  and  C24_24 
REMARK   18  A    between atoms: C24_24  and  C25_25 
REMARK   19  A    between atoms: C25_25  and  N26_26 
REMARK   20  A    between atoms: C27_27  and  N28_28 
REMARK       I    between atoms: N28_28  and  C29_29 
REMARK       I    between atoms: C29_29  and  N30_30 
ROOT
ATOM      1  C12 FA4 d          29.675   4.345  15.929  0.00  0.00    -0.065 C 
ATOM      2  H15 FA4 d          30.303   4.030  16.776  0.00  0.00     0.033 H 
ATOM      3  H16 FA4 d          28.944   5.090  16.273  0.00  0.00     0.033 H 
ENDROOT
BRANCH   1   4
ATOM      4  C11 FA4 d          28.914   3.123  15.406  0.00  0.00    -0.065 C 
ATOM      5  H13 FA4 d          29.627   2.448  14.909  0.00  0.00     0.033 H 
ATOM      6  H14 FA4 d          28.451   2.603  16.258  0.00  0.00     0.033 H 
BRANCH   4   7
ATOM      7  C10 FA4 d          27.819   3.505  14.407  0.00  0.00    -0.065 C 
ATOM      8  H11 FA4 d          27.533   4.552  14.586  0.00  0.00     0.033 H 
ATOM      9  H12 FA4 d          28.224   3.405  13.390  0.00  0.00     0.033 H 
BRANCH   7  10
ATOM     10  C9  FA4 d          26.566   2.632  14.520  0.00  0.00    -0.065 C 
ATOM     11  H9  FA4 d          26.821   1.608  14.209  0.00  0.00     0.033 H 
ATOM     12  H10 FA4 d          26.236   2.625  15.569  0.00  0.00     0.033 H 
BRANCH  10  13
ATOM     13  C8  FA4 d          25.414   3.135  13.649  0.00  0.00    -0.061 C 
ATOM     14  H7  FA4 d          25.766   3.996  13.062  0.00  0.00     0.033 H 
ATOM     15  H8  FA4 d          25.108   2.327  12.967  0.00  0.00     0.033 H 
BRANCH  13  16
ATOM     16  C7  FA4 d          24.194   3.569  14.479  0.00  0.00    -0.040 C 
ATOM     17  H5  FA4 d          24.355   3.271  15.526  0.00  0.00     0.040 H 
ATOM     18  H6  FA4 d          24.096   4.663  14.420  0.00  0.00     0.040 H 
BRANCH  16  19
ATOM     19  C3  FA4 d          22.915   2.940  13.987  0.00  0.00    -0.050 A 
ATOM     20  C2  FA4 d          22.970   1.697  13.275  0.00  0.00    -0.076 A 
ATOM     21  C1  FA4 d          21.776   1.077  12.796  0.00  0.00    -0.082 A 
ATOM     22  H2  FA4 d          23.928   1.222  13.098  0.00  0.00     0.084 H 
ATOM     23  C6  FA4 d          20.500   1.688  13.013  0.00  0.00    -0.082 A 
ATOM     24  H1  FA4 d          21.837   0.135  12.263  0.00  0.00     0.083 H 
ATOM     25  C5  FA4 d          20.416   2.934  13.725  0.00  0.00    -0.075 A 
ATOM     26  H4  FA4 d          19.599   1.213  12.641  0.00  0.00     0.083 H 
ATOM     27  C4  FA4 d          21.610   3.572  14.216  0.00  0.00    -0.034 A 
ATOM     28  H3  FA4 d          19.450   3.396  13.894  0.00  0.00     0.084 H 
BRANCH  27  29
ATOM     29  C27 FA4 d          21.425   4.882  14.962  0.00  0.00     0.033 C 
ATOM     30  H37 FA4 d          22.400   5.219  15.343  0.00  0.00     0.072 H 
ATOM     31  H38 FA4 d          20.738   4.721  15.805  0.00  0.00     0.072 H 
BRANCH  29  32
ATOM     32  N28 FA4 d          20.869   5.919  14.083  0.00  0.00    -0.223 N 
ATOM     33  C29 FA4 d          21.702   6.749  13.362  0.00  0.00     0.665 C 
ATOM     34  N30 FA4 d          21.281   7.257  12.209  0.00  0.00    -0.235 N 
ATOM     35  N31 FA4 d          22.932   7.051  13.801  0.00  0.00    -0.235 N 
ATOM     36  H40 FA4 d          21.896   7.878  11.665  0.00  0.00     0.174 HD
ATOM     37  H41 FA4 d          20.339   7.029  11.860  0.00  0.00     0.174 HD
ATOM     38  H42 FA4 d          23.270   6.664  14.694  0.00  0.00     0.174 HD
ATOM     39  H43 FA4 d          23.540   7.671  13.246  0.00  0.00     0.174 HD
ATOM     40  H39 FA4 d          19.848   6.027  14.003  0.00  0.00     0.178 HD
ENDBRANCH  29  32
ENDBRANCH  27  29
ENDBRANCH  16  19
ENDBRANCH  13  16
ENDBRANCH  10  13
ENDBRANCH   7  10
ENDBRANCH   4   7
ENDBRANCH   1   4
BRANCH   1  41
ATOM     41  C13 FA4 d          30.569   4.991  14.877  0.00  0.00    -0.065 C 
ATOM     42  H17 FA4 d          29.951   5.646  14.245  0.00  0.00     0.033 H 
ATOM     43  H18 FA4 d          31.014   4.198  14.259  0.00  0.00     0.033 H 
BRANCH  41  44
ATOM     44  C14 FA4 d          31.697   5.826  15.492  0.00  0.00    -0.057 C 
ATOM     45  H19 FA4 d          32.058   6.535  14.731  0.00  0.00     0.033 H 
ATOM     46  H20 FA4 d          32.515   5.149  15.778  0.00  0.00     0.033 H 
BRANCH  44  47
ATOM     47  C15 FA4 d          31.273   6.620  16.728  0.00  0.00     0.009 C 
ATOM     48  H21 FA4 d          32.035   6.500  17.512  0.00  0.00     0.047 H 
ATOM     49  H22 FA4 d          30.309   6.233  17.091  0.00  0.00     0.047 H 
BRANCH  47  50
ATOM     50  C16 FA4 d          31.123   8.112  16.396  0.00  0.00     0.218 C 
ATOM     51  N17 FA4 d          32.272   8.619  15.898  0.00  0.00    -0.348 N 
ATOM     52  H23 FA4 d          33.068   8.021  15.804  0.00  0.00     0.163 HD
ATOM     53  O19 FA4 d          30.062   8.715  16.579  0.00  0.00    -0.274 OA
BRANCH  51  54
ATOM     54  C18 FA4 d          32.381  10.008  15.495  0.00  0.00     0.091 C 
ATOM     55  H24 FA4 d          31.458  10.318  14.985  0.00  0.00     0.087 H 
BRANCH  54  56
ATOM     56  C20 FA4 d          33.558  10.117  14.523  0.00  0.00    -0.038 C 
ATOM     57  H25 FA4 d          34.479  10.264  15.107  0.00  0.00     0.036 H 
ATOM     58  H26 FA4 d          33.393  10.990  13.874  0.00  0.00     0.036 H 
BRANCH  56  59
ATOM     59  C23 FA4 d          33.741   8.888  13.639  0.00  0.00    -0.061 C 
ATOM     60  H28 FA4 d          32.751   8.483  13.383  0.00  0.00     0.033 H 
ATOM     61  H29 FA4 d          34.314   8.131  14.196  0.00  0.00     0.033 H 
BRANCH  59  62
ATOM     62  C24 FA4 d          34.487   9.222  12.348  0.00  0.00    -0.043 C 
ATOM     63  H30 FA4 d          35.291   9.936  12.579  0.00  0.00     0.035 H 
ATOM     64  H31 FA4 d          33.781   9.683  11.641  0.00  0.00     0.035 H 
BRANCH  62  65
ATOM     65  C25 FA4 d          35.103   7.985  11.692  0.00  0.00     0.080 C 
ATOM     66  H32 FA4 d          36.177   7.961  11.923  0.00  0.00     0.075 H 
ATOM     67  H33 FA4 d          34.963   8.057  10.603  0.00  0.00     0.075 H 
BRANCH  65  68
ATOM     68  N26 FA4 d          34.497   6.744  12.161  0.00  0.00    -0.079 N 
ATOM     69  H34 FA4 d          33.786   6.954  12.842  0.00  0.00     0.274 HD
ATOM     70  H35 FA4 d          35.205   6.163  12.582  0.00  0.00     0.274 HD
ATOM     71  H36 FA4 d          34.083   6.258  11.382  0.00  0.00     0.274 HD
ENDBRANCH  65  68
ENDBRANCH  62  65
ENDBRANCH  59  62
ENDBRANCH  56  59
ENDBRANCH  54  56
BRANCH  54  72
ATOM     72  C21 FA4 d          32.591  10.901  16.731  0.00  0.00     0.263 C 
ATOM     73  N22 FA4 d          31.493  11.570  17.110  0.00  0.00    -0.236 N 
ATOM     74  H27 FA4 d          30.638  11.466  16.602  0.00  0.00     0.197 HD
ATOM     75  O33 FA4 d          33.677  10.963  17.298  0.00  0.00    -0.269 OA
BRANCH  73  76
ATOM     76  O32 FA4 d          31.552  12.414  18.223  0.00  0.00    -0.287 OA
ATOM     77  H44 FA4 d          32.317  12.197  18.743  0.00  0.00     0.244 HD
ENDBRANCH  73  76
ENDBRANCH  54  72
ENDBRANCH  51  54
ENDBRANCH  47  50
ENDBRANCH  44  47
ENDBRANCH  41  44
ENDBRANCH   1  41
TORSDOF 20
ENDMDL
MODEL 7
REMARK VINA RESULT:      -6.7      1.609      1.872
REMARK  20 active torsions:
REMARK  status: ('A' for Active; 'I' for Inactive)
REMARK    1  A    between atoms: C3_3  and  C7_7 
REMARK    2  A    between atoms: C4_4  and  C27_27 
REMARK    3  A    between atoms: C7_7  and  C8_8 
REMARK    4  A    between atoms: C8_8  and  C9_9 
REMARK    5  A    between atoms: C9_9  and  C10_10 
REMARK    6  A    between atoms: C10_10  and  C11_11 
REMARK    7  A    between atoms: C11_11  and  C12_12 
REMARK    8  A    between atoms: C12_12  and  C13_13 
REMARK    9  A    between atoms: C13_13  and  C14_14 
REMARK   10  A    between atoms: C14_14  and  C15_15 
REMARK   11  A    between atoms: C15_15  and  C16_16 
REMARK       I    between atoms: C16_16  and  N17_17 
REMARK   12  A    between atoms: N17_17  and  C18_18 
REMARK   13  A    between atoms: C18_18  and  C20_20 
REMARK   14  A    between atoms: C18_18  and  C21_21 
REMARK   15  A    between atoms: C20_20  and  C23_23 
REMARK       I    between atoms: C21_21  and  N22_22 
REMARK   16  A    between atoms: N22_22  and  O32_32 
REMARK   17  A    between atoms: C23_23  and  C24_24 
REMARK   18  A    between atoms: C24_24  and  C25_25 
REMARK   19  A    between atoms: C25_25  and  N26_26 
REMARK   20  A    between atoms: C27_27  and  N28_28 
REMARK       I    between atoms: N28_28  and  C29_29 
REMARK       I    between atoms: C29_29  and  N30_30 
ROOT
ATOM      1  C12 FA4 d          29.075   3.847  14.500  0.00  0.00    -0.065 C 
ATOM      2  H15 FA4 d          28.630   4.553  13.783  0.00  0.00     0.033 H 
ATOM      3  H16 FA4 d          29.912   3.318  14.021  0.00  0.00     0.033 H 
ENDROOT
BRANCH   1   4
ATOM      4  C11 FA4 d          28.012   2.818  14.895  0.00  0.00    -0.065 C 
ATOM      5  H13 FA4 d          28.092   1.950  14.224  0.00  0.00     0.033 H 
ATOM      6  H14 FA4 d          28.196   2.499  15.932  0.00  0.00     0.033 H 
BRANCH   4   7
ATOM      7  C10 FA4 d          26.593   3.385  14.799  0.00  0.00    -0.065 C 
ATOM      8  H11 FA4 d          25.884   2.605  15.112  0.00  0.00     0.033 H 
ATOM      9  H12 FA4 d          26.514   4.246  15.479  0.00  0.00     0.033 H 
BRANCH   7  10
ATOM     10  C9  FA4 d          26.219   3.844  13.387  0.00  0.00    -0.065 C 
ATOM     11  H9  FA4 d          26.684   4.824  13.201  0.00  0.00     0.033 H 
ATOM     12  H10 FA4 d          26.607   3.111  12.664  0.00  0.00     0.033 H 
BRANCH  10  13
ATOM     13  C8  FA4 d          24.708   3.973  13.187  0.00  0.00    -0.061 C 
ATOM     14  H7  FA4 d          24.448   5.041  13.148  0.00  0.00     0.033 H 
ATOM     15  H8  FA4 d          24.436   3.494  12.235  0.00  0.00     0.033 H 
BRANCH  13  16
ATOM     16  C7  FA4 d          23.906   3.311  14.320  0.00  0.00    -0.040 C 
ATOM     17  H5  FA4 d          24.497   2.479  14.732  0.00  0.00     0.040 H 
ATOM     18  H6  FA4 d          23.725   4.057  15.108  0.00  0.00     0.040 H 
BRANCH  16  19
ATOM     19  C3  FA4 d          22.580   2.774  13.844  0.00  0.00    -0.050 A 
ATOM     20  C2  FA4 d          22.553   1.625  12.987  0.00  0.00    -0.076 A 
ATOM     21  C1  FA4 d          21.312   1.094  12.520  0.00  0.00    -0.082 A 
ATOM     22  H2  FA4 d          23.483   1.154  12.691  0.00  0.00     0.084 H 
ATOM     23  C6  FA4 d          20.072   1.703  12.893  0.00  0.00    -0.082 A 
ATOM     24  H1  FA4 d          21.311   0.222  11.876  0.00  0.00     0.083 H 
ATOM     25  C5  FA4 d          20.071   2.856  13.752  0.00  0.00    -0.075 A 
ATOM     26  H4  FA4 d          19.135   1.295  12.528  0.00  0.00     0.083 H 
ATOM     27  C4  FA4 d          21.312   3.403  14.233  0.00  0.00    -0.034 A 
ATOM     28  H3  FA4 d          19.131   3.315  14.038  0.00  0.00     0.084 H 
BRANCH  27  29
ATOM     29  C27 FA4 d          21.215   4.618  15.140  0.00  0.00     0.033 C 
ATOM     30  H37 FA4 d          21.742   4.406  16.081  0.00  0.00     0.072 H 
ATOM     31  H38 FA4 d          20.155   4.823  15.352  0.00  0.00     0.072 H 
BRANCH  29  32
ATOM     32  N28 FA4 d          21.814   5.800  14.509  0.00  0.00    -0.223 N 
ATOM     33  C29 FA4 d          21.030   6.708  13.829  0.00  0.00     0.665 C 
ATOM     34  N30 FA4 d          21.409   7.979  13.761  0.00  0.00    -0.235 N 
ATOM     35  N31 FA4 d          19.887   6.332  13.237  0.00  0.00    -0.235 N 
ATOM     36  H40 FA4 d          20.829   8.663  13.254  0.00  0.00     0.174 HD
ATOM     37  H41 FA4 d          22.284   8.280  14.214  0.00  0.00     0.174 HD
ATOM     38  H42 FA4 d          19.582   5.350  13.283  0.00  0.00     0.174 HD
ATOM     39  H43 FA4 d          19.314   7.026  12.736  0.00  0.00     0.174 HD
ATOM     40  H39 FA4 d          22.831   5.954  14.576  0.00  0.00     0.178 HD
ENDBRANCH  29  32
ENDBRANCH  27  29
ENDBRANCH  16  19
ENDBRANCH  13  16
ENDBRANCH  10  13
ENDBRANCH   7  10
ENDBRANCH   4   7
ENDBRANCH   1   4
BRANCH   1  41
ATOM     41  C13 FA4 d          29.617   4.636  15.686  0.00  0.00    -0.065 C 
ATOM     42  H17 FA4 d          29.265   4.163  16.614  0.00  0.00     0.033 H 
ATOM     43  H18 FA4 d          29.231   5.665  15.629  0.00  0.00     0.033 H 
BRANCH  41  44
ATOM     44  C14 FA4 d          31.148   4.688  15.713  0.00  0.00    -0.057 C 
ATOM     45  H19 FA4 d          31.531   3.658  15.658  0.00  0.00     0.033 H 
ATOM     46  H20 FA4 d          31.464   5.147  16.661  0.00  0.00     0.033 H 
BRANCH  44  47
ATOM     47  C15 FA4 d          31.758   5.490  14.562  0.00  0.00     0.009 C 
ATOM     48  H21 FA4 d          30.952   5.842  13.901  0.00  0.00     0.047 H 
ATOM     49  H22 FA4 d          32.442   4.842  13.994  0.00  0.00     0.047 H 
BRANCH  47  50
ATOM     50  C16 FA4 d          32.538   6.702  15.093  0.00  0.00     0.218 C 
ATOM     51  N17 FA4 d          33.021   7.454  14.079  0.00  0.00    -0.348 N 
ATOM     52  H23 FA4 d          32.848   7.169  13.136  0.00  0.00     0.163 HD
ATOM     53  O19 FA4 d          32.670   6.912  16.301  0.00  0.00    -0.274 OA
BRANCH  51  54
ATOM     54  C18 FA4 d          33.784   8.663  14.323  0.00  0.00     0.091 C 
ATOM     55  H24 FA4 d          34.277   8.597  15.304  0.00  0.00     0.087 H 
BRANCH  54  56
ATOM     56  C20 FA4 d          32.803   9.837  14.325  0.00  0.00    -0.038 C 
ATOM     57  H25 FA4 d          31.974   9.596  15.007  0.00  0.00     0.036 H 
ATOM     58  H26 FA4 d          32.412   9.966  13.305  0.00  0.00     0.036 H 
BRANCH  56  59
ATOM     59  C23 FA4 d          33.424  11.156  14.772  0.00  0.00    -0.061 C 
ATOM     60  H28 FA4 d          32.624  11.900  14.904  0.00  0.00     0.033 H 
ATOM     61  H29 FA4 d          34.122  11.503  13.996  0.00  0.00     0.033 H 
BRANCH  59  62
ATOM     62  C24 FA4 d          34.184  11.009  16.090  0.00  0.00    -0.043 C 
ATOM     63  H30 FA4 d          34.365   9.940  16.276  0.00  0.00     0.035 H 
ATOM     64  H31 FA4 d          33.568  11.422  16.902  0.00  0.00     0.035 H 
BRANCH  62  65
ATOM     65  C25 FA4 d          35.529  11.738  16.074  0.00  0.00     0.080 C 
ATOM     66  H32 FA4 d          36.212  11.234  16.772  0.00  0.00     0.075 H 
ATOM     67  H33 FA4 d          35.370  12.777  16.401  0.00  0.00     0.075 H 
BRANCH  65  68
ATOM     68  N26 FA4 d          36.140  11.753  14.750  0.00  0.00    -0.079 N 
ATOM     69  H34 FA4 d          35.683  11.076  14.161  0.00  0.00     0.274 HD
ATOM     70  H35 FA4 d          37.119  11.522  14.830  0.00  0.00     0.274 HD
ATOM     71  H36 FA4 d          36.043  12.671  14.345  0.00  0.00     0.274 HD
ENDBRANCH  65  68
ENDBRANCH  62  65
ENDBRANCH  59  62
ENDBRANCH  56  59
ENDBRANCH  54  56
BRANCH  54  72
ATOM     72  C21 FA4 d          34.860   8.835  13.236  0.00  0.00     0.263 C 
ATOM     73  N22 FA4 d          34.389   8.737  11.985  0.00  0.00    -0.236 N 
ATOM     74  H27 FA4 d          33.417   8.563  11.824  0.00  0.00     0.197 HD
ATOM     75  O33 FA4 d          36.033   9.051  13.525  0.00  0.00    -0.269 OA
BRANCH  73  76
ATOM     76  O32 FA4 d          35.266   8.878  10.906  0.00  0.00    -0.287 OA
ATOM     77  H44 FA4 d          35.999   8.282  11.016  0.00  0.00     0.244 HD
ENDBRANCH  73  76
ENDBRANCH  54  72
ENDBRANCH  51  54
ENDBRANCH  47  50
ENDBRANCH  44  47
ENDBRANCH  41  44
ENDBRANCH   1  41
TORSDOF 20
ENDMDL
MODEL 8
REMARK VINA RESULT:      -6.5      2.097      2.911
REMARK  20 active torsions:
REMARK  status: ('A' for Active; 'I' for Inactive)
REMARK    1  A    between atoms: C3_3  and  C7_7 
REMARK    2  A    between atoms: C4_4  and  C27_27 
REMARK    3  A    between atoms: C7_7  and  C8_8 
REMARK    4  A    between atoms: C8_8  and  C9_9 
REMARK    5  A    between atoms: C9_9  and  C10_10 
REMARK    6  A    between atoms: C10_10  and  C11_11 
REMARK    7  A    between atoms: C11_11  and  C12_12 
REMARK    8  A    between atoms: C12_12  and  C13_13 
REMARK    9  A    between atoms: C13_13  and  C14_14 
REMARK   10  A    between atoms: C14_14  and  C15_15 
REMARK   11  A    between atoms: C15_15  and  C16_16 
REMARK       I    between atoms: C16_16  and  N17_17 
REMARK   12  A    between atoms: N17_17  and  C18_18 
REMARK   13  A    between atoms: C18_18  and  C20_20 
REMARK   14  A    between atoms: C18_18  and  C21_21 
REMARK   15  A    between atoms: C20_20  and  C23_23 
REMARK       I    between atoms: C21_21  and  N22_22 
REMARK   16  A    between atoms: N22_22  and  O32_32 
REMARK   17  A    between atoms: C23_23  and  C24_24 
REMARK   18  A    between atoms: C24_24  and  C25_25 
REMARK   19  A    between atoms: C25_25  and  N26_26 
REMARK   20  A    between atoms: C27_27  and  N28_28 
REMARK       I    between atoms: N28_28  and  C29_29 
REMARK       I    between atoms: C29_29  and  N30_30 
ROOT
ATOM      1  C12 FA4 d          29.889   4.871  15.986  0.00  0.00    -0.065 C 
ATOM      2  H15 FA4 d          30.760   4.469  16.526  0.00  0.00     0.033 H 
ATOM      3  H16 FA4 d          29.252   5.431  16.685  0.00  0.00     0.033 H 
ENDROOT
BRANCH   1   4
ATOM      4  C11 FA4 d          29.081   3.699  15.423  0.00  0.00    -0.065 C 
ATOM      5  H13 FA4 d          29.707   3.151  14.703  0.00  0.00     0.033 H 
ATOM      6  H14 FA4 d          28.805   3.029  16.251  0.00  0.00     0.033 H 
BRANCH   4   7
ATOM      7  C10 FA4 d          27.805   4.160  14.715  0.00  0.00    -0.065 C 
ATOM      8  H11 FA4 d          27.433   5.064  15.220  0.00  0.00     0.033 H 
ATOM      9  H12 FA4 d          28.052   4.399  13.670  0.00  0.00     0.033 H 
BRANCH   7  10
ATOM     10  C9  FA4 d          26.694   3.106  14.723  0.00  0.00    -0.065 C 
ATOM     11  H9  FA4 d          26.861   2.412  13.886  0.00  0.00     0.033 H 
ATOM     12  H10 FA4 d          26.740   2.553  15.673  0.00  0.00     0.033 H 
BRANCH  10  13
ATOM     13  C8  FA4 d          25.299   3.716  14.580  0.00  0.00    -0.061 C 
ATOM     14  H7  FA4 d          25.329   4.754  14.944  0.00  0.00     0.033 H 
ATOM     15  H8  FA4 d          25.017   3.708  13.517  0.00  0.00     0.033 H 
BRANCH  13  16
ATOM     16  C7  FA4 d          24.234   2.944  15.379  0.00  0.00    -0.040 C 
ATOM     17  H5  FA4 d          24.689   2.026  15.779  0.00  0.00     0.040 H 
ATOM     18  H6  FA4 d          23.889   3.576  16.211  0.00  0.00     0.040 H 
BRANCH  16  19
ATOM     19  C3  FA4 d          23.046   2.566  14.531  0.00  0.00    -0.050 A 
ATOM     20  C2  FA4 d          23.065   1.330  13.804  0.00  0.00    -0.076 A 
ATOM     21  C1  FA4 d          21.955   0.945  12.993  0.00  0.00    -0.082 A 
ATOM     22  H2  FA4 d          23.930   0.681  13.871  0.00  0.00     0.084 H 
ATOM     23  C6  FA4 d          20.803   1.789  12.884  0.00  0.00    -0.082 A 
ATOM     24  H1  FA4 d          21.985   0.005  12.454  0.00  0.00     0.083 H 
ATOM     25  C5  FA4 d          20.759   3.033  13.603  0.00  0.00    -0.075 A 
ATOM     26  H4  FA4 d          19.967   1.491  12.261  0.00  0.00     0.083 H 
ATOM     27  C4  FA4 d          21.868   3.436  14.426  0.00  0.00    -0.034 A 
ATOM     28  H3  FA4 d          19.885   3.671  13.524  0.00  0.00     0.084 H 
BRANCH  27  29
ATOM     29  C27 FA4 d          21.731   4.763  15.153  0.00  0.00     0.033 C 
ATOM     30  H37 FA4 d          22.731   5.124  15.432  0.00  0.00     0.072 H 
ATOM     31  H38 FA4 d          21.129   4.613  16.061  0.00  0.00     0.072 H 
BRANCH  29  32
ATOM     32  N28 FA4 d          21.077   5.767  14.305  0.00  0.00    -0.223 N 
ATOM     33  C29 FA4 d          21.825   6.616  13.516  0.00  0.00     0.665 C 
ATOM     34  N30 FA4 d          21.304   7.092  12.391  0.00  0.00    -0.235 N 
ATOM     35  N31 FA4 d          23.072   6.967  13.862  0.00  0.00    -0.235 N 
ATOM     36  H40 FA4 d          21.856   7.727  11.796  0.00  0.00     0.174 HD
ATOM     37  H41 FA4 d          20.349   6.827  12.113  0.00  0.00     0.174 HD
ATOM     38  H42 FA4 d          23.487   6.604  14.732  0.00  0.00     0.174 HD
ATOM     39  H43 FA4 d          23.615   7.599  13.257  0.00  0.00     0.174 HD
ATOM     40  H39 FA4 d          20.049   5.838  14.298  0.00  0.00     0.178 HD
ENDBRANCH  29  32
ENDBRANCH  27  29
ENDBRANCH  16  19
ENDBRANCH  13  16
ENDBRANCH  10  13
ENDBRANCH   7  10
ENDBRANCH   4   7
ENDBRANCH   1   4
BRANCH   1  41
ATOM     41  C13 FA4 d          30.387   5.829  14.910  0.00  0.00    -0.065 C 
ATOM     42  H17 FA4 d          30.080   6.850  15.178  0.00  0.00     0.033 H 
ATOM     43  H18 FA4 d          29.929   5.548  13.950  0.00  0.00     0.033 H 
BRANCH  41  44
ATOM     44  C14 FA4 d          31.911   5.801  14.752  0.00  0.00    -0.057 C 
ATOM     45  H19 FA4 d          32.155   6.007  13.699  0.00  0.00     0.033 H 
ATOM     46  H20 FA4 d          32.271   4.798  15.023  0.00  0.00     0.033 H 
BRANCH  44  47
ATOM     47  C15 FA4 d          32.639   6.826  15.624  0.00  0.00     0.009 C 
ATOM     48  H21 FA4 d          33.644   6.446  15.864  0.00  0.00     0.047 H 
ATOM     49  H22 FA4 d          32.071   6.975  16.555  0.00  0.00     0.047 H 
BRANCH  47  50
ATOM     50  C16 FA4 d          32.771   8.170  14.895  0.00  0.00     0.218 C 
ATOM     51  N17 FA4 d          33.966   8.273  14.272  0.00  0.00    -0.348 N 
ATOM     52  H23 FA4 d          34.619   7.520  14.344  0.00  0.00     0.163 HD
ATOM     53  O19 FA4 d          31.866   9.008  14.907  0.00  0.00    -0.274 OA
BRANCH  51  54
ATOM     54  C18 FA4 d          34.326   9.448  13.502  0.00  0.00     0.091 C 
ATOM     55  H24 FA4 d          33.519   9.688  12.795  0.00  0.00     0.087 H 
BRANCH  54  56
ATOM     56  C20 FA4 d          35.601   9.118  12.722  0.00  0.00    -0.038 C 
ATOM     57  H25 FA4 d          35.389   9.226  11.648  0.00  0.00     0.036 H 
ATOM     58  H26 FA4 d          35.880   8.076  12.938  0.00  0.00     0.036 H 
BRANCH  56  59
ATOM     59  C23 FA4 d          36.784  10.015  13.072  0.00  0.00    -0.061 C 
ATOM     60  H28 FA4 d          37.581   9.397  13.513  0.00  0.00     0.033 H 
ATOM     61  H29 FA4 d          36.456  10.768  13.803  0.00  0.00     0.033 H 
BRANCH  59  62
ATOM     62  C24 FA4 d          37.339  10.730  11.840  0.00  0.00    -0.043 C 
ATOM     63  H30 FA4 d          38.082  10.078  11.358  0.00  0.00     0.035 H 
ATOM     64  H31 FA4 d          37.824  11.663  12.162  0.00  0.00     0.035 H 
BRANCH  62  65
ATOM     65  C25 FA4 d          36.249  11.069  10.821  0.00  0.00     0.080 C 
ATOM     66  H32 FA4 d          35.435  10.336  10.919  0.00  0.00     0.075 H 
ATOM     67  H33 FA4 d          36.680  11.007   9.811  0.00  0.00     0.075 H 
BRANCH  65  68
ATOM     68  N26 FA4 d          35.700  12.405  11.014  0.00  0.00    -0.079 N 
ATOM     69  H34 FA4 d          35.525  12.830  10.118  0.00  0.00     0.274 HD
ATOM     70  H35 FA4 d          36.359  12.968  11.530  0.00  0.00     0.274 HD
ATOM     71  H36 FA4 d          34.836  12.342  11.530  0.00  0.00     0.274 HD
ENDBRANCH  65  68
ENDBRANCH  62  65
ENDBRANCH  59  62
ENDBRANCH  56  59
ENDBRANCH  54  56
BRANCH  54  72
ATOM     72  C21 FA4 d          34.539  10.649  14.441  0.00  0.00     0.263 C 
ATOM     73  N22 FA4 d          33.816  11.729  14.113  0.00  0.00    -0.236 N 
ATOM     74  H27 FA4 d          33.208  11.708  13.320  0.00  0.00     0.197 HD
ATOM     75  O33 FA4 d          35.304  10.585  15.398  0.00  0.00    -0.269 OA
BRANCH  73  76
ATOM     76  O32 FA4 d          33.918  12.887  14.891  0.00  0.00    -0.287 OA
ATOM     77  H44 FA4 d          33.764  13.648  14.343  0.00  0.00     0.244 HD
ENDBRANCH  73  76
ENDBRANCH  54  72
ENDBRANCH  51  54
ENDBRANCH  47  50
ENDBRANCH  44  47
ENDBRANCH  41  44
ENDBRANCH   1  41
TORSDOF 20
ENDMDL
MODEL 9
REMARK VINA RESULT:      -6.5      3.572     11.254
REMARK  20 active torsions:
REMARK  status: ('A' for Active; 'I' for Inactive)
REMARK    1  A    between atoms: C3_3  and  C7_7 
REMARK    2  A    between atoms: C4_4  and  C27_27 
REMARK    3  A    between atoms: C7_7  and  C8_8 
REMARK    4  A    between atoms: C8_8  and  C9_9 
REMARK    5  A    between atoms: C9_9  and  C10_10 
REMARK    6  A    between atoms: C10_10  and  C11_11 
REMARK    7  A    between atoms: C11_11  and  C12_12 
REMARK    8  A    between atoms: C12_12  and  C13_13 
REMARK    9  A    between atoms: C13_13  and  C14_14 
REMARK   10  A    between atoms: C14_14  and  C15_15 
REMARK   11  A    between atoms: C15_15  and  C16_16 
REMARK       I    between atoms: C16_16  and  N17_17 
REMARK   12  A    between atoms: N17_17  and  C18_18 
REMARK   13  A    between atoms: C18_18  and  C20_20 
REMARK   14  A    between atoms: C18_18  and  C21_21 
REMARK   15  A    between atoms: C20_20  and  C23_23 
REMARK       I    between atoms: C21_21  and  N22_22 
REMARK   16  A    between atoms: N22_22  and  O32_32 
REMARK   17  A    between atoms: C23_23  and  C24_24 
REMARK   18  A    between atoms: C24_24  and  C25_25 
REMARK   19  A    between atoms: C25_25  and  N26_26 
REMARK   20  A    between atoms: C27_27  and  N28_28 
REMARK       I    between atoms: N28_28  and  C29_29 
REMARK       I    between atoms: C29_29  and  N30_30 
ROOT
ATOM      1  C12 FA4 d          31.029   4.877  15.622  0.00  0.00    -0.065 C 
ATOM      2  H15 FA4 d          31.584   4.328  16.397  0.00  0.00     0.033 H 
ATOM      3  H16 FA4 d          31.729   5.229  14.850  0.00  0.00     0.033 H 
ENDROOT
BRANCH   1   4
ATOM      4  C11 FA4 d          30.364   6.096  16.268  0.00  0.00    -0.065 C 
ATOM      5  H13 FA4 d          30.262   6.887  15.511  0.00  0.00     0.033 H 
ATOM      6  H14 FA4 d          29.366   5.804  16.629  0.00  0.00     0.033 H 
BRANCH   4   7
ATOM      7  C10 FA4 d          31.174   6.642  17.446  0.00  0.00    -0.065 C 
ATOM      8  H11 FA4 d          31.361   5.820  18.153  0.00  0.00     0.033 H 
ATOM      9  H12 FA4 d          32.133   7.022  17.064  0.00  0.00     0.033 H 
BRANCH   7  10
ATOM     10  C9  FA4 d          30.466   7.776  18.194  0.00  0.00    -0.065 C 
ATOM     11  H9  FA4 d          29.453   7.440  18.464  0.00  0.00     0.033 H 
ATOM     12  H10 FA4 d          31.033   8.003  19.108  0.00  0.00     0.033 H 
BRANCH  10  13
ATOM     13  C8  FA4 d          30.351   9.052  17.360  0.00  0.00    -0.061 C 
ATOM     14  H7  FA4 d          29.577   8.904  16.592  0.00  0.00     0.033 H 
ATOM     15  H8  FA4 d          30.057   9.881  18.022  0.00  0.00     0.033 H 
BRANCH  13  16
ATOM     16  C7  FA4 d          31.672   9.422  16.663  0.00  0.00    -0.040 C 
ATOM     17  H5  FA4 d          32.476   9.431  17.414  0.00  0.00     0.040 H 
ATOM     18  H6  FA4 d          31.893   8.662  15.899  0.00  0.00     0.040 H 
BRANCH  16  19
ATOM     19  C3  FA4 d          31.610  10.774  16.000  0.00  0.00    -0.050 A 
ATOM     20  C2  FA4 d          30.560  11.684  16.354  0.00  0.00    -0.076 A 
ATOM     21  C1  FA4 d          30.475  12.972  15.743  0.00  0.00    -0.082 A 
ATOM     22  H2  FA4 d          29.822  11.392  17.092  0.00  0.00     0.084 H 
ATOM     23  C6  FA4 d          31.434  13.378  14.761  0.00  0.00    -0.082 A 
ATOM     24  H1  FA4 d          29.676  13.648  16.025  0.00  0.00     0.083 H 
ATOM     25  C5  FA4 d          32.498  12.485  14.389  0.00  0.00    -0.075 A 
ATOM     26  H4  FA4 d          31.358  14.356  14.299  0.00  0.00     0.083 H 
ATOM     27  C4  FA4 d          32.599  11.184  14.996  0.00  0.00    -0.034 A 
ATOM     28  H3  FA4 d          33.228  12.794  13.649  0.00  0.00     0.084 H 
BRANCH  27  29
ATOM     29  C27 FA4 d          33.758  10.311  14.547  0.00  0.00     0.033 C 
ATOM     30  H37 FA4 d          34.272   9.913  15.434  0.00  0.00     0.072 H 
ATOM     31  H38 FA4 d          34.460  10.921  13.961  0.00  0.00     0.072 H 
BRANCH  29  32
ATOM     32  N28 FA4 d          33.290   9.192  13.720  0.00  0.00    -0.223 N 
ATOM     33  C29 FA4 d          34.183   8.271  13.213  0.00  0.00     0.665 C 
ATOM     34  N30 FA4 d          33.779   7.027  12.981  0.00  0.00    -0.235 N 
ATOM     35  N31 FA4 d          35.455   8.606  12.954  0.00  0.00    -0.235 N 
ATOM     36  H40 FA4 d          34.439   6.333  12.602  0.00  0.00     0.174 HD
ATOM     37  H41 FA4 d          32.805   6.757  13.180  0.00  0.00     0.174 HD
ATOM     38  H42 FA4 d          35.780   9.567  13.130  0.00  0.00     0.174 HD
ATOM     39  H43 FA4 d          36.107   7.902  12.579  0.00  0.00     0.174 HD
ATOM     40  H39 FA4 d          32.285   9.093  13.517  0.00  0.00     0.178 HD
ENDBRANCH  29  32
ENDBRANCH  27  29
ENDBRANCH  16  19
ENDBRANCH  13  16
ENDBRANCH  10  13
ENDBRANCH   7  10
ENDBRANCH   4   7
ENDBRANCH   1   4
BRANCH   1  41
ATOM     41  C13 FA4 d          30.032   3.923  14.973  0.00  0.00    -0.065 C 
ATOM     42  H17 FA4 d          30.318   2.891  15.223  0.00  0.00     0.033 H 
ATOM     43  H18 FA4 d          30.073   4.060  13.882  0.00  0.00     0.033 H 
BRANCH  41  44
ATOM     44  C14 FA4 d          28.593   4.161  15.444  0.00  0.00    -0.057 C 
ATOM     45  H19 FA4 d          28.627   4.682  16.412  0.00  0.00     0.033 H 
ATOM     46  H20 FA4 d          28.103   3.184  15.570  0.00  0.00     0.033 H 
BRANCH  44  47
ATOM     47  C15 FA4 d          27.758   4.999  14.474  0.00  0.00     0.009 C 
ATOM     48  H21 FA4 d          28.418   5.417  13.699  0.00  0.00     0.047 H 
ATOM     49  H22 FA4 d          27.277   5.819  15.028  0.00  0.00     0.047 H 
BRANCH  47  50
ATOM     50  C16 FA4 d          26.675   4.142  13.803  0.00  0.00     0.218 C 
ATOM     51  N17 FA4 d          25.493   4.256  14.449  0.00  0.00    -0.348 N 
ATOM     52  H23 FA4 d          25.434   4.842  15.257  0.00  0.00     0.163 HD
ATOM     53  O19 FA4 d          26.912   3.460  12.803  0.00  0.00    -0.274 OA
BRANCH  51  54
ATOM     54  C18 FA4 d          24.307   3.552  13.999  0.00  0.00     0.091 C 
ATOM     55  H24 FA4 d          24.574   2.861  13.186  0.00  0.00     0.087 H 
BRANCH  54  56
ATOM     56  C20 FA4 d          23.320   4.597  13.474  0.00  0.00    -0.038 C 
ATOM     57  H25 FA4 d          23.885   5.495  13.187  0.00  0.00     0.036 H 
ATOM     58  H26 FA4 d          22.617   4.848  14.282  0.00  0.00     0.036 H 
BRANCH  56  59
ATOM     59  C23 FA4 d          22.516   4.128  12.265  0.00  0.00    -0.061 C 
ATOM     60  H28 FA4 d          23.089   3.354  11.734  0.00  0.00     0.033 H 
ATOM     61  H29 FA4 d          22.348   4.985  11.595  0.00  0.00     0.033 H 
BRANCH  59  62
ATOM     62  C24 FA4 d          21.162   3.548  12.674  0.00  0.00    -0.043 C 
ATOM     63  H30 FA4 d          20.381   4.296  12.472  0.00  0.00     0.035 H 
ATOM     64  H31 FA4 d          21.184   3.323  13.750  0.00  0.00     0.035 H 
BRANCH  62  65
ATOM     65  C25 FA4 d          20.822   2.266  11.911  0.00  0.00     0.080 C 
ATOM     66  H32 FA4 d          21.312   2.301  10.928  0.00  0.00     0.075 H 
ATOM     67  H33 FA4 d          19.731   2.214  11.777  0.00  0.00     0.075 H 
BRANCH  65  68
ATOM     68  N26 FA4 d          21.264   1.066  12.611  0.00  0.00    -0.079 N 
ATOM     69  H34 FA4 d          20.507   0.703  13.168  0.00  0.00     0.274 HD
ATOM     70  H35 FA4 d          22.042   1.294  13.210  0.00  0.00     0.274 HD
ATOM     71  H36 FA4 d          21.549   0.371  11.939  0.00  0.00     0.274 HD
ENDBRANCH  65  68
ENDBRANCH  62  65
ENDBRANCH  59  62
ENDBRANCH  56  59
ENDBRANCH  54  56
BRANCH  54  72
ATOM     72  C21 FA4 d          23.702   2.744  15.161  0.00  0.00     0.263 C 
ATOM     73  N22 FA4 d          23.784   3.358  16.350  0.00  0.00    -0.236 N 
ATOM     74  H27 FA4 d          24.212   4.258  16.424  0.00  0.00     0.197 HD
ATOM     75  O33 FA4 d          23.190   1.644  14.977  0.00  0.00    -0.269 OA
BRANCH  73  76
ATOM     76  O32 FA4 d          23.267   2.728  17.486  0.00  0.00    -0.287 OA
ATOM     77  H44 FA4 d          23.331   1.786  17.380  0.00  0.00     0.244 HD
ENDBRANCH  73  76
ENDBRANCH  54  72
ENDBRANCH  51  54
ENDBRANCH  47  50
ENDBRANCH  44  47
ENDBRANCH  41  44
ENDBRANCH   1  41
TORSDOF 20
ENDMDL
MODEL 10
REMARK VINA RESULT:      -6.4      3.458      6.886
REMARK  20 active torsions:
REMARK  status: ('A' for Active; 'I' for Inactive)
REMARK    1  A    between atoms: C3_3  and  C7_7 
REMARK    2  A    between atoms: C4_4  and  C27_27 
REMARK    3  A    between atoms: C7_7  and  C8_8 
REMARK    4  A    between atoms: C8_8  and  C9_9 
REMARK    5  A    between atoms: C9_9  and  C10_10 
REMARK    6  A    between atoms: C10_10  and  C11_11 
REMARK    7  A    between atoms: C11_11  and  C12_12 
REMARK    8  A    between atoms: C12_12  and  C13_13 
REMARK    9  A    between atoms: C13_13  and  C14_14 
REMARK   10  A    between atoms: C14_14  and  C15_15 
REMARK   11  A    between atoms: C15_15  and  C16_16 
REMARK       I    between atoms: C16_16  and  N17_17 
REMARK   12  A    between atoms: N17_17  and  C18_18 
REMARK   13  A    between atoms: C18_18  and  C20_20 
REMARK   14  A    between atoms: C18_18  and  C21_21 
REMARK   15  A    between atoms: C20_20  and  C23_23 
REMARK       I    between atoms: C21_21  and  N22_22 
REMARK   16  A    between atoms: N22_22  and  O32_32 
REMARK   17  A    between atoms: C23_23  and  C24_24 
REMARK   18  A    between atoms: C24_24  and  C25_25 
REMARK   19  A    between atoms: C25_25  and  N26_26 
REMARK   20  A    between atoms: C27_27  and  N28_28 
REMARK       I    between atoms: N28_28  and  C29_29 
REMARK       I    between atoms: C29_29  and  N30_30 
ROOT
ATOM      1  C12 FA4 d          31.927  11.056  15.218  0.00  0.00    -0.065 C 
ATOM      2  H15 FA4 d          31.891  11.743  16.077  0.00  0.00     0.033 H 
ATOM      3  H16 FA4 d          31.022  11.186  14.607  0.00  0.00     0.033 H 
ENDROOT
BRANCH   1   4
ATOM      4  C11 FA4 d          31.956   9.619  15.745  0.00  0.00    -0.065 C 
ATOM      5  H13 FA4 d          30.988   9.142  15.528  0.00  0.00     0.033 H 
ATOM      6  H14 FA4 d          32.759   9.070  15.231  0.00  0.00     0.033 H 
BRANCH   4   7
ATOM      7  C10 FA4 d          32.207   9.559  17.254  0.00  0.00    -0.065 C 
ATOM      8  H11 FA4 d          32.961   8.783  17.452  0.00  0.00     0.033 H 
ATOM      9  H12 FA4 d          32.591  10.536  17.583  0.00  0.00     0.033 H 
BRANCH   7  10
ATOM     10  C9  FA4 d          30.949   9.233  18.064  0.00  0.00    -0.065 C 
ATOM     11  H9  FA4 d          31.048   9.682  19.064  0.00  0.00     0.033 H 
ATOM     12  H10 FA4 d          30.078   9.668  17.552  0.00  0.00     0.033 H 
BRANCH  10  13
ATOM     13  C8  FA4 d          30.721   7.730  18.224  0.00  0.00    -0.061 C 
ATOM     14  H7  FA4 d          31.677   7.209  18.064  0.00  0.00     0.033 H 
ATOM     15  H8  FA4 d          30.363   7.533  19.246  0.00  0.00     0.033 H 
BRANCH  13  16
ATOM     16  C7  FA4 d          29.687   7.182  17.225  0.00  0.00    -0.040 C 
ATOM     17  H5  FA4 d          28.868   6.710  17.788  0.00  0.00     0.040 H 
ATOM     18  H6  FA4 d          29.290   8.019  16.633  0.00  0.00     0.040 H 
BRANCH  16  19
ATOM     19  C3  FA4 d          30.282   6.163  16.287  0.00  0.00    -0.050 A 
ATOM     20  C2  FA4 d          31.702   5.961  16.276  0.00  0.00    -0.076 A 
ATOM     21  C1  FA4 d          32.295   5.004  15.398  0.00  0.00    -0.082 A 
ATOM     22  H2  FA4 d          32.332   6.541  16.940  0.00  0.00     0.084 H 
ATOM     23  C6  FA4 d          31.485   4.230  14.508  0.00  0.00    -0.082 A 
ATOM     24  H1  FA4 d          33.370   4.862  15.406  0.00  0.00     0.083 H 
ATOM     25  C5  FA4 d          30.058   4.412  14.499  0.00  0.00    -0.075 A 
ATOM     26  H4  FA4 d          31.945   3.509  13.841  0.00  0.00     0.083 H 
ATOM     27  C4  FA4 d          29.444   5.372  15.379  0.00  0.00    -0.034 A 
ATOM     28  H3  FA4 d          29.443   3.823  13.828  0.00  0.00     0.084 H 
BRANCH  27  29
ATOM     29  C27 FA4 d          27.931   5.492  15.305  0.00  0.00     0.033 C 
ATOM     30  H37 FA4 d          27.635   6.499  15.632  0.00  0.00     0.072 H 
ATOM     31  H38 FA4 d          27.480   4.743  15.972  0.00  0.00     0.072 H 
BRANCH  29  32
ATOM     32  N28 FA4 d          27.447   5.269  13.937  0.00  0.00    -0.223 N 
ATOM     33  C29 FA4 d          26.274   4.582  13.710  0.00  0.00     0.665 C 
ATOM     34  N30 FA4 d          25.558   4.850  12.624  0.00  0.00    -0.235 N 
ATOM     35  N31 FA4 d          25.837   3.649  14.569  0.00  0.00    -0.235 N 
ATOM     36  H40 FA4 d          24.680   4.340  12.446  0.00  0.00     0.174 HD
ATOM     37  H41 FA4 d          25.881   5.566  11.958  0.00  0.00     0.174 HD
ATOM     38  H42 FA4 d          26.383   3.433  15.415  0.00  0.00     0.174 HD
ATOM     39  H43 FA4 d          24.956   3.149  14.383  0.00  0.00     0.174 HD
ATOM     40  H39 FA4 d          27.989   5.631  13.139  0.00  0.00     0.178 HD
ENDBRANCH  29  32
ENDBRANCH  27  29
ENDBRANCH  16  19
ENDBRANCH  13  16
ENDBRANCH  10  13
ENDBRANCH   7  10
ENDBRANCH   4   7
ENDBRANCH   1   4
BRANCH   1  41
ATOM     41  C13 FA4 d          33.141  11.408  14.366  0.00  0.00    -0.065 C 
ATOM     42  H17 FA4 d          32.802  11.974  13.487  0.00  0.00     0.033 H 
ATOM     43  H18 FA4 d          33.623  10.475  14.039  0.00  0.00     0.033 H 
BRANCH  41  44
ATOM     44  C14 FA4 d          34.171  12.252  15.125  0.00  0.00    -0.057 C 
ATOM     45  H19 FA4 d          33.648  12.809  15.917  0.00  0.00     0.033 H 
ATOM     46  H20 FA4 d          34.628  12.961  14.418  0.00  0.00     0.033 H 
BRANCH  44  47
ATOM     47  C15 FA4 d          35.287  11.429  15.771  0.00  0.00     0.009 C 
ATOM     48  H21 FA4 d          34.842  10.579  16.309  0.00  0.00     0.047 H 
ATOM     49  H22 FA4 d          35.839  12.065  16.480  0.00  0.00     0.047 H 
BRANCH  47  50
ATOM     50  C16 FA4 d          36.260  10.898  14.709  0.00  0.00     0.218 C 
ATOM     51  N17 FA4 d          35.613  10.163  13.778  0.00  0.00    -0.348 N 
ATOM     52  H23 FA4 d          34.626  10.030  13.862  0.00  0.00     0.163 HD
ATOM     53  O19 FA4 d          37.468  11.148  14.750  0.00  0.00    -0.274 OA
BRANCH  51  54
ATOM     54  C18 FA4 d          36.314   9.560  12.660  0.00  0.00     0.091 C 
ATOM     55  H24 FA4 d          37.286   9.175  12.998  0.00  0.00     0.087 H 
BRANCH  54  56
ATOM     56  C20 FA4 d          36.538  10.653  11.611  0.00  0.00    -0.038 C 
ATOM     57  H25 FA4 d          36.981  10.190  10.717  0.00  0.00     0.036 H 
ATOM     58  H26 FA4 d          37.238  11.394  12.026  0.00  0.00     0.036 H 
BRANCH  56  59
ATOM     59  C23 FA4 d          35.262  11.377  11.196  0.00  0.00    -0.061 C 
ATOM     60  H28 FA4 d          34.402  10.884  11.673  0.00  0.00     0.033 H 
ATOM     61  H29 FA4 d          35.158  11.317  10.102  0.00  0.00     0.033 H 
BRANCH  59  62
ATOM     62  C24 FA4 d          35.282  12.848  11.611  0.00  0.00    -0.043 C 
ATOM     63  H30 FA4 d          34.824  12.940  12.607  0.00  0.00     0.035 H 
ATOM     64  H31 FA4 d          34.696  13.428  10.883  0.00  0.00     0.035 H 
BRANCH  62  65
ATOM     65  C25 FA4 d          36.700  13.419  11.668  0.00  0.00     0.080 C 
ATOM     66  H32 FA4 d          36.736  14.332  11.057  0.00  0.00     0.075 H 
ATOM     67  H33 FA4 d          37.397  12.674  11.257  0.00  0.00     0.075 H 
BRANCH  65  68
ATOM     68  N26 FA4 d          37.115  13.749  13.026  0.00  0.00    -0.079 N 
ATOM     69  H34 FA4 d          38.109  13.615  13.115  0.00  0.00     0.274 HD
ATOM     70  H35 FA4 d          36.634  13.150  13.679  0.00  0.00     0.274 HD
ATOM     71  H36 FA4 d          36.888  14.711  13.222  0.00  0.00     0.274 HD
ENDBRANCH  65  68
ENDBRANCH  62  65
ENDBRANCH  59  62
ENDBRANCH  56  59
ENDBRANCH  54  56
BRANCH  54  72
ATOM     72  C21 FA4 d          35.488   8.395  12.086  0.00  0.00     0.263 C 
ATOM     73  N22 FA4 d          34.559   7.922  12.928  0.00  0.00    -0.236 N 
ATOM     74  H27 FA4 d          34.452   8.322  13.838  0.00  0.00     0.197 HD
ATOM     75  O33 FA4 d          35.684   7.970  10.952  0.00  0.00    -0.269 OA
BRANCH  73  76
ATOM     76  O32 FA4 d          33.740   6.864  12.524  0.00  0.00    -0.287 OA
ATOM     77  H44 FA4 d          33.627   6.895  11.581  0.00  0.00     0.244 HD
ENDBRANCH  73  76
ENDBRANCH  54  72
ENDBRANCH  51  54
ENDBRANCH  47  50
ENDBRANCH  44  47
ENDBRANCH  41  44
ENDBRANCH   1  41
TORSDOF 20
ENDMDL
