MODEL 1
REMARK VINA RESULT:      -7.9      0.000      0.000
REMARK  4 active torsions:
REMARK  status: ('A' for Active; 'I' for Inactive)
REMARK    1  A    between atoms: CA_2  and  N_1 
REMARK    2  A    between atoms: CA_2  and  CB_5 
REMARK    3  A    between atoms: CA_2  and  C_3 
REMARK    4  A    between atoms: CB_5  and  CG_6 
ROOT
ATOM      1  CG  TRP d         -27.472  -4.769 -21.882  0.00  0.00    -0.028 A 
ATOM      2  CD1 TRP d         -28.025  -5.709 -22.711  0.00  0.00    -0.015 A 
ATOM      3  CD2 TRP d         -28.330  -3.621 -21.949  0.00  0.00    -0.002 A 
ATOM      4  NE1 TRP d         -29.174  -5.222 -23.282  0.00  0.00    -0.365 N 
ATOM      5  CE2 TRP d         -29.394  -3.947 -22.831  0.00  0.00     0.042 A 
ATOM      6  CE3 TRP d         -28.314  -2.361 -21.338  0.00  0.00    -0.070 A 
ATOM      7  CZ2 TRP d         -30.425  -3.054 -23.132  0.00  0.00    -0.056 A 
ATOM      8  CZ3 TRP d         -29.343  -1.465 -21.636  0.00  0.00    -0.082 A 
ATOM      9  CH2 TRP d         -30.394  -1.825 -22.528  0.00  0.00    -0.081 A 
ATOM     10  H7  TRP d         -27.611  -6.701 -22.891  0.00  0.00     0.112 H 
ATOM     11  H8  TRP d         -29.776  -5.733 -23.944  0.00  0.00     0.165 HD
ATOM     12  H9  TRP d         -27.522  -2.087 -20.650  0.00  0.00     0.084 H 
ATOM     13  H10 TRP d         -31.219  -3.324 -23.818  0.00  0.00     0.086 H 
ATOM     14  H11 TRP d         -29.341  -0.480 -21.182  0.00  0.00     0.083 H 
ATOM     15  H12 TRP d         -31.185  -1.113 -22.732  0.00  0.00     0.083 H 
ENDROOT
BRANCH   1  16
ATOM     16  CB  TRP d         -26.243  -4.921 -21.056  0.00  0.00    -0.003 C 
ATOM     17  H5  TRP d         -25.988  -5.990 -21.021  0.00  0.00     0.044 H 
ATOM     18  H6  TRP d         -25.431  -4.366 -21.550  0.00  0.00     0.044 H 
BRANCH  16  19
ATOM     19  CA  TRP d         -26.356  -4.410 -19.610  0.00  0.00     0.186 C 
ATOM     20  H4  TRP d         -27.213  -3.724 -19.536  0.00  0.00     0.101 H 
BRANCH  19  21
ATOM     21  N   TRP d         -25.154  -3.676 -19.250  0.00  0.00    -0.065 N 
ATOM     22  H1  TRP d         -25.347  -3.082 -18.459  0.00  0.00     0.275 HD
ATOM     23  H2  TRP d         -24.858  -3.110 -20.030  0.00  0.00     0.275 HD
ATOM     24  H3  TRP d         -24.422  -4.326 -19.011  0.00  0.00     0.275 HD
ENDBRANCH  19  21
BRANCH  19  25
ATOM     25  C   TRP d         -26.611  -5.609 -18.689  0.00  0.00     0.204 C 
ATOM     26  O   TRP d         -27.664  -6.238 -18.717  0.00  0.00    -0.646 OA
ATOM     27  OXT TRP d         -25.754  -6.002 -17.896  0.00  0.00    -0.646 OA
ENDBRANCH  19  25
ENDBRANCH  16  19
ENDBRANCH   1  16
TORSDOF 4
ENDMDL
MODEL 2
REMARK VINA RESULT:      -6.6      1.481      2.611
REMARK  4 active torsions:
REMARK  status: ('A' for Active; 'I' for Inactive)
REMARK    1  A    between atoms: CA_2  and  N_1 
REMARK    2  A    between atoms: CA_2  and  CB_5 
REMARK    3  A    between atoms: CA_2  and  C_3 
REMARK    4  A    between atoms: CB_5  and  CG_6 
ROOT
ATOM      1  CG  TRP d         -28.150  -3.360 -20.388  0.00  0.00    -0.028 A 
ATOM      2  CD1 TRP d         -28.373  -2.109 -20.900  0.00  0.00    -0.015 A 
ATOM      3  CD2 TRP d         -28.310  -4.275 -21.481  0.00  0.00    -0.002 A 
ATOM      4  NE1 TRP d         -28.654  -2.190 -22.242  0.00  0.00    -0.365 N 
ATOM      5  CE2 TRP d         -28.617  -3.502 -22.631  0.00  0.00     0.042 A 
ATOM      6  CE3 TRP d         -28.206  -5.667 -21.603  0.00  0.00    -0.070 A 
ATOM      7  CZ2 TRP d         -28.839  -4.073 -23.886  0.00  0.00    -0.056 A 
ATOM      8  CZ3 TRP d         -28.427  -6.242 -22.856  0.00  0.00    -0.082 A 
ATOM      9  CH2 TRP d         -28.735  -5.435 -23.989  0.00  0.00    -0.081 A 
ATOM     10  H7  TRP d         -28.334  -1.185 -20.326  0.00  0.00     0.112 H 
ATOM     11  H8  TRP d         -28.861  -1.390 -22.858  0.00  0.00     0.165 HD
ATOM     12  H9  TRP d         -27.960  -6.284 -20.746  0.00  0.00     0.084 H 
ATOM     13  H10 TRP d         -29.083  -3.460 -24.746  0.00  0.00     0.086 H 
ATOM     14  H11 TRP d         -28.362  -7.318 -22.969  0.00  0.00     0.083 H 
ATOM     15  H12 TRP d         -28.891  -5.908 -24.952  0.00  0.00     0.083 H 
ENDROOT
BRANCH   1  16
ATOM     16  CB  TRP d         -27.785  -3.696 -18.985  0.00  0.00    -0.003 C 
ATOM     17  H5  TRP d         -28.060  -2.842 -18.349  0.00  0.00     0.044 H 
ATOM     18  H6  TRP d         -28.367  -4.579 -18.684  0.00  0.00     0.044 H 
BRANCH  16  19
ATOM     19  CA  TRP d         -26.297  -4.005 -18.748  0.00  0.00     0.186 C 
ATOM     20  H4  TRP d         -25.940  -3.421 -17.887  0.00  0.00     0.101 H 
BRANCH  19  21
ATOM     21  N   TRP d         -25.520  -3.618 -19.914  0.00  0.00    -0.065 N 
ATOM     22  H1  TRP d         -25.615  -4.321 -20.629  0.00  0.00     0.275 HD
ATOM     23  H2  TRP d         -24.549  -3.529 -19.657  0.00  0.00     0.275 HD
ATOM     24  H3  TRP d         -25.857  -2.735 -20.264  0.00  0.00     0.275 HD
ENDBRANCH  19  21
BRANCH  19  25
ATOM     25  C   TRP d         -26.157  -5.496 -18.416  0.00  0.00     0.204 C 
ATOM     26  O   TRP d         -27.128  -6.242 -18.354  0.00  0.00    -0.646 OA
ATOM     27  OXT TRP d         -25.054  -6.007 -18.220  0.00  0.00    -0.646 OA
ENDBRANCH  19  25
ENDBRANCH  16  19
ENDBRANCH   1  16
TORSDOF 4
ENDMDL
MODEL 3
REMARK VINA RESULT:      -6.5      2.663      4.895
REMARK  4 active torsions:
REMARK  status: ('A' for Active; 'I' for Inactive)
REMARK    1  A    between atoms: CA_2  and  N_1 
REMARK    2  A    between atoms: CA_2  and  CB_5 
REMARK    3  A    between atoms: CA_2  and  C_3 
REMARK    4  A    between atoms: CB_5  and  CG_6 
ROOT
ATOM      1  CG  TRP d         -27.586  -4.161 -22.547  0.00  0.00    -0.028 A 
ATOM      2  CD1 TRP d         -26.339  -3.625 -22.732  0.00  0.00    -0.015 A 
ATOM      3  CD2 TRP d         -27.549  -4.834 -21.281  0.00  0.00    -0.002 A 
ATOM      4  NE1 TRP d         -25.534  -3.916 -21.658  0.00  0.00    -0.365 N 
ATOM      5  CE2 TRP d         -26.247  -4.650 -20.748  0.00  0.00     0.042 A 
ATOM      6  CE3 TRP d         -28.493  -5.557 -20.539  0.00  0.00    -0.070 A 
ATOM      7  CZ2 TRP d         -25.855  -5.175 -19.514  0.00  0.00    -0.056 A 
ATOM      8  CZ3 TRP d         -28.105  -6.084 -19.305  0.00  0.00    -0.082 A 
ATOM      9  CH2 TRP d         -26.788  -5.881 -18.802  0.00  0.00    -0.081 A 
ATOM     10  H7  TRP d         -26.031  -3.051 -23.604  0.00  0.00     0.112 H 
ATOM     11  H8  TRP d         -24.550  -3.628 -21.554  0.00  0.00     0.165 HD
ATOM     12  H9  TRP d         -29.500  -5.704 -20.913  0.00  0.00     0.084 H 
ATOM     13  H10 TRP d         -24.850  -5.029 -19.135  0.00  0.00     0.086 H 
ATOM     14  H11 TRP d         -28.818  -6.656 -18.722  0.00  0.00     0.083 H 
ATOM     15  H12 TRP d         -26.520  -6.292 -17.836  0.00  0.00     0.083 H 
ENDROOT
BRANCH   1  16
ATOM     16  CB  TRP d         -28.751  -4.043 -23.465  0.00  0.00    -0.003 C 
ATOM     17  H5  TRP d         -28.414  -4.307 -24.478  0.00  0.00     0.044 H 
ATOM     18  H6  TRP d         -29.518  -4.759 -23.135  0.00  0.00     0.044 H 
BRANCH  16  19
ATOM     19  CA  TRP d         -29.400  -2.649 -23.528  0.00  0.00     0.186 C 
ATOM     20  H4  TRP d         -30.338  -2.714 -24.099  0.00  0.00     0.101 H 
BRANCH  19  21
ATOM     21  N   TRP d         -28.513  -1.722 -24.211  0.00  0.00    -0.065 N 
ATOM     22  H1  TRP d         -29.022  -0.886 -24.452  0.00  0.00     0.275 HD
ATOM     23  H2  TRP d         -28.158  -2.153 -25.051  0.00  0.00     0.275 HD
ATOM     24  H3  TRP d         -27.744  -1.484 -23.605  0.00  0.00     0.275 HD
ENDBRANCH  19  21
BRANCH  19  25
ATOM     25  C   TRP d         -29.730  -2.202 -22.099  0.00  0.00     0.204 C 
ATOM     26  O   TRP d         -29.005  -1.435 -21.473  0.00  0.00    -0.646 OA
ATOM     27  OXT TRP d         -30.754  -2.581 -21.530  0.00  0.00    -0.646 OA
ENDBRANCH  19  25
ENDBRANCH  16  19
ENDBRANCH   1  16
TORSDOF 4
ENDMDL
