MODEL 1
REMARK VINA RESULT:      -7.9      0.000      0.000
REMARK  10 active torsions:
REMARK  status: ('A' for Active; 'I' for Inactive)
REMARK    1  A    between atoms: C1_1  and  O8_8 
REMARK    2  A    between atoms: C2_2  and  O9_9 
REMARK    3  A    between atoms: C3_3  and  N7_7 
REMARK    4  A    between atoms: C5_5  and  C6_6 
REMARK    5  A    between atoms: C10_10  and  C11_11 
REMARK    6  A    between atoms: C11_11  and  N12_12 
REMARK       I    between atoms: N12_12  and  C13_13 
REMARK    7  A    between atoms: C13_13  and  C14_14 
REMARK    8  A    between atoms: C15_15  and  O21_21 
REMARK    9  A    between atoms: C16_16  and  O22_22 
REMARK   10  A    between atoms: C18_18  and  N20_20 
ROOT
ATOM      1  C6  OZZ d          34.482  -4.174 -12.104  0.00  0.00    -0.075 C 
ATOM      2  C10 OZZ d          34.768  -5.261 -11.420  0.00  0.00    -0.087 C 
ATOM      3  H5  OZZ d          33.517  -3.696 -11.940  0.00  0.00     0.080 H 
ATOM      4  H8  OZZ d          35.735  -5.734 -11.584  0.00  0.00     0.079 H 
ENDROOT
BRANCH   1   5
ATOM      5  C5  OZZ d          35.415  -3.567 -13.090  0.00  0.00     0.084 C 
ATOM      6  C1  OZZ d          36.831  -3.341 -12.398  0.00  0.00     0.092 C 
ATOM      7  C2  OZZ d          36.603  -1.901 -11.946  0.00  0.00     0.105 C 
ATOM      8  H1  OZZ d          37.036  -4.036 -11.571  0.00  0.00     0.091 H 
ATOM      9  C3  OZZ d          35.924  -1.262 -13.192  0.00  0.00     0.137 C 
ATOM     10  H2  OZZ d          35.926  -1.893 -11.078  0.00  0.00     0.093 H 
ATOM     11  O4  OZZ d          34.932  -2.284 -13.499  0.00  0.00    -0.352 OA
ATOM     12  H3  OZZ d          36.667  -1.159 -13.998  0.00  0.00     0.122 H 
ATOM     13  H4  OZZ d          35.517  -4.230 -13.962  0.00  0.00     0.093 H 
BRANCH   6  14
ATOM     14  O8  OZZ d          37.865  -3.393 -13.390  0.00  0.00    -0.390 OA
ATOM     15  H6  OZZ d          38.686  -3.107 -13.005  0.00  0.00     0.210 HD
ENDBRANCH   6  14
BRANCH   7  16
ATOM     16  O9  OZZ d          37.782  -1.123 -11.607  0.00  0.00    -0.388 OA
ATOM     17  H7  OZZ d          37.944  -1.185 -10.673  0.00  0.00     0.210 HD
ENDBRANCH   7  16
BRANCH   9  18
ATOM     18  N7  OZZ d          35.249  -0.017 -13.060  0.00  0.00    -0.337 N 
ATOM     19  C26 OZZ d          34.226   0.315 -14.008  0.00  0.00    -0.014 A 
ATOM     20  C27 OZZ d          33.557   1.511 -13.942  0.00  0.00    -0.020 A 
ATOM     21  H16 OZZ d          33.975  -0.395 -14.795  0.00  0.00     0.111 H 
ATOM     22  C28 OZZ d          33.823   2.460 -12.878  0.00  0.00     0.174 A 
ATOM     23  H17 OZZ d          32.815   1.752 -14.701  0.00  0.00     0.091 H 
ATOM     24  C30 OZZ d          34.917   2.095 -11.948  0.00  0.00    -0.020 A 
ATOM     25  O31 OZZ d          33.144   3.469 -12.744  0.00  0.00    -0.288 OA
ATOM     26  C29 OZZ d          35.546   0.928 -12.098  0.00  0.00    -0.014 A 
ATOM     27  H19 OZZ d          35.207   2.775 -11.148  0.00  0.00     0.091 H 
ATOM     28  H18 OZZ d          36.358   0.702 -11.408  0.00  0.00     0.111 H 
ENDBRANCH   9  18
ENDBRANCH   1   5
BRANCH   2  29
ATOM     29  C11 OZZ d          33.839  -5.882 -10.432  0.00  0.00     0.010 C 
ATOM     30  H9  OZZ d          33.305  -6.722 -10.902  0.00  0.00     0.070 H 
ATOM     31  H10 OZZ d          33.111  -5.133 -10.087  0.00  0.00     0.070 H 
BRANCH  29  32
ATOM     32  N12 OZZ d          34.604  -6.362  -9.315  0.00  0.00    -0.353 N 
ATOM     33  C13 OZZ d          35.114  -5.563  -8.384  0.00  0.00     0.254 C 
ATOM     34  O23 OZZ d          34.844  -4.310  -8.436  0.00  0.00    -0.268 OA
ATOM     35  H11 OZZ d          34.761  -7.345  -9.234  0.00  0.00     0.163 HD
BRANCH  33  36
ATOM     36  C14 OZZ d          35.978  -6.098  -7.319  0.00  0.00     0.070 A 
ATOM     37  C15 OZZ d          35.877  -7.451  -6.838  0.00  0.00     0.114 A 
ATOM     38  C16 OZZ d          36.804  -7.831  -5.843  0.00  0.00     0.102 A 
ATOM     39  C17 OZZ d          37.796  -7.025  -5.294  0.00  0.00    -0.016 A 
ATOM     40  C18 OZZ d          37.875  -5.698  -5.859  0.00  0.00     0.106 A 
ATOM     41  H12 OZZ d          38.457  -7.366  -4.505  0.00  0.00     0.091 H 
ATOM     42  C19 OZZ d          36.951  -5.300  -6.833  0.00  0.00    -0.033 A 
ATOM     43  H13 OZZ d          37.022  -4.289  -7.219  0.00  0.00     0.089 H 
BRANCH  37  44
ATOM     44  O21 OZZ d          34.941  -8.248  -7.266  0.00  0.00    -0.357 OA
ATOM     45  H14 OZZ d          35.109  -8.475  -8.172  0.00  0.00     0.217 HD
ENDBRANCH  37  44
BRANCH  38  46
ATOM     46  O22 OZZ d          36.664  -9.138  -5.369  0.00  0.00    -0.358 OA
ATOM     47  H15 OZZ d          37.439  -9.640  -5.593  0.00  0.00     0.217 HD
ENDBRANCH  38  46
BRANCH  40  48
ATOM     48  N20 OZZ d          38.885  -4.816  -5.308  0.00  0.00    -0.116 N 
ATOM     49  O24 OZZ d          39.876  -5.255  -4.828  0.00  0.00    -0.532 OA
ATOM     50  O25 OZZ d          38.684  -3.614  -5.359  0.00  0.00    -0.532 OA
ENDBRANCH  40  48
ENDBRANCH  33  36
ENDBRANCH  29  32
ENDBRANCH   2  29
TORSDOF 10
ENDMDL
MODEL 2
REMARK VINA RESULT:      -7.8      1.503      2.089
REMARK  10 active torsions:
REMARK  status: ('A' for Active; 'I' for Inactive)
REMARK    1  A    between atoms: C1_1  and  O8_8 
REMARK    2  A    between atoms: C2_2  and  O9_9 
REMARK    3  A    between atoms: C3_3  and  N7_7 
REMARK    4  A    between atoms: C5_5  and  C6_6 
REMARK    5  A    between atoms: C10_10  and  C11_11 
REMARK    6  A    between atoms: C11_11  and  N12_12 
REMARK       I    between atoms: N12_12  and  C13_13 
REMARK    7  A    between atoms: C13_13  and  C14_14 
REMARK    8  A    between atoms: C15_15  and  O21_21 
REMARK    9  A    between atoms: C16_16  and  O22_22 
REMARK   10  A    between atoms: C18_18  and  N20_20 
ROOT
ATOM      1  C6  OZZ d          35.104  -3.497 -11.469  0.00  0.00    -0.075 C 
ATOM      2  C10 OZZ d          34.881  -4.754 -11.147  0.00  0.00    -0.087 C 
ATOM      3  H5  OZZ d          35.064  -2.745 -10.682  0.00  0.00     0.080 H 
ATOM      4  H8  OZZ d          34.927  -5.503 -11.936  0.00  0.00     0.079 H 
ENDROOT
BRANCH   1   5
ATOM      5  C5  OZZ d          35.409  -3.057 -12.856  0.00  0.00     0.084 C 
ATOM      6  C1  OZZ d          36.959  -2.710 -12.965  0.00  0.00     0.092 C 
ATOM      7  C2  OZZ d          36.849  -1.216 -12.670  0.00  0.00     0.105 C 
ATOM      8  H1  OZZ d          37.587  -3.256 -12.246  0.00  0.00     0.091 H 
ATOM      9  C3  OZZ d          35.613  -0.797 -13.518  0.00  0.00     0.137 C 
ATOM     10  H2  OZZ d          36.661  -1.068 -11.596  0.00  0.00     0.093 H 
ATOM     11  O4  OZZ d          34.683  -1.862 -13.164  0.00  0.00    -0.352 OA
ATOM     12  H3  OZZ d          35.877  -0.826 -14.586  0.00  0.00     0.122 H 
ATOM     13  H4  OZZ d          35.145  -3.854 -13.565  0.00  0.00     0.093 H 
BRANCH   6  14
ATOM     14  O8  OZZ d          37.406  -2.919 -14.311  0.00  0.00    -0.390 OA
ATOM     15  H6  OZZ d          37.637  -3.834 -14.427  0.00  0.00     0.210 HD
ENDBRANCH   6  14
BRANCH   7  16
ATOM     16  O9  OZZ d          37.978  -0.385 -13.051  0.00  0.00    -0.388 OA
ATOM     17  H7  OZZ d          38.182   0.215 -12.343  0.00  0.00     0.210 HD
ENDBRANCH   7  16
BRANCH   9  18
ATOM     18  N7  OZZ d          34.976   0.448 -13.259  0.00  0.00    -0.337 N 
ATOM     19  C26 OZZ d          33.884   0.849 -14.097  0.00  0.00    -0.014 A 
ATOM     20  C27 OZZ d          33.246   2.049 -13.907  0.00  0.00    -0.020 A 
ATOM     21  H16 OZZ d          33.554   0.189 -14.898  0.00  0.00     0.111 H 
ATOM     22  C28 OZZ d          33.620   2.931 -12.817  0.00  0.00     0.174 A 
ATOM     23  H17 OZZ d          32.448   2.344 -14.585  0.00  0.00     0.091 H 
ATOM     24  C30 OZZ d          34.780   2.497 -12.006  0.00  0.00    -0.020 A 
ATOM     25  O31 OZZ d          32.974   3.940 -12.570  0.00  0.00    -0.288 OA
ATOM     26  C29 OZZ d          35.371   1.331 -12.275  0.00  0.00    -0.014 A 
ATOM     27  H19 OZZ d          35.149   3.125 -11.196  0.00  0.00     0.091 H 
ATOM     28  H18 OZZ d          36.233   1.054 -11.669  0.00  0.00     0.111 H 
ENDBRANCH   9  18
ENDBRANCH   1   5
BRANCH   2  29
ATOM     29  C11 OZZ d          34.570  -5.207  -9.760  0.00  0.00     0.010 C 
ATOM     30  H9  OZZ d          34.433  -6.299  -9.750  0.00  0.00     0.070 H 
ATOM     31  H10 OZZ d          33.649  -4.719  -9.410  0.00  0.00     0.070 H 
BRANCH  29  32
ATOM     32  N12 OZZ d          35.663  -4.848  -8.900  0.00  0.00    -0.353 N 
ATOM     33  C13 OZZ d          35.887  -5.427  -7.726  0.00  0.00     0.254 C 
ATOM     34  O23 OZZ d          35.142  -6.411  -7.375  0.00  0.00    -0.268 OA
ATOM     35  H11 OZZ d          36.287  -4.127  -9.200  0.00  0.00     0.163 HD
BRANCH  33  36
ATOM     36  C14 OZZ d          36.960  -4.949  -6.839  0.00  0.00     0.070 A 
ATOM     37  C15 OZZ d          37.810  -5.839  -6.091  0.00  0.00     0.114 A 
ATOM     38  C16 OZZ d          38.822  -5.232  -5.318  0.00  0.00     0.102 A 
ATOM     39  C17 OZZ d          39.072  -3.867  -5.216  0.00  0.00    -0.016 A 
ATOM     40  C18 OZZ d          38.217  -3.036  -6.033  0.00  0.00     0.106 A 
ATOM     41  H12 OZZ d          39.846  -3.459  -4.575  0.00  0.00     0.091 H 
ATOM     42  C19 OZZ d          37.196  -3.621  -6.791  0.00  0.00    -0.033 A 
ATOM     43  H13 OZZ d          36.556  -2.968  -7.373  0.00  0.00     0.089 H 
BRANCH  37  44
ATOM     44  O21 OZZ d          37.605  -7.124  -6.094  0.00  0.00    -0.357 OA
ATOM     45  H14 OZZ d          36.889  -7.329  -6.684  0.00  0.00     0.217 HD
ENDBRANCH  37  44
BRANCH  38  46
ATOM     46  O22 OZZ d          39.612  -6.114  -4.575  0.00  0.00    -0.358 OA
ATOM     47  H15 OZZ d          40.253  -5.621  -4.078  0.00  0.00     0.217 HD
ENDBRANCH  38  46
BRANCH  40  48
ATOM     48  N20 OZZ d          38.430  -1.605  -5.949  0.00  0.00    -0.116 N 
ATOM     49  O24 OZZ d          37.721  -0.925  -5.284  0.00  0.00    -0.532 OA
ATOM     50  O25 OZZ d          39.359  -1.126  -6.579  0.00  0.00    -0.532 OA
ENDBRANCH  40  48
ENDBRANCH  33  36
ENDBRANCH  29  32
ENDBRANCH   2  29
TORSDOF 10
ENDMDL
MODEL 3
REMARK VINA RESULT:      -7.4      1.020      2.310
REMARK  10 active torsions:
REMARK  status: ('A' for Active; 'I' for Inactive)
REMARK    1  A    between atoms: C1_1  and  O8_8 
REMARK    2  A    between atoms: C2_2  and  O9_9 
REMARK    3  A    between atoms: C3_3  and  N7_7 
REMARK    4  A    between atoms: C5_5  and  C6_6 
REMARK    5  A    between atoms: C10_10  and  C11_11 
REMARK    6  A    between atoms: C11_11  and  N12_12 
REMARK       I    between atoms: N12_12  and  C13_13 
REMARK    7  A    between atoms: C13_13  and  C14_14 
REMARK    8  A    between atoms: C15_15  and  O21_21 
REMARK    9  A    between atoms: C16_16  and  O22_22 
REMARK   10  A    between atoms: C18_18  and  N20_20 
ROOT
ATOM      1  C6  OZZ d          34.555  -4.032 -11.927  0.00  0.00    -0.075 C 
ATOM      2  C10 OZZ d          34.851  -5.176 -11.347  0.00  0.00    -0.087 C 
ATOM      3  H5  OZZ d          33.697  -3.470 -11.559  0.00  0.00     0.080 H 
ATOM      4  H8  OZZ d          35.711  -5.733 -11.715  0.00  0.00     0.079 H 
ENDROOT
BRANCH   1   5
ATOM      5  C5  OZZ d          35.337  -3.472 -13.061  0.00  0.00     0.084 C 
ATOM      6  C1  OZZ d          36.837  -3.225 -12.588  0.00  0.00     0.092 C 
ATOM      7  C2  OZZ d          36.676  -1.766 -12.168  0.00  0.00     0.105 C 
ATOM      8  H1  OZZ d          37.159  -3.887 -11.771  0.00  0.00     0.091 H 
ATOM      9  C3  OZZ d          35.825  -1.175 -13.330  0.00  0.00     0.137 C 
ATOM     10  H2  OZZ d          36.130  -1.720 -11.214  0.00  0.00     0.093 H 
ATOM     11  O4  OZZ d          34.800  -2.203 -13.449  0.00  0.00    -0.352 OA
ATOM     12  H3  OZZ d          36.444  -1.110 -14.238  0.00  0.00     0.122 H 
ATOM     13  H4  OZZ d          35.313  -4.170 -13.910  0.00  0.00     0.093 H 
BRANCH   6  14
ATOM     14  O8  OZZ d          37.718  -3.324 -13.715  0.00  0.00    -0.390 OA
ATOM     15  H6  OZZ d          37.334  -3.899 -14.367  0.00  0.00     0.210 HD
ENDBRANCH   6  14
BRANCH   7  16
ATOM     16  O9  OZZ d          37.890  -0.982 -12.034  0.00  0.00    -0.388 OA
ATOM     17  H7  OZZ d          37.668  -0.058 -12.000  0.00  0.00     0.210 HD
ENDBRANCH   7  16
BRANCH   9  18
ATOM     18  N7  OZZ d          35.175   0.078 -13.155  0.00  0.00    -0.337 N 
ATOM     19  C26 OZZ d          34.096   0.422 -14.032  0.00  0.00    -0.014 A 
ATOM     20  C27 OZZ d          33.447   1.626 -13.924  0.00  0.00    -0.020 A 
ATOM     21  H16 OZZ d          33.785  -0.285 -14.800  0.00  0.00     0.111 H 
ATOM     22  C28 OZZ d          33.795   2.572 -12.879  0.00  0.00     0.174 A 
ATOM     23  H17 OZZ d          32.659   1.876 -14.632  0.00  0.00     0.091 H 
ATOM     24  C30 OZZ d          34.943   2.194 -12.024  0.00  0.00    -0.020 A 
ATOM     25  O31 OZZ d          33.138   3.588 -12.702  0.00  0.00    -0.288 OA
ATOM     26  C29 OZZ d          35.547   1.018 -12.215  0.00  0.00    -0.014 A 
ATOM     27  H19 OZZ d          35.293   2.870 -11.245  0.00  0.00     0.091 H 
ATOM     28  H18 OZZ d          36.400   0.783 -11.580  0.00  0.00     0.111 H 
ENDBRANCH   9  18
ENDBRANCH   1   5
BRANCH   2  29
ATOM     29  C11 OZZ d          34.071  -5.751 -10.213  0.00  0.00     0.010 C 
ATOM     30  H9  OZZ d          33.596  -6.692 -10.529  0.00  0.00     0.070 H 
ATOM     31  H10 OZZ d          33.297  -5.037  -9.897  0.00  0.00     0.070 H 
BRANCH  29  32
ATOM     32  N12 OZZ d          34.967  -6.007  -9.119  0.00  0.00    -0.353 N 
ATOM     33  C13 OZZ d          35.456  -5.051  -8.338  0.00  0.00     0.254 C 
ATOM     34  O23 OZZ d          35.048  -3.848  -8.514  0.00  0.00    -0.268 OA
ATOM     35  H11 OZZ d          35.235  -6.953  -8.936  0.00  0.00     0.163 HD
BRANCH  33  36
ATOM     36  C14 OZZ d          36.451  -5.359  -7.299  0.00  0.00     0.070 A 
ATOM     37  C15 OZZ d          37.487  -4.436  -6.911  0.00  0.00     0.114 A 
ATOM     38  C16 OZZ d          38.340  -4.857  -5.869  0.00  0.00     0.102 A 
ATOM     39  C17 OZZ d          38.270  -6.069  -5.188  0.00  0.00    -0.016 A 
ATOM     40  C18 OZZ d          37.177  -6.923  -5.591  0.00  0.00     0.106 A 
ATOM     41  H12 OZZ d          38.979  -6.349  -4.417  0.00  0.00     0.091 H 
ATOM     42  C19 OZZ d          36.333  -6.528  -6.636  0.00  0.00    -0.033 A 
ATOM     43  H13 OZZ d          35.538  -7.203  -6.930  0.00  0.00     0.089 H 
BRANCH  37  44
ATOM     44  O21 OZZ d          37.649  -3.306  -7.537  0.00  0.00    -0.357 OA
ATOM     45  H14 OZZ d          36.820  -3.029  -7.909  0.00  0.00     0.217 HD
ENDBRANCH  37  44
BRANCH  38  46
ATOM     46  O22 OZZ d          39.357  -3.958  -5.534  0.00  0.00    -0.358 OA
ATOM     47  H15 OZZ d          39.009  -3.074  -5.534  0.00  0.00     0.217 HD
ENDBRANCH  38  46
BRANCH  40  48
ATOM     48  N20 OZZ d          37.072  -8.203  -4.919  0.00  0.00    -0.116 N 
ATOM     49  O24 OZZ d          36.044  -8.794  -4.900  0.00  0.00    -0.532 OA
ATOM     50  O25 OZZ d          38.071  -8.652  -4.382  0.00  0.00    -0.532 OA
ENDBRANCH  40  48
ENDBRANCH  33  36
ENDBRANCH  29  32
ENDBRANCH   2  29
TORSDOF 10
ENDMDL
MODEL 4
REMARK VINA RESULT:      -6.1      1.977      3.377
REMARK  10 active torsions:
REMARK  status: ('A' for Active; 'I' for Inactive)
REMARK    1  A    between atoms: C1_1  and  O8_8 
REMARK    2  A    between atoms: C2_2  and  O9_9 
REMARK    3  A    between atoms: C3_3  and  N7_7 
REMARK    4  A    between atoms: C5_5  and  C6_6 
REMARK    5  A    between atoms: C10_10  and  C11_11 
REMARK    6  A    between atoms: C11_11  and  N12_12 
REMARK       I    between atoms: N12_12  and  C13_13 
REMARK    7  A    between atoms: C13_13  and  C14_14 
REMARK    8  A    between atoms: C15_15  and  O21_21 
REMARK    9  A    between atoms: C16_16  and  O22_22 
REMARK   10  A    between atoms: C18_18  and  N20_20 
ROOT
ATOM      1  C6  OZZ d          36.264  -1.886 -10.265  0.00  0.00    -0.075 C 
ATOM      2  C10 OZZ d          37.046  -2.673  -9.556  0.00  0.00    -0.087 C 
ATOM      3  H5  OZZ d          35.800  -1.034  -9.771  0.00  0.00     0.080 H 
ATOM      4  H8  OZZ d          37.512  -3.521 -10.054  0.00  0.00     0.079 H 
ENDROOT
BRANCH   1   5
ATOM      5  C5  OZZ d          35.986  -2.108 -11.709  0.00  0.00     0.084 C 
ATOM      6  C1  OZZ d          37.302  -1.794 -12.548  0.00  0.00     0.092 C 
ATOM      7  C2  OZZ d          36.993  -0.332 -12.862  0.00  0.00     0.105 C 
ATOM      8  H1  OZZ d          38.234  -1.936 -11.981  0.00  0.00     0.091 H 
ATOM      9  C3  OZZ d          35.485  -0.384 -13.245  0.00  0.00     0.137 C 
ATOM     10  H2  OZZ d          37.152   0.277 -11.960  0.00  0.00     0.093 H 
ATOM     11  O4  OZZ d          34.970  -1.206 -12.158  0.00  0.00    -0.352 OA
ATOM     12  H3  OZZ d          35.374  -0.881 -14.221  0.00  0.00     0.122 H 
ATOM     13  H4  OZZ d          35.668  -3.148 -11.870  0.00  0.00     0.093 H 
BRANCH   6  14
ATOM     14  O8  OZZ d          37.302  -2.572 -13.752  0.00  0.00    -0.390 OA
ATOM     15  H6  OZZ d          36.494  -3.069 -13.807  0.00  0.00     0.210 HD
ENDBRANCH   6  14
BRANCH   7  16
ATOM     16  O9  OZZ d          37.731   0.276 -13.955  0.00  0.00    -0.388 OA
ATOM     17  H7  OZZ d          38.660   0.259 -13.757  0.00  0.00     0.210 HD
ENDBRANCH   7  16
BRANCH   9  18
ATOM     18  N7  OZZ d          34.731   0.822 -13.282  0.00  0.00    -0.337 N 
ATOM     19  C26 OZZ d          35.020   1.844 -12.320  0.00  0.00    -0.014 A 
ATOM     20  C27 OZZ d          34.311   3.018 -12.294  0.00  0.00    -0.020 A 
ATOM     21  H16 OZZ d          35.819   1.686 -11.596  0.00  0.00     0.111 H 
ATOM     22  C28 OZZ d          33.277   3.289 -13.276  0.00  0.00     0.174 A 
ATOM     23  H17 OZZ d          34.526   3.757 -11.525  0.00  0.00     0.091 H 
ATOM     24  C30 OZZ d          32.983   2.188 -14.222  0.00  0.00    -0.020 A 
ATOM     25  O31 OZZ d          32.730   4.382 -13.334  0.00  0.00    -0.288 OA
ATOM     26  C29 OZZ d          33.694   1.061 -14.161  0.00  0.00    -0.014 A 
ATOM     27  H19 OZZ d          32.191   2.298 -14.962  0.00  0.00     0.091 H 
ATOM     28  H18 OZZ d          33.436   0.266 -14.860  0.00  0.00     0.111 H 
ENDBRANCH   9  18
ENDBRANCH   1   5
BRANCH   2  29
ATOM     29  C11 OZZ d          37.329  -2.463  -8.106  0.00  0.00     0.010 C 
ATOM     30  H9  OZZ d          36.639  -1.709  -7.699  0.00  0.00     0.070 H 
ATOM     31  H10 OZZ d          38.366  -2.119  -7.977  0.00  0.00     0.070 H 
BRANCH  29  32
ATOM     32  N12 OZZ d          37.144  -3.709  -7.414  0.00  0.00    -0.353 N 
ATOM     33  C13 OZZ d          38.152  -4.457  -6.978  0.00  0.00     0.254 C 
ATOM     34  O23 OZZ d          39.347  -4.010  -7.105  0.00  0.00    -0.268 OA
ATOM     35  H11 OZZ d          36.211  -4.029  -7.254  0.00  0.00     0.163 HD
BRANCH  33  36
ATOM     36  C14 OZZ d          37.907  -5.774  -6.369  0.00  0.00     0.070 A 
ATOM     37  C15 OZZ d          38.814  -6.381  -5.430  0.00  0.00     0.114 A 
ATOM     38  C16 OZZ d          38.422  -7.628  -4.899  0.00  0.00     0.102 A 
ATOM     39  C17 OZZ d          37.248  -8.315  -5.196  0.00  0.00    -0.016 A 
ATOM     40  C18 OZZ d          36.361  -7.625  -6.103  0.00  0.00     0.106 A 
ATOM     41  H12 OZZ d          37.019  -9.290  -4.780  0.00  0.00     0.091 H 
ATOM     42  C19 OZZ d          36.744  -6.397  -6.653  0.00  0.00    -0.033 A 
ATOM     43  H13 OZZ d          36.066  -5.917  -7.350  0.00  0.00     0.089 H 
BRANCH  37  44
ATOM     44  O21 OZZ d          39.956  -5.825  -5.143  0.00  0.00    -0.357 OA
ATOM     45  H14 OZZ d          40.297  -5.389  -5.915  0.00  0.00     0.217 HD
ENDBRANCH  37  44
BRANCH  38  46
ATOM     46  O22 OZZ d          39.334  -8.212  -4.016  0.00  0.00    -0.358 OA
ATOM     47  H15 OZZ d          38.862  -8.643  -3.314  0.00  0.00     0.217 HD
ENDBRANCH  38  46
BRANCH  40  48
ATOM     48  N20 OZZ d          35.131  -8.309  -6.454  0.00  0.00    -0.116 N 
ATOM     49  O24 OZZ d          34.716  -8.276  -7.564  0.00  0.00    -0.532 OA
ATOM     50  O25 OZZ d          34.543  -8.918  -5.575  0.00  0.00    -0.532 OA
ENDBRANCH  40  48
ENDBRANCH  33  36
ENDBRANCH  29  32
ENDBRANCH   2  29
TORSDOF 10
ENDMDL
