MODEL 1
REMARK VINA RESULT:     -11.8      0.000      0.000
REMARK  20 active torsions:
REMARK  status: ('A' for Active; 'I' for Inactive)
REMARK    1  A    between atoms: C1_1  and  C23_23 
REMARK    2  A    between atoms: C1_1  and  C2_2 
REMARK    3  A    between atoms: C2_2  and  C18_18 
REMARK    4  A    between atoms: C2_2  and  C3_3 
REMARK    5  A    between atoms: C21_21  and  C4_4 
REMARK    6  A    between atoms: C13_13  and  C5_5 
REMARK    7  A    between atoms: C18_18  and  C7_7 
REMARK    8  A    between atoms: C7_7  and  C16_16 
REMARK    9  A    between atoms: C7_7  and  C8_8 
REMARK   10  A    between atoms: C8_8  and  C9_9 
REMARK   11  A    between atoms: C9_9  and  C10_10 
REMARK       I    between atoms: C16_16  and  N18_45 
REMARK   12  A    between atoms: N18_45  and  C19_19 
REMARK   13  A    between atoms: C19_19  and  C27_27 
REMARK   14  A    between atoms: C19_19  and  C20_20 
REMARK   15  A    between atoms: C20_20  and  C21_21 
REMARK   16  A    between atoms: C21_21  and  C22_22 
REMARK   17  A    between atoms: C23_23  and  C24_24 
REMARK   18  A    between atoms: C24_24  and  C25_25 
REMARK   19  A    between atoms: C25_25  and  N1_44 
REMARK       I    between atoms: C27_27  and  N29_46 
REMARK   20  A    between atoms: N29_46  and  C30_30 
ROOT
ATOM      1  C7  L04 d          35.322  37.270  22.645  0.00  0.00     0.025 C 
ATOM      2  H8  L04 d          35.239  37.632  23.680  0.00  0.00     0.054 H 
ENDROOT
BRANCH   1   3
ATOM      3  C18 L04 d          34.072  37.696  21.876  0.00  0.00    -0.041 C 
ATOM      4  H18 L04 d          34.399  38.267  20.996  0.00  0.00     0.035 H 
ATOM      5  H19 L04 d          33.552  36.784  21.549  0.00  0.00     0.035 H 
BRANCH   3   6
ATOM      6  C2  L04 d          33.063  38.557  22.640  0.00  0.00     0.031 C 
ATOM      7  H3  L04 d          32.787  39.393  21.983  0.00  0.00     0.056 H 
BRANCH   6   8
ATOM      8  C1  L04 d          33.639  39.173  23.924  0.00  0.00    -0.052 C 
ATOM      9  H1  L04 d          33.361  38.528  24.770  0.00  0.00     0.034 H 
ATOM     10  H2  L04 d          34.735  39.202  23.830  0.00  0.00     0.034 H 
BRANCH   8  11
ATOM     11  C23 L04 d          33.149  40.581  24.216  0.00  0.00    -0.063 C 
ATOM     12  H27 L04 d          33.271  41.198  23.313  0.00  0.00     0.033 H 
ATOM     13  H28 L04 d          33.748  41.006  25.034  0.00  0.00     0.033 H 
BRANCH  11  14
ATOM     14  C24 L04 d          31.682  40.581  24.623  0.00  0.00    -0.050 C 
ATOM     15  H29 L04 d          31.597  40.971  25.649  0.00  0.00     0.035 H 
ATOM     16  H30 L04 d          31.303  39.550  24.590  0.00  0.00     0.035 H 
BRANCH  14  17
ATOM     17  C25 L04 d          30.840  41.446  23.697  0.00  0.00    -0.002 C 
ATOM     18  H31 L04 d          31.476  41.793  22.869  0.00  0.00     0.064 H 
ATOM     19  H32 L04 d          30.473  42.313  24.265  0.00  0.00     0.064 H 
BRANCH  17  20
ATOM     20  N1  L04 d          29.691  40.739  23.134  0.00  0.00    -0.344 N 
ATOM     21  C28 L04 d          28.618  40.038  23.850  0.00  0.00     0.023 A 
ATOM     22  C36 L04 d          27.707  39.593  22.707  0.00  0.00    -0.025 A 
ATOM     23  H33 L04 d          28.091  40.713  24.541  0.00  0.00     0.071 H 
ATOM     24  H34 L04 d          29.008  39.174  24.408  0.00  0.00     0.071 H 
ATOM     25  C29 L04 d          28.291  39.983  21.475  0.00  0.00     0.040 A 
ATOM     26  C38 L04 d          26.469  38.938  22.711  0.00  0.00    -0.074 A 
ATOM     27  C26 L04 d          29.547  40.675  21.788  0.00  0.00     0.254 A 
ATOM     28  C37 L04 d          27.625  39.710  20.271  0.00  0.00    -0.067 A 
ATOM     29  O1  L04 d          30.326  41.158  20.962  0.00  0.00    -0.267 OA
ATOM     30  C40 L04 d          26.399  39.063  20.301  0.00  0.00    -0.082 A 
ATOM     31  H40 L04 d          28.066  40.003  19.325  0.00  0.00     0.085 H 
ATOM     32  C39 L04 d          25.829  38.680  21.503  0.00  0.00    -0.082 A 
ATOM     33  H43 L04 d          25.882  38.854  19.371  0.00  0.00     0.083 H 
ATOM     34  H42 L04 d          24.870  38.173  21.502  0.00  0.00     0.083 H 
ATOM     35  H41 L04 d          26.014  38.635  23.647  0.00  0.00     0.084 H 
ENDBRANCH  17  20
ENDBRANCH  14  17
ENDBRANCH  11  14
ENDBRANCH   8  11
ENDBRANCH   6   8
BRANCH   6  36
ATOM     36  C3  L04 d          31.790  37.748  22.915  0.00  0.00     0.177 C 
ATOM     37  O5  L04 d          31.618  37.049  23.947  0.00  0.00    -0.648 OA
ATOM     38  O4  L04 d          30.915  37.764  22.045  0.00  0.00    -0.648 OA
ENDBRANCH   6  36
ENDBRANCH   3   6
ENDBRANCH   1   3
BRANCH   1  39
ATOM     39  C16 L04 d          36.570  37.863  22.007  0.00  0.00     0.222 C 
ATOM     40  O17 L04 d          36.484  38.699  21.103  0.00  0.00    -0.273 OA
ATOM     41  N18 L04 d          37.730  37.423  22.482  0.00  0.00    -0.347 N 
ATOM     42  H46 L04 d          37.733  36.762  23.232  0.00  0.00     0.163 HD
BRANCH  41  43
ATOM     43  C19 L04 d          38.995  37.887  21.932  0.00  0.00     0.090 C 
ATOM     44  H20 L04 d          38.913  37.974  20.838  0.00  0.00     0.087 H 
BRANCH  43  45
ATOM     45  C27 L04 d          40.056  36.853  22.292  0.00  0.00     0.245 C 
ATOM     46  O28 L04 d          40.253  36.550  23.471  0.00  0.00    -0.271 OA
ATOM     47  N29 L04 d          40.675  36.271  21.263  0.00  0.00    -0.325 N 
ATOM     48  H47 L04 d          40.377  36.565  20.355  0.00  0.00     0.169 HD
BRANCH  47  49
ATOM     49  C30 L04 d          41.673  35.317  21.289  0.00  0.00     0.034 A 
ATOM     50  C35 L04 d          43.034  35.621  21.304  0.00  0.00    -0.057 A 
ATOM     51  C34 L04 d          43.991  34.610  21.320  0.00  0.00    -0.081 A 
ATOM     52  H39 L04 d          43.351  36.657  21.304  0.00  0.00     0.086 H 
ATOM     53  C33 L04 d          43.591  33.274  21.323  0.00  0.00    -0.083 A 
ATOM     54  H38 L04 d          45.046  34.860  21.331  0.00  0.00     0.083 H 
ATOM     55  C32 L04 d          42.236  32.959  21.307  0.00  0.00    -0.081 A 
ATOM     56  H37 L04 d          44.332  32.484  21.337  0.00  0.00     0.083 H 
ATOM     57  C31 L04 d          41.288  33.978  21.292  0.00  0.00    -0.057 A 
ATOM     58  H36 L04 d          41.920  31.923  21.306  0.00  0.00     0.083 H 
ATOM     59  H35 L04 d          40.234  33.725  21.281  0.00  0.00     0.086 H 
ENDBRANCH  47  49
ENDBRANCH  43  45
BRANCH  43  60
ATOM     60  C20 L04 d          39.380  39.248  22.516  0.00  0.00    -0.035 C 
ATOM     61  H21 L04 d          40.422  39.172  22.859  0.00  0.00     0.037 H 
ATOM     62  H22 L04 d          38.721  39.429  23.378  0.00  0.00     0.037 H 
BRANCH  60  63
ATOM     63  C21 L04 d          39.290  40.480  21.611  0.00  0.00    -0.059 C 
ATOM     64  H23 L04 d          38.888  40.179  20.633  0.00  0.00     0.038 H 
BRANCH  63  65
ATOM     65  C4  L04 d          38.343  41.476  22.255  0.00  0.00    -0.073 C 
ATOM     66  H4  L04 d          37.468  41.625  21.605  0.00  0.00     0.028 H 
ATOM     67  H5  L04 d          38.861  42.436  22.398  0.00  0.00     0.028 H 
ATOM     68  H6  L04 d          38.012  41.090  23.231  0.00  0.00     0.028 H 
ENDBRANCH  63  65
BRANCH  63  69
ATOM     69  C22 L04 d          40.670  41.103  21.401  0.00  0.00    -0.073 C 
ATOM     70  H24 L04 d          41.177  40.598  20.566  0.00  0.00     0.028 H 
ATOM     71  H25 L04 d          41.268  40.988  22.317  0.00  0.00     0.028 H 
ATOM     72  H26 L04 d          40.557  42.173  21.169  0.00  0.00     0.028 H 
ENDBRANCH  63  69
ENDBRANCH  60  63
ENDBRANCH  43  60
ENDBRANCH  41  43
ENDBRANCH   1  39
BRANCH   1  73
ATOM     73  C8  L04 d          35.466  35.745  22.660  0.00  0.00    -0.050 C 
ATOM     74  H9  L04 d          36.501  35.498  22.938  0.00  0.00     0.034 H 
ATOM     75  H10 L04 d          35.258  35.368  21.648  0.00  0.00     0.034 H 
BRANCH  73  76
ATOM     76  C9  L04 d          34.539  35.052  23.623  0.00  0.00    -0.040 C 
ATOM     77  H11 L04 d          34.027  34.244  23.082  0.00  0.00     0.040 H 
ATOM     78  H12 L04 d          33.799  35.786  23.973  0.00  0.00     0.040 H 
BRANCH  76  79
ATOM     79  C10 L04 d          35.209  34.458  24.823  0.00  0.00    -0.058 A 
ATOM     80  C15 L04 d          35.509  35.246  25.928  0.00  0.00    -0.076 A 
ATOM     81  C14 L04 d          36.099  34.694  27.056  0.00  0.00    -0.072 A 
ATOM     82  H16 L04 d          35.280  36.305  25.908  0.00  0.00     0.084 H 
ATOM     83  C13 L04 d          36.403  33.339  27.096  0.00  0.00    -0.026 A 
ATOM     84  H15 L04 d          36.324  35.323  27.910  0.00  0.00     0.084 H 
ATOM     85  C12 L04 d          36.105  32.553  25.987  0.00  0.00    -0.072 A 
ATOM     86  C11 L04 d          35.517  33.105  24.865  0.00  0.00    -0.076 A 
ATOM     87  H14 L04 d          36.338  31.494  26.004  0.00  0.00     0.084 H 
ATOM     88  H13 L04 d          35.294  32.476  24.010  0.00  0.00     0.084 H 
BRANCH  83  89
ATOM     89  C5  L04 d          37.027  32.737  28.285  0.00  0.00    -0.026 A 
ATOM     90  C43 L04 d          36.941  31.367  28.508  0.00  0.00    -0.069 A 
ATOM     91  C42 L04 d          37.521  30.797  29.634  0.00  0.00    -0.045 A 
ATOM     92  H45 L04 d          36.416  30.739  27.798  0.00  0.00     0.085 H 
ATOM     93  C41 L04 d          38.196  31.583  30.557  0.00  0.00     0.116 A 
ATOM     94  H44 L04 d          37.445  29.728  29.793  0.00  0.00     0.088 H 
ATOM     95  C17 L04 d          38.299  32.948  30.331  0.00  0.00    -0.045 A 
ATOM     96  F1  L04 d          38.741  31.019  31.655  0.00  0.00    -0.206 F 
ATOM     97  C6  L04 d          37.713  33.521  29.207  0.00  0.00    -0.069 A 
ATOM     98  H17 L04 d          38.840  33.571  31.034  0.00  0.00     0.088 H 
ATOM     99  H7  L04 d          37.790  34.591  29.049  0.00  0.00     0.085 H 
ENDBRANCH  83  89
ENDBRANCH  76  79
ENDBRANCH  73  76
ENDBRANCH   1  73
TORSDOF 20
ENDMDL
MODEL 2
REMARK VINA RESULT:     -11.6      1.463      2.045
REMARK  20 active torsions:
REMARK  status: ('A' for Active; 'I' for Inactive)
REMARK    1  A    between atoms: C1_1  and  C23_23 
REMARK    2  A    between atoms: C1_1  and  C2_2 
REMARK    3  A    between atoms: C2_2  and  C18_18 
REMARK    4  A    between atoms: C2_2  and  C3_3 
REMARK    5  A    between atoms: C21_21  and  C4_4 
REMARK    6  A    between atoms: C13_13  and  C5_5 
REMARK    7  A    between atoms: C18_18  and  C7_7 
REMARK    8  A    between atoms: C7_7  and  C16_16 
REMARK    9  A    between atoms: C7_7  and  C8_8 
REMARK   10  A    between atoms: C8_8  and  C9_9 
REMARK   11  A    between atoms: C9_9  and  C10_10 
REMARK       I    between atoms: C16_16  and  N18_45 
REMARK   12  A    between atoms: N18_45  and  C19_19 
REMARK   13  A    between atoms: C19_19  and  C27_27 
REMARK   14  A    between atoms: C19_19  and  C20_20 
REMARK   15  A    between atoms: C20_20  and  C21_21 
REMARK   16  A    between atoms: C21_21  and  C22_22 
REMARK   17  A    between atoms: C23_23  and  C24_24 
REMARK   18  A    between atoms: C24_24  and  C25_25 
REMARK   19  A    between atoms: C25_25  and  N1_44 
REMARK       I    between atoms: C27_27  and  N29_46 
REMARK   20  A    between atoms: N29_46  and  C30_30 
ROOT
ATOM      1  C7  L04 d          35.714  37.203  23.139  0.00  0.00     0.025 C 
ATOM      2  H8  L04 d          35.994  37.193  24.203  0.00  0.00     0.054 H 
ENDROOT
BRANCH   1   3
ATOM      3  C18 L04 d          34.539  38.162  22.953  0.00  0.00    -0.041 C 
ATOM      4  H18 L04 d          34.699  38.707  22.012  0.00  0.00     0.035 H 
ATOM      5  H19 L04 d          33.623  37.558  22.877  0.00  0.00     0.035 H 
BRANCH   3   6
ATOM      6  C2  L04 d          34.323  39.197  24.059  0.00  0.00     0.031 C 
ATOM      7  H3  L04 d          35.133  39.065  24.790  0.00  0.00     0.056 H 
BRANCH   6   8
ATOM      8  C1  L04 d          33.003  39.007  24.820  0.00  0.00    -0.052 C 
ATOM      9  H1  L04 d          33.237  38.860  25.884  0.00  0.00     0.034 H 
ATOM     10  H2  L04 d          32.401  39.920  24.699  0.00  0.00     0.034 H 
BRANCH   8  11
ATOM     11  C23 L04 d          32.173  37.825  24.347  0.00  0.00    -0.063 C 
ATOM     12  H27 L04 d          32.739  36.898  24.521  0.00  0.00     0.033 H 
ATOM     13  H28 L04 d          31.972  37.936  23.272  0.00  0.00     0.033 H 
BRANCH  11  14
ATOM     14  C24 L04 d          30.849  37.746  25.095  0.00  0.00    -0.050 C 
ATOM     15  H29 L04 d          31.046  37.464  26.140  0.00  0.00     0.035 H 
ATOM     16  H30 L04 d          30.218  36.981  24.620  0.00  0.00     0.035 H 
BRANCH  14  17
ATOM     17  C25 L04 d          30.110  39.077  25.075  0.00  0.00    -0.002 C 
ATOM     18  H31 L04 d          30.852  39.888  25.035  0.00  0.00     0.064 H 
ATOM     19  H32 L04 d          29.521  39.164  25.999  0.00  0.00     0.064 H 
BRANCH  17  20
ATOM     20  N1  L04 d          29.207  39.217  23.934  0.00  0.00    -0.344 N 
ATOM     21  C28 L04 d          29.512  39.733  22.593  0.00  0.00     0.023 A 
ATOM     22  C36 L04 d          28.182  39.544  21.867  0.00  0.00    -0.025 A 
ATOM     23  H33 L04 d          30.314  39.151  22.115  0.00  0.00     0.071 H 
ATOM     24  H34 L04 d          29.800  40.794  22.629  0.00  0.00     0.071 H 
ATOM     25  C29 L04 d          27.229  39.021  22.778  0.00  0.00     0.040 A 
ATOM     26  C38 L04 d          27.814  39.769  20.534  0.00  0.00    -0.074 A 
ATOM     27  C26 L04 d          27.908  38.857  24.070  0.00  0.00     0.254 A 
ATOM     28  C37 L04 d          25.929  38.734  22.339  0.00  0.00    -0.067 A 
ATOM     29  O1  L04 d          27.391  38.421  25.102  0.00  0.00    -0.267 OA
ATOM     30  C40 L04 d          25.590  38.962  21.014  0.00  0.00    -0.082 A 
ATOM     31  H40 L04 d          25.195  38.336  23.030  0.00  0.00     0.085 H 
ATOM     32  C39 L04 d          26.518  39.474  20.123  0.00  0.00    -0.082 A 
ATOM     33  H43 L04 d          24.586  38.737  20.672  0.00  0.00     0.083 H 
ATOM     34  H42 L04 d          26.230  39.646  19.092  0.00  0.00     0.083 H 
ATOM     35  H41 L04 d          28.533  40.169  19.829  0.00  0.00     0.084 H 
ENDBRANCH  17  20
ENDBRANCH  14  17
ENDBRANCH  11  14
ENDBRANCH   8  11
ENDBRANCH   6   8
BRANCH   6  36
ATOM     36  C3  L04 d          34.453  40.611  23.481  0.00  0.00     0.177 C 
ATOM     37  O5  L04 d          35.209  40.903  22.518  0.00  0.00    -0.648 OA
ATOM     38  O4  L04 d          33.804  41.505  24.030  0.00  0.00    -0.648 OA
ENDBRANCH   6  36
ENDBRANCH   3   6
ENDBRANCH   1   3
BRANCH   1  39
ATOM     39  C16 L04 d          36.909  37.655  22.313  0.00  0.00     0.222 C 
ATOM     40  O17 L04 d          36.762  38.395  21.337  0.00  0.00    -0.273 OA
ATOM     41  N18 L04 d          38.094  37.201  22.710  0.00  0.00    -0.347 N 
ATOM     42  H46 L04 d          38.150  36.622  23.523  0.00  0.00     0.163 HD
BRANCH  41  43
ATOM     43  C19 L04 d          39.310  37.532  21.982  0.00  0.00     0.090 C 
ATOM     44  H20 L04 d          39.068  37.731  20.927  0.00  0.00     0.087 H 
BRANCH  43  45
ATOM     45  C27 L04 d          40.243  36.330  22.081  0.00  0.00     0.245 C 
ATOM     46  O28 L04 d          40.629  35.933  23.184  0.00  0.00    -0.271 OA
ATOM     47  N29 L04 d          40.535  35.723  20.931  0.00  0.00    -0.325 N 
ATOM     48  H47 L04 d          40.106  36.110  20.114  0.00  0.00     0.169 HD
BRANCH  47  49
ATOM     49  C30 L04 d          41.351  34.629  20.719  0.00  0.00     0.034 A 
ATOM     50  C35 L04 d          41.879  33.846  21.746  0.00  0.00    -0.057 A 
ATOM     51  C34 L04 d          42.704  32.761  21.464  0.00  0.00    -0.081 A 
ATOM     52  H39 L04 d          41.643  34.086  22.776  0.00  0.00     0.086 H 
ATOM     53  C33 L04 d          43.010  32.446  20.141  0.00  0.00    -0.083 A 
ATOM     54  H38 L04 d          43.109  32.162  22.273  0.00  0.00     0.083 H 
ATOM     55  C32 L04 d          42.491  33.219  19.109  0.00  0.00    -0.081 A 
ATOM     56  H37 L04 d          43.651  31.600  19.917  0.00  0.00     0.083 H 
ATOM     57  C31 L04 d          41.666  34.302  19.401  0.00  0.00    -0.057 A 
ATOM     58  H36 L04 d          42.727  32.980  18.079  0.00  0.00     0.083 H 
ATOM     59  H35 L04 d          41.262  34.899  18.592  0.00  0.00     0.086 H 
ENDBRANCH  47  49
ENDBRANCH  43  45
BRANCH  43  60
ATOM     60  C20 L04 d          39.989  38.765  22.582  0.00  0.00    -0.035 C 
ATOM     61  H21 L04 d          41.006  38.466  22.875  0.00  0.00     0.037 H 
ATOM     62  H22 L04 d          39.416  39.047  23.478  0.00  0.00     0.037 H 
BRANCH  60  63
ATOM     63  C21 L04 d          40.118  40.020  21.714  0.00  0.00    -0.059 C 
ATOM     64  H23 L04 d          41.129  40.436  21.831  0.00  0.00     0.038 H 
BRANCH  63  65
ATOM     65  C4  L04 d          39.908  39.620  20.264  0.00  0.00    -0.073 C 
ATOM     66  H4  L04 d          38.891  39.220  20.137  0.00  0.00     0.028 H 
ATOM     67  H5  L04 d          40.642  38.851  19.985  0.00  0.00     0.028 H 
ATOM     68  H6  L04 d          40.037  40.502  19.618  0.00  0.00     0.028 H 
ENDBRANCH  63  65
BRANCH  63  69
ATOM     69  C22 L04 d          39.101  41.081  22.135  0.00  0.00    -0.073 C 
ATOM     70  H24 L04 d          38.085  40.724  21.912  0.00  0.00     0.028 H 
ATOM     71  H25 L04 d          39.292  42.012  21.583  0.00  0.00     0.028 H 
ATOM     72  H26 L04 d          39.194  41.269  23.215  0.00  0.00     0.028 H 
ENDBRANCH  63  69
ENDBRANCH  60  63
ENDBRANCH  43  60
ENDBRANCH  41  43
ENDBRANCH   1  39
BRANCH   1  73
ATOM     73  C8  L04 d          35.339  35.781  22.710  0.00  0.00    -0.050 C 
ATOM     74  H9  L04 d          36.264  35.195  22.608  0.00  0.00     0.034 H 
ATOM     75  H10 L04 d          34.831  35.838  21.736  0.00  0.00     0.034 H 
BRANCH  73  76
ATOM     76  C9  L04 d          34.432  35.069  23.677  0.00  0.00    -0.040 C 
ATOM     77  H11 L04 d          33.928  34.254  23.136  0.00  0.00     0.040 H 
ATOM     78  H12 L04 d          33.682  35.788  24.036  0.00  0.00     0.040 H 
BRANCH  76  79
ATOM     79  C10 L04 d          35.121  34.480  24.868  0.00  0.00    -0.058 A 
ATOM     80  C15 L04 d          35.485  35.283  25.943  0.00  0.00    -0.076 A 
ATOM     81  C14 L04 d          36.093  34.738  27.064  0.00  0.00    -0.072 A 
ATOM     82  H16 L04 d          35.290  36.349  25.905  0.00  0.00     0.084 H 
ATOM     83  C13 L04 d          36.352  33.374  27.128  0.00  0.00    -0.026 A 
ATOM     84  H15 L04 d          36.367  35.378  27.895  0.00  0.00     0.084 H 
ATOM     85  C12 L04 d          35.991  32.573  26.049  0.00  0.00    -0.072 A 
ATOM     86  C11 L04 d          35.384  33.119  24.934  0.00  0.00    -0.076 A 
ATOM     87  H14 L04 d          36.188  31.507  26.084  0.00  0.00     0.084 H 
ATOM     88  H13 L04 d          35.111  32.478  24.102  0.00  0.00     0.084 H 
BRANCH  83  89
ATOM     89  C5  L04 d          36.995  32.779  28.310  0.00  0.00    -0.026 A 
ATOM     90  C43 L04 d          36.878  31.417  28.565  0.00  0.00    -0.069 A 
ATOM     91  C42 L04 d          37.476  30.854  29.684  0.00  0.00    -0.045 A 
ATOM     92  H45 L04 d          36.315  30.789  27.883  0.00  0.00     0.085 H 
ATOM     93  C41 L04 d          38.200  31.638  30.570  0.00  0.00     0.116 A 
ATOM     94  H44 L04 d          37.376  29.790  29.868  0.00  0.00     0.088 H 
ATOM     95  C17 L04 d          38.334  32.995  30.313  0.00  0.00    -0.045 A 
ATOM     96  F1  L04 d          38.762  31.082  31.663  0.00  0.00    -0.206 F 
ATOM     97  C6  L04 d          37.729  33.562  29.195  0.00  0.00    -0.069 A 
ATOM     98  H17 L04 d          38.912  33.617  30.986  0.00  0.00     0.088 H 
ATOM     99  H7  L04 d          37.831  34.625  29.012  0.00  0.00     0.085 H 
ENDBRANCH  83  89
ENDBRANCH  76  79
ENDBRANCH  73  76
ENDBRANCH   1  73
TORSDOF 20
ENDMDL
MODEL 3
REMARK VINA RESULT:     -11.5      1.621      2.504
REMARK  20 active torsions:
REMARK  status: ('A' for Active; 'I' for Inactive)
REMARK    1  A    between atoms: C1_1  and  C23_23 
REMARK    2  A    between atoms: C1_1  and  C2_2 
REMARK    3  A    between atoms: C2_2  and  C18_18 
REMARK    4  A    between atoms: C2_2  and  C3_3 
REMARK    5  A    between atoms: C21_21  and  C4_4 
REMARK    6  A    between atoms: C13_13  and  C5_5 
REMARK    7  A    between atoms: C18_18  and  C7_7 
REMARK    8  A    between atoms: C7_7  and  C16_16 
REMARK    9  A    between atoms: C7_7  and  C8_8 
REMARK   10  A    between atoms: C8_8  and  C9_9 
REMARK   11  A    between atoms: C9_9  and  C10_10 
REMARK       I    between atoms: C16_16  and  N18_45 
REMARK   12  A    between atoms: N18_45  and  C19_19 
REMARK   13  A    between atoms: C19_19  and  C27_27 
REMARK   14  A    between atoms: C19_19  and  C20_20 
REMARK   15  A    between atoms: C20_20  and  C21_21 
REMARK   16  A    between atoms: C21_21  and  C22_22 
REMARK   17  A    between atoms: C23_23  and  C24_24 
REMARK   18  A    between atoms: C24_24  and  C25_25 
REMARK   19  A    between atoms: C25_25  and  N1_44 
REMARK       I    between atoms: C27_27  and  N29_46 
REMARK   20  A    between atoms: N29_46  and  C30_30 
ROOT
ATOM      1  C7  L04 d          35.988  38.340  22.985  0.00  0.00     0.025 C 
ATOM      2  H8  L04 d          36.051  37.504  23.697  0.00  0.00     0.054 H 
ENDROOT
BRANCH   1   3
ATOM      3  C18 L04 d          35.784  39.635  23.771  0.00  0.00    -0.041 C 
ATOM      4  H18 L04 d          35.863  39.393  24.840  0.00  0.00     0.035 H 
ATOM      5  H19 L04 d          36.592  40.327  23.491  0.00  0.00     0.035 H 
BRANCH   3   6
ATOM      6  C2  L04 d          34.454  40.361  23.554  0.00  0.00     0.031 C 
ATOM      7  H3  L04 d          33.726  39.609  23.217  0.00  0.00     0.056 H 
BRANCH   6   8
ATOM      8  C1  L04 d          34.520  41.437  22.461  0.00  0.00    -0.052 C 
ATOM      9  H1  L04 d          34.182  42.389  22.894  0.00  0.00     0.034 H 
ATOM     10  H2  L04 d          35.566  41.533  22.135  0.00  0.00     0.034 H 
BRANCH   8  11
ATOM     11  C23 L04 d          33.667  41.140  21.239  0.00  0.00    -0.063 C 
ATOM     12  H27 L04 d          34.026  40.214  20.767  0.00  0.00     0.033 H 
ATOM     13  H28 L04 d          33.757  41.974  20.528  0.00  0.00     0.033 H 
BRANCH  11  14
ATOM     14  C24 L04 d          32.202  40.968  21.618  0.00  0.00    -0.050 C 
ATOM     15  H29 L04 d          31.606  41.729  21.092  0.00  0.00     0.035 H 
ATOM     16  H30 L04 d          32.097  41.105  22.704  0.00  0.00     0.035 H 
BRANCH  14  17
ATOM     17  C25 L04 d          31.681  39.588  21.242  0.00  0.00    -0.002 C 
ATOM     18  H31 L04 d          32.040  38.864  21.989  0.00  0.00     0.064 H 
ATOM     19  H32 L04 d          32.079  39.321  20.252  0.00  0.00     0.064 H 
BRANCH  17  20
ATOM     20  N1  L04 d          30.222  39.517  21.191  0.00  0.00    -0.344 N 
ATOM     21  C28 L04 d          29.342  39.750  20.040  0.00  0.00     0.023 A 
ATOM     22  C36 L04 d          27.963  39.446  20.622  0.00  0.00    -0.025 A 
ATOM     23  H33 L04 d          29.582  39.070  19.209  0.00  0.00     0.071 H 
ATOM     24  H34 L04 d          29.407  40.791  19.691  0.00  0.00     0.071 H 
ATOM     25  C29 L04 d          28.103  39.133  21.999  0.00  0.00     0.040 A 
ATOM     26  C38 L04 d          26.694  39.409  20.030  0.00  0.00    -0.074 A 
ATOM     27  C26 L04 d          29.534  39.216  22.320  0.00  0.00     0.254 A 
ATOM     28  C37 L04 d          26.973  38.789  22.754  0.00  0.00    -0.067 A 
ATOM     29  O1  L04 d          30.034  39.003  23.427  0.00  0.00    -0.267 OA
ATOM     30  C40 L04 d          25.729  38.756  22.144  0.00  0.00    -0.082 A 
ATOM     31  H40 L04 d          27.072  38.550  23.807  0.00  0.00     0.085 H 
ATOM     32  C39 L04 d          25.589  39.063  20.801  0.00  0.00    -0.082 A 
ATOM     33  H43 L04 d          24.854  38.487  22.726  0.00  0.00     0.083 H 
ATOM     34  H42 L04 d          24.606  39.033  20.346  0.00  0.00     0.083 H 
ATOM     35  H41 L04 d          26.574  39.647  18.979  0.00  0.00     0.084 H 
ENDBRANCH  17  20
ENDBRANCH  14  17
ENDBRANCH  11  14
ENDBRANCH   8  11
ENDBRANCH   6   8
BRANCH   6  36
ATOM     36  C3  L04 d          33.947  40.927  24.886  0.00  0.00     0.177 C 
ATOM     37  O5  L04 d          34.677  41.082  25.899  0.00  0.00    -0.648 OA
ATOM     38  O4  L04 d          32.747  41.201  24.960  0.00  0.00    -0.648 OA
ENDBRANCH   6  36
ENDBRANCH   3   6
ENDBRANCH   1   3
BRANCH   1  39
ATOM     39  C16 L04 d          37.274  38.404  22.175  0.00  0.00     0.222 C 
ATOM     40  O17 L04 d          37.284  38.877  21.035  0.00  0.00    -0.273 OA
ATOM     41  N18 L04 d          38.360  37.921  22.771  0.00  0.00    -0.347 N 
ATOM     42  H46 L04 d          38.292  37.572  23.705  0.00  0.00     0.163 HD
BRANCH  41  43
ATOM     43  C19 L04 d          39.645  37.892  22.088  0.00  0.00     0.090 C 
ATOM     44  H20 L04 d          39.485  37.864  21.000  0.00  0.00     0.087 H 
BRANCH  43  45
ATOM     45  C27 L04 d          40.372  36.630  22.537  0.00  0.00     0.245 C 
ATOM     46  O28 L04 d          40.229  36.207  23.687  0.00  0.00    -0.271 OA
ATOM     47  N29 L04 d          41.085  36.004  21.600  0.00  0.00    -0.325 N 
ATOM     48  H47 L04 d          41.068  36.419  20.690  0.00  0.00     0.169 HD
BRANCH  47  49
ATOM     49  C30 L04 d          41.846  34.857  21.722  0.00  0.00     0.034 A 
ATOM     50  C35 L04 d          42.967  34.755  22.544  0.00  0.00    -0.057 A 
ATOM     51  C34 L04 d          43.696  33.571  22.614  0.00  0.00    -0.081 A 
ATOM     52  H39 L04 d          43.275  35.608  23.137  0.00  0.00     0.086 H 
ATOM     53  C33 L04 d          43.304  32.468  21.855  0.00  0.00    -0.083 A 
ATOM     54  H38 L04 d          44.567  33.506  23.256  0.00  0.00     0.083 H 
ATOM     55  C32 L04 d          42.188  32.559  21.031  0.00  0.00    -0.081 A 
ATOM     56  H37 L04 d          43.868  31.544  21.908  0.00  0.00     0.083 H 
ATOM     57  C31 L04 d          41.466  33.747  20.969  0.00  0.00    -0.057 A 
ATOM     58  H36 L04 d          41.881  31.706  20.437  0.00  0.00     0.083 H 
ATOM     59  H35 L04 d          40.596  33.810  20.326  0.00  0.00     0.086 H 
ENDBRANCH  47  49
ENDBRANCH  43  45
BRANCH  43  60
ATOM     60  C20 L04 d          40.480  39.124  22.441  0.00  0.00    -0.035 C 
ATOM     61  H21 L04 d          41.480  38.767  22.730  0.00  0.00     0.037 H 
ATOM     62  H22 L04 d          39.999  39.607  23.305  0.00  0.00     0.037 H 
BRANCH  60  63
ATOM     63  C21 L04 d          40.676  40.202  21.372  0.00  0.00    -0.059 C 
ATOM     64  H23 L04 d          41.692  40.615  21.459  0.00  0.00     0.038 H 
BRANCH  63  65
ATOM     65  C4  L04 d          40.517  39.555  20.008  0.00  0.00    -0.073 C 
ATOM     66  H4  L04 d          41.470  39.097  19.705  0.00  0.00     0.028 H 
ATOM     67  H5  L04 d          40.226  40.318  19.271  0.00  0.00     0.028 H 
ATOM     68  H6  L04 d          39.738  38.779  20.058  0.00  0.00     0.028 H 
ENDBRANCH  63  65
BRANCH  63  69
ATOM     69  C22 L04 d          39.670  41.338  21.552  0.00  0.00    -0.073 C 
ATOM     70  H24 L04 d          39.182  41.244  22.534  0.00  0.00     0.028 H 
ATOM     71  H25 L04 d          38.910  41.284  20.759  0.00  0.00     0.028 H 
ATOM     72  H26 L04 d          40.193  42.304  21.494  0.00  0.00     0.028 H 
ENDBRANCH  63  69
ENDBRANCH  60  63
ENDBRANCH  43  60
ENDBRANCH  41  43
ENDBRANCH   1  39
BRANCH   1  73
ATOM     73  C8  L04 d          34.823  38.089  22.024  0.00  0.00    -0.050 C 
ATOM     74  H9  L04 d          35.230  37.974  21.008  0.00  0.00     0.034 H 
ATOM     75  H10 L04 d          34.155  38.963  22.054  0.00  0.00     0.034 H 
BRANCH  73  76
ATOM     76  C9  L04 d          34.012  36.864  22.350  0.00  0.00    -0.040 C 
ATOM     77  H11 L04 d          33.980  36.227  21.454  0.00  0.00     0.040 H 
ATOM     78  H12 L04 d          32.992  37.186  22.606  0.00  0.00     0.040 H 
BRANCH  76  79
ATOM     79  C10 L04 d          34.541  36.044  23.486  0.00  0.00    -0.058 A 
ATOM     80  C15 L04 d          35.443  35.012  23.253  0.00  0.00    -0.076 A 
ATOM     81  C14 L04 d          35.963  34.271  24.304  0.00  0.00    -0.072 A 
ATOM     82  H16 L04 d          35.744  34.784  22.237  0.00  0.00     0.084 H 
ATOM     83  C13 L04 d          35.585  34.549  25.612  0.00  0.00    -0.026 A 
ATOM     84  H15 L04 d          36.667  33.472  24.105  0.00  0.00     0.084 H 
ATOM     85  C12 L04 d          34.678  35.580  25.842  0.00  0.00    -0.072 A 
ATOM     86  C11 L04 d          34.163  36.317  24.793  0.00  0.00    -0.076 A 
ATOM     87  H14 L04 d          34.373  35.807  26.857  0.00  0.00     0.084 H 
ATOM     88  H13 L04 d          33.457  37.116  24.993  0.00  0.00     0.084 H 
BRANCH  83  89
ATOM     89  C5  L04 d          36.127  33.775  26.740  0.00  0.00    -0.026 A 
ATOM     90  C43 L04 d          36.797  34.415  27.776  0.00  0.00    -0.069 A 
ATOM     91  C42 L04 d          37.318  33.686  28.836  0.00  0.00    -0.045 A 
ATOM     92  H45 L04 d          36.915  35.493  27.756  0.00  0.00     0.085 H 
ATOM     93  C41 L04 d          37.181  32.306  28.882  0.00  0.00     0.116 A 
ATOM     94  H44 L04 d          37.837  34.200  29.637  0.00  0.00     0.088 H 
ATOM     95  C17 L04 d          36.499  31.663  27.858  0.00  0.00    -0.045 A 
ATOM     96  F1  L04 d          37.706  31.607  29.910  0.00  0.00    -0.206 F 
ATOM     97  C6  L04 d          35.983  32.392  26.792  0.00  0.00    -0.069 A 
ATOM     98  H17 L04 d          36.368  30.587  27.890  0.00  0.00     0.088 H 
ATOM     99  H7  L04 d          35.463  31.877  25.992  0.00  0.00     0.085 H 
ENDBRANCH  83  89
ENDBRANCH  76  79
ENDBRANCH  73  76
ENDBRANCH   1  73
TORSDOF 20
ENDMDL
MODEL 4
REMARK VINA RESULT:     -11.1      2.715     10.455
REMARK  20 active torsions:
REMARK  status: ('A' for Active; 'I' for Inactive)
REMARK    1  A    between atoms: C1_1  and  C23_23 
REMARK    2  A    between atoms: C1_1  and  C2_2 
REMARK    3  A    between atoms: C2_2  and  C18_18 
REMARK    4  A    between atoms: C2_2  and  C3_3 
REMARK    5  A    between atoms: C21_21  and  C4_4 
REMARK    6  A    between atoms: C13_13  and  C5_5 
REMARK    7  A    between atoms: C18_18  and  C7_7 
REMARK    8  A    between atoms: C7_7  and  C16_16 
REMARK    9  A    between atoms: C7_7  and  C8_8 
REMARK   10  A    between atoms: C8_8  and  C9_9 
REMARK   11  A    between atoms: C9_9  and  C10_10 
REMARK       I    between atoms: C16_16  and  N18_45 
REMARK   12  A    between atoms: N18_45  and  C19_19 
REMARK   13  A    between atoms: C19_19  and  C27_27 
REMARK   14  A    between atoms: C19_19  and  C20_20 
REMARK   15  A    between atoms: C20_20  and  C21_21 
REMARK   16  A    between atoms: C21_21  and  C22_22 
REMARK   17  A    between atoms: C23_23  and  C24_24 
REMARK   18  A    between atoms: C24_24  and  C25_25 
REMARK   19  A    between atoms: C25_25  and  N1_44 
REMARK       I    between atoms: C27_27  and  N29_46 
REMARK   20  A    between atoms: N29_46  and  C30_30 
ROOT
ATOM      1  C7  L04 d          34.548  39.173  23.451  0.00  0.00     0.025 C 
ATOM      2  H8  L04 d          34.408  39.121  24.541  0.00  0.00     0.054 H 
ENDROOT
BRANCH   1   3
ATOM      3  C18 L04 d          34.288  37.789  22.859  0.00  0.00    -0.041 C 
ATOM      4  H18 L04 d          33.395  37.860  22.222  0.00  0.00     0.035 H 
ATOM      5  H19 L04 d          35.158  37.520  22.242  0.00  0.00     0.035 H 
BRANCH   3   6
ATOM      6  C2  L04 d          34.058  36.653  23.858  0.00  0.00     0.031 C 
ATOM      7  H3  L04 d          34.734  36.825  24.707  0.00  0.00     0.056 H 
BRANCH   6   8
ATOM      8  C1  L04 d          34.400  35.267  23.292  0.00  0.00    -0.052 C 
ATOM      9  H1  L04 d          33.597  34.572  23.575  0.00  0.00     0.034 H 
ATOM     10  H2  L04 d          34.449  35.345  22.196  0.00  0.00     0.034 H 
BRANCH   8  11
ATOM     11  C23 L04 d          35.719  34.698  23.788  0.00  0.00    -0.063 C 
ATOM     12  H27 L04 d          36.207  35.438  24.438  0.00  0.00     0.033 H 
ATOM     13  H28 L04 d          36.365  34.486  22.924  0.00  0.00     0.033 H 
BRANCH  11  14
ATOM     14  C24 L04 d          35.504  33.412  24.574  0.00  0.00    -0.050 C 
ATOM     15  H29 L04 d          36.456  32.861  24.623  0.00  0.00     0.035 H 
ATOM     16  H30 L04 d          34.753  32.799  24.055  0.00  0.00     0.035 H 
BRANCH  14  17
ATOM     17  C25 L04 d          35.022  33.690  25.990  0.00  0.00    -0.002 C 
ATOM     18  H31 L04 d          33.999  33.299  26.094  0.00  0.00     0.064 H 
ATOM     19  H32 L04 d          35.016  34.778  26.150  0.00  0.00     0.064 H 
BRANCH  17  20
ATOM     20  N1  L04 d          35.861  33.074  27.017  0.00  0.00    -0.344 N 
ATOM     21  C28 L04 d          35.898  31.667  27.434  0.00  0.00     0.023 A 
ATOM     22  C36 L04 d          37.021  31.669  28.470  0.00  0.00    -0.025 A 
ATOM     23  H33 L04 d          36.138  31.006  26.588  0.00  0.00     0.071 H 
ATOM     24  H34 L04 d          34.943  31.358  27.882  0.00  0.00     0.071 H 
ATOM     25  C29 L04 d          37.499  32.995  28.628  0.00  0.00     0.040 A 
ATOM     26  C38 L04 d          37.610  30.629  29.199  0.00  0.00    -0.074 A 
ATOM     27  C26 L04 d          36.726  33.848  27.717  0.00  0.00     0.254 A 
ATOM     28  C37 L04 d          38.557  33.254  29.511  0.00  0.00    -0.067 A 
ATOM     29  O1  L04 d          36.868  35.066  27.579  0.00  0.00    -0.267 OA
ATOM     30  C40 L04 d          39.126  32.207  30.220  0.00  0.00    -0.082 A 
ATOM     31  H40 L04 d          38.927  34.265  29.639  0.00  0.00     0.085 H 
ATOM     32  C39 L04 d          38.660  30.912  30.068  0.00  0.00    -0.082 A 
ATOM     33  H43 L04 d          39.947  32.404  30.900  0.00  0.00     0.083 H 
ATOM     34  H42 L04 d          39.118  30.109  30.634  0.00  0.00     0.083 H 
ATOM     35  H41 L04 d          37.252  29.612  29.088  0.00  0.00     0.084 H 
ENDBRANCH  17  20
ENDBRANCH  14  17
ENDBRANCH  11  14
ENDBRANCH   8  11
ENDBRANCH   6   8
BRANCH   6  36
ATOM     36  C3  L04 d          32.623  36.714  24.394  0.00  0.00     0.177 C 
ATOM     37  O5  L04 d          31.668  37.246  23.770  0.00  0.00    -0.648 OA
ATOM     38  O4  L04 d          32.422  36.247  25.518  0.00  0.00    -0.648 OA
ENDBRANCH   6  36
ENDBRANCH   3   6
ENDBRANCH   1   3
BRANCH   1  39
ATOM     39  C16 L04 d          33.579  40.193  22.871  0.00  0.00     0.222 C 
ATOM     40  O17 L04 d          33.906  41.376  22.739  0.00  0.00    -0.273 OA
ATOM     41  N18 L04 d          32.383  39.727  22.527  0.00  0.00    -0.347 N 
ATOM     42  H46 L04 d          32.187  38.752  22.637  0.00  0.00     0.163 HD
BRANCH  41  43
ATOM     43  C19 L04 d          31.355  40.608  21.994  0.00  0.00     0.090 C 
ATOM     44  H20 L04 d          31.815  41.543  21.641  0.00  0.00     0.087 H 
BRANCH  43  45
ATOM     45  C27 L04 d          30.378  40.907  23.126  0.00  0.00     0.245 C 
ATOM     46  O28 L04 d          30.167  42.072  23.473  0.00  0.00    -0.271 OA
ATOM     47  N29 L04 d          29.741  39.854  23.640  0.00  0.00    -0.325 N 
ATOM     48  H47 L04 d          29.960  38.970  23.226  0.00  0.00     0.169 HD
BRANCH  47  49
ATOM     49  C30 L04 d          28.819  39.824  24.668  0.00  0.00     0.034 A 
ATOM     50  C35 L04 d          27.514  39.355  24.524  0.00  0.00    -0.057 A 
ATOM     51  C34 L04 d          26.630  39.361  25.600  0.00  0.00    -0.081 A 
ATOM     52  H39 L04 d          27.183  38.980  23.562  0.00  0.00     0.086 H 
ATOM     53  C33 L04 d          27.050  39.839  26.841  0.00  0.00    -0.083 A 
ATOM     54  H38 L04 d          25.618  38.994  25.473  0.00  0.00     0.083 H 
ATOM     55  C32 L04 d          28.349  40.311  26.996  0.00  0.00    -0.081 A 
ATOM     56  H37 L04 d          26.366  39.845  27.681  0.00  0.00     0.083 H 
ATOM     57  C31 L04 d          29.224  40.300  25.914  0.00  0.00    -0.057 A 
ATOM     58  H36 L04 d          28.679  40.686  27.957  0.00  0.00     0.083 H 
ATOM     59  H35 L04 d          30.236  40.666  26.042  0.00  0.00     0.086 H 
ENDBRANCH  47  49
ENDBRANCH  43  45
BRANCH  43  60
ATOM     60  C20 L04 d          30.613  39.944  20.833  0.00  0.00    -0.035 C 
ATOM     61  H21 L04 d          30.028  39.113  21.253  0.00  0.00     0.037 H 
ATOM     62  H22 L04 d          31.375  39.546  20.145  0.00  0.00     0.037 H 
BRANCH  60  63
ATOM     63  C21 L04 d          29.653  40.797  19.999  0.00  0.00    -0.059 C 
ATOM     64  H23 L04 d          29.386  41.699  20.569  0.00  0.00     0.038 H 
BRANCH  63  65
ATOM     65  C4  L04 d          30.366  41.207  18.722  0.00  0.00    -0.073 C 
ATOM     66  H4  L04 d          30.022  42.206  18.414  0.00  0.00     0.028 H 
ATOM     67  H5  L04 d          30.142  40.481  17.927  0.00  0.00     0.028 H 
ATOM     68  H6  L04 d          31.452  41.232  18.900  0.00  0.00     0.028 H 
ENDBRANCH  63  65
BRANCH  63  69
ATOM     69  C22 L04 d          28.374  40.024  19.680  0.00  0.00    -0.073 C 
ATOM     70  H24 L04 d          28.621  39.142  19.070  0.00  0.00     0.028 H 
ATOM     71  H25 L04 d          27.683  40.673  19.122  0.00  0.00     0.028 H 
ATOM     72  H26 L04 d          27.898  39.700  20.617  0.00  0.00     0.028 H 
ENDBRANCH  63  69
ENDBRANCH  60  63
ENDBRANCH  43  60
ENDBRANCH  41  43
ENDBRANCH   1  39
BRANCH   1  73
ATOM     73  C8  L04 d          35.976  39.640  23.154  0.00  0.00    -0.050 C 
ATOM     74  H9  L04 d          36.625  39.320  23.983  0.00  0.00     0.034 H 
ATOM     75  H10 L04 d          35.975  40.738  23.091  0.00  0.00     0.034 H 
BRANCH  73  76
ATOM     76  C9  L04 d          36.545  39.093  21.872  0.00  0.00    -0.040 C 
ATOM     77  H11 L04 d          36.760  39.941  21.205  0.00  0.00     0.040 H 
ATOM     78  H12 L04 d          35.786  38.447  21.409  0.00  0.00     0.040 H 
BRANCH  76  79
ATOM     79  C10 L04 d          37.802  38.295  22.031  0.00  0.00    -0.058 A 
ATOM     80  C15 L04 d          37.781  37.066  22.679  0.00  0.00    -0.076 A 
ATOM     81  C14 L04 d          38.936  36.306  22.800  0.00  0.00    -0.072 A 
ATOM     82  H16 L04 d          36.851  36.695  23.095  0.00  0.00     0.084 H 
ATOM     83  C13 L04 d          40.137  36.768  22.276  0.00  0.00    -0.026 A 
ATOM     84  H15 L04 d          38.901  35.348  23.306  0.00  0.00     0.084 H 
ATOM     85  C12 L04 d          40.156  38.001  21.631  0.00  0.00    -0.072 A 
ATOM     86  C11 L04 d          39.004  38.755  21.511  0.00  0.00    -0.076 A 
ATOM     87  H14 L04 d          41.086  38.375  21.219  0.00  0.00     0.084 H 
ATOM     88  H13 L04 d          39.040  39.715  21.007  0.00  0.00     0.084 H 
BRANCH  83  89
ATOM     89  C5  L04 d          41.371  35.974  22.394  0.00  0.00    -0.026 A 
ATOM     90  C43 L04 d          42.587  36.597  22.651  0.00  0.00    -0.069 A 
ATOM     91  C42 L04 d          43.754  35.852  22.754  0.00  0.00    -0.045 A 
ATOM     92  H45 L04 d          42.624  37.674  22.773  0.00  0.00     0.085 H 
ATOM     93  C41 L04 d          43.729  34.473  22.600  0.00  0.00     0.116 A 
ATOM     94  H44 L04 d          44.693  36.353  22.956  0.00  0.00     0.088 H 
ATOM     95  C17 L04 d          42.516  33.845  22.359  0.00  0.00    -0.045 A 
ATOM     96  F1  L04 d          44.873  33.762  22.686  0.00  0.00    -0.206 F 
ATOM     97  C6  L04 d          41.347  34.590  22.249  0.00  0.00    -0.069 A 
ATOM     98  H17 L04 d          42.479  32.766  22.256  0.00  0.00     0.088 H 
ATOM     99  H7  L04 d          40.407  34.089  22.049  0.00  0.00     0.085 H 
ENDBRANCH  83  89
ENDBRANCH  76  79
ENDBRANCH  73  76
ENDBRANCH   1  73
TORSDOF 20
ENDMDL
MODEL 5
REMARK VINA RESULT:     -11.0      1.859      2.836
REMARK  20 active torsions:
REMARK  status: ('A' for Active; 'I' for Inactive)
REMARK    1  A    between atoms: C1_1  and  C23_23 
REMARK    2  A    between atoms: C1_1  and  C2_2 
REMARK    3  A    between atoms: C2_2  and  C18_18 
REMARK    4  A    between atoms: C2_2  and  C3_3 
REMARK    5  A    between atoms: C21_21  and  C4_4 
REMARK    6  A    between atoms: C13_13  and  C5_5 
REMARK    7  A    between atoms: C18_18  and  C7_7 
REMARK    8  A    between atoms: C7_7  and  C16_16 
REMARK    9  A    between atoms: C7_7  and  C8_8 
REMARK   10  A    between atoms: C8_8  and  C9_9 
REMARK   11  A    between atoms: C9_9  and  C10_10 
REMARK       I    between atoms: C16_16  and  N18_45 
REMARK   12  A    between atoms: N18_45  and  C19_19 
REMARK   13  A    between atoms: C19_19  and  C27_27 
REMARK   14  A    between atoms: C19_19  and  C20_20 
REMARK   15  A    between atoms: C20_20  and  C21_21 
REMARK   16  A    between atoms: C21_21  and  C22_22 
REMARK   17  A    between atoms: C23_23  and  C24_24 
REMARK   18  A    between atoms: C24_24  and  C25_25 
REMARK   19  A    between atoms: C25_25  and  N1_44 
REMARK       I    between atoms: C27_27  and  N29_46 
REMARK   20  A    between atoms: N29_46  and  C30_30 
ROOT
ATOM      1  C7  L04 d          33.914  37.506  23.977  0.00  0.00     0.025 C 
ATOM      2  H8  L04 d          34.303  37.790  24.967  0.00  0.00     0.054 H 
ENDROOT
BRANCH   1   3
ATOM      3  C18 L04 d          32.714  38.394  23.652  0.00  0.00    -0.041 C 
ATOM      4  H18 L04 d          33.081  39.256  23.076  0.00  0.00     0.035 H 
ATOM      5  H19 L04 d          32.022  37.806  23.031  0.00  0.00     0.035 H 
BRANCH   3   6
ATOM      6  C2  L04 d          31.923  38.934  24.845  0.00  0.00     0.031 C 
ATOM      7  H3  L04 d          32.376  38.512  25.753  0.00  0.00     0.056 H 
BRANCH   6   8
ATOM      8  C1  L04 d          30.449  38.502  24.843  0.00  0.00    -0.052 C 
ATOM      9  H1  L04 d          30.311  37.747  25.630  0.00  0.00     0.034 H 
ATOM     10  H2  L04 d          29.831  39.384  25.068  0.00  0.00     0.034 H 
BRANCH   8  11
ATOM     11  C23 L04 d          29.973  37.910  23.527  0.00  0.00    -0.063 C 
ATOM     12  H27 L04 d          29.957  36.814  23.612  0.00  0.00     0.033 H 
ATOM     13  H28 L04 d          30.668  38.206  22.728  0.00  0.00     0.033 H 
BRANCH  11  14
ATOM     14  C24 L04 d          28.575  38.401  23.175  0.00  0.00    -0.050 C 
ATOM     15  H29 L04 d          27.960  38.410  24.088  0.00  0.00     0.035 H 
ATOM     16  H30 L04 d          28.131  37.714  22.440  0.00  0.00     0.035 H 
BRANCH  14  17
ATOM     17  C25 L04 d          28.601  39.804  22.586  0.00  0.00    -0.002 C 
ATOM     18  H31 L04 d          29.285  40.422  23.186  0.00  0.00     0.064 H 
ATOM     19  H32 L04 d          27.586  40.225  22.637  0.00  0.00     0.064 H 
BRANCH  17  20
ATOM     20  N1  L04 d          29.048  39.836  21.194  0.00  0.00    -0.344 N 
ATOM     21  C28 L04 d          28.480  39.124  20.042  0.00  0.00     0.023 A 
ATOM     22  C36 L04 d          29.340  39.640  18.890  0.00  0.00    -0.025 A 
ATOM     23  H33 L04 d          27.421  39.383  19.896  0.00  0.00     0.071 H 
ATOM     24  H34 L04 d          28.579  38.035  20.158  0.00  0.00     0.071 H 
ATOM     25  C29 L04 d          30.328  40.516  19.409  0.00  0.00     0.040 A 
ATOM     26  C38 L04 d          29.274  39.410  17.510  0.00  0.00    -0.074 A 
ATOM     27  C26 L04 d          30.124  40.589  20.861  0.00  0.00     0.254 A 
ATOM     28  C37 L04 d          31.229  41.144  18.538  0.00  0.00    -0.067 A 
ATOM     29  O1  L04 d          30.798  41.261  21.647  0.00  0.00    -0.267 OA
ATOM     30  C40 L04 d          31.142  40.903  17.176  0.00  0.00    -0.082 A 
ATOM     31  H40 L04 d          31.988  41.813  18.927  0.00  0.00     0.085 H 
ATOM     32  C39 L04 d          30.180  40.047  16.667  0.00  0.00    -0.082 A 
ATOM     33  H43 L04 d          31.836  41.390  16.500  0.00  0.00     0.083 H 
ATOM     34  H42 L04 d          30.132  39.871  15.599  0.00  0.00     0.083 H 
ATOM     35  H41 L04 d          28.525  38.742  17.103  0.00  0.00     0.084 H 
ENDBRANCH  17  20
ENDBRANCH  14  17
ENDBRANCH  11  14
ENDBRANCH   8  11
ENDBRANCH   6   8
BRANCH   6  36
ATOM     36  C3  L04 d          32.073  40.458  24.922  0.00  0.00     0.177 C 
ATOM     37  O5  L04 d          33.184  41.048  24.935  0.00  0.00    -0.648 OA
ATOM     38  O4  L04 d          31.037  41.121  25.017  0.00  0.00    -0.648 OA
ENDBRANCH   6  36
ENDBRANCH   3   6
ENDBRANCH   1   3
BRANCH   1  39
ATOM     39  C16 L04 d          35.012  37.691  22.939  0.00  0.00     0.222 C 
ATOM     40  O17 L04 d          34.762  37.622  21.733  0.00  0.00    -0.273 OA
ATOM     41  N18 L04 d          36.230  37.923  23.418  0.00  0.00    -0.347 N 
ATOM     42  H46 L04 d          36.364  37.990  24.406  0.00  0.00     0.163 HD
BRANCH  41  43
ATOM     43  C19 L04 d          37.372  38.081  22.529  0.00  0.00     0.090 C 
ATOM     44  H20 L04 d          37.027  38.099  21.484  0.00  0.00     0.087 H 
BRANCH  43  45
ATOM     45  C27 L04 d          38.292  36.886  22.751  0.00  0.00     0.245 C 
ATOM     46  O28 L04 d          37.932  35.951  23.471  0.00  0.00    -0.271 OA
ATOM     47  N29 L04 d          39.438  36.899  22.070  0.00  0.00    -0.325 N 
ATOM     48  H47 L04 d          39.580  37.689  21.472  0.00  0.00     0.169 HD
BRANCH  47  49
ATOM     49  C30 L04 d          40.456  35.965  22.081  0.00  0.00     0.034 A 
ATOM     50  C35 L04 d          40.535  34.895  21.191  0.00  0.00    -0.057 A 
ATOM     51  C34 L04 d          41.584  33.982  21.263  0.00  0.00    -0.081 A 
ATOM     52  H39 L04 d          39.770  34.773  20.432  0.00  0.00     0.086 H 
ATOM     53  C33 L04 d          42.572  34.134  22.235  0.00  0.00    -0.083 A 
ATOM     54  H38 L04 d          41.632  33.154  20.564  0.00  0.00     0.083 H 
ATOM     55  C32 L04 d          42.502  35.196  23.129  0.00  0.00    -0.081 A 
ATOM     56  H37 L04 d          43.391  33.426  22.293  0.00  0.00     0.083 H 
ATOM     57  C31 L04 d          41.450  36.104  23.048  0.00  0.00    -0.057 A 
ATOM     58  H36 L04 d          43.266  35.318  23.888  0.00  0.00     0.083 H 
ATOM     59  H35 L04 d          41.404  36.931  23.747  0.00  0.00     0.086 H 
ENDBRANCH  47  49
ENDBRANCH  43  45
BRANCH  43  60
ATOM     60  C20 L04 d          38.125  39.378  22.832  0.00  0.00    -0.035 C 
ATOM     61  H21 L04 d          39.105  39.096  23.243  0.00  0.00     0.037 H 
ATOM     62  H22 L04 d          37.547  39.919  23.596  0.00  0.00     0.037 H 
BRANCH  60  63
ATOM     63  C21 L04 d          38.381  40.356  21.682  0.00  0.00    -0.059 C 
ATOM     64  H23 L04 d          37.686  40.135  20.859  0.00  0.00     0.038 H 
BRANCH  63  65
ATOM     65  C4  L04 d          38.123  41.764  22.188  0.00  0.00    -0.073 C 
ATOM     66  H4  L04 d          37.039  41.928  22.281  0.00  0.00     0.028 H 
ATOM     67  H5  L04 d          38.544  42.492  21.480  0.00  0.00     0.028 H 
ATOM     68  H6  L04 d          38.598  41.894  23.172  0.00  0.00     0.028 H 
ENDBRANCH  63  65
BRANCH  63  69
ATOM     69  C22 L04 d          39.812  40.223  21.162  0.00  0.00    -0.073 C 
ATOM     70  H24 L04 d          39.859  40.582  20.123  0.00  0.00     0.028 H 
ATOM     71  H25 L04 d          40.119  39.167  21.199  0.00  0.00     0.028 H 
ATOM     72  H26 L04 d          40.488  40.823  21.789  0.00  0.00     0.028 H 
ENDBRANCH  63  69
ENDBRANCH  60  63
ENDBRANCH  43  60
ENDBRANCH  41  43
ENDBRANCH   1  39
BRANCH   1  73
ATOM     73  C8  L04 d          33.516  36.028  24.003  0.00  0.00    -0.050 C 
ATOM     74  H9  L04 d          32.733  35.867  23.246  0.00  0.00     0.034 H 
ATOM     75  H10 L04 d          33.116  35.795  25.000  0.00  0.00     0.034 H 
BRANCH  73  76
ATOM     76  C9  L04 d          34.652  35.082  23.716  0.00  0.00    -0.040 C 
ATOM     77  H11 L04 d          35.444  35.646  23.202  0.00  0.00     0.040 H 
ATOM     78  H12 L04 d          34.277  34.289  23.053  0.00  0.00     0.040 H 
BRANCH  76  79
ATOM     79  C10 L04 d          35.251  34.434  24.926  0.00  0.00    -0.058 A 
ATOM     80  C15 L04 d          35.620  33.094  24.899  0.00  0.00    -0.076 A 
ATOM     81  C14 L04 d          36.207  32.497  26.006  0.00  0.00    -0.072 A 
ATOM     82  H16 L04 d          35.448  32.509  24.004  0.00  0.00     0.084 H 
ATOM     83  C13 L04 d          36.432  33.233  27.163  0.00  0.00    -0.026 A 
ATOM     84  H15 L04 d          36.492  31.452  25.967  0.00  0.00     0.084 H 
ATOM     85  C12 L04 d          36.058  34.573  27.188  0.00  0.00    -0.072 A 
ATOM     86  C11 L04 d          35.474  35.166  26.084  0.00  0.00    -0.076 A 
ATOM     87  H14 L04 d          36.226  35.159  28.084  0.00  0.00     0.084 H 
ATOM     88  H13 L04 d          35.188  36.211  26.124  0.00  0.00     0.084 H 
BRANCH  83  89
ATOM     89  C5  L04 d          37.055  32.616  28.345  0.00  0.00    -0.026 A 
ATOM     90  C43 L04 d          37.698  33.403  29.294  0.00  0.00    -0.069 A 
ATOM     91  C42 L04 d          38.294  32.823  30.406  0.00  0.00    -0.045 A 
ATOM     92  H45 L04 d          37.733  34.479  29.165  0.00  0.00     0.085 H 
ATOM     93  C41 L04 d          38.262  31.448  30.590  0.00  0.00     0.116 A 
ATOM     94  H44 L04 d          38.790  33.451  31.137  0.00  0.00     0.088 H 
ATOM     95  C17 L04 d          37.608  30.659  29.654  0.00  0.00    -0.045 A 
ATOM     96  F1  L04 d          38.859  30.895  31.666  0.00  0.00    -0.206 F 
ATOM     97  C6  L04 d          37.016  31.238  28.537  0.00  0.00    -0.069 A 
ATOM     98  H17 L04 d          37.558  29.585  29.795  0.00  0.00     0.088 H 
ATOM     99  H7  L04 d          36.519  30.610  27.807  0.00  0.00     0.085 H 
ENDBRANCH  83  89
ENDBRANCH  76  79
ENDBRANCH  73  76
ENDBRANCH   1  73
TORSDOF 20
ENDMDL
MODEL 6
REMARK VINA RESULT:     -10.9      3.478     11.667
REMARK  20 active torsions:
REMARK  status: ('A' for Active; 'I' for Inactive)
REMARK    1  A    between atoms: C1_1  and  C23_23 
REMARK    2  A    between atoms: C1_1  and  C2_2 
REMARK    3  A    between atoms: C2_2  and  C18_18 
REMARK    4  A    between atoms: C2_2  and  C3_3 
REMARK    5  A    between atoms: C21_21  and  C4_4 
REMARK    6  A    between atoms: C13_13  and  C5_5 
REMARK    7  A    between atoms: C18_18  and  C7_7 
REMARK    8  A    between atoms: C7_7  and  C16_16 
REMARK    9  A    between atoms: C7_7  and  C8_8 
REMARK   10  A    between atoms: C8_8  and  C9_9 
REMARK   11  A    between atoms: C9_9  and  C10_10 
REMARK       I    between atoms: C16_16  and  N18_45 
REMARK   12  A    between atoms: N18_45  and  C19_19 
REMARK   13  A    between atoms: C19_19  and  C27_27 
REMARK   14  A    between atoms: C19_19  and  C20_20 
REMARK   15  A    between atoms: C20_20  and  C21_21 
REMARK   16  A    between atoms: C21_21  and  C22_22 
REMARK   17  A    between atoms: C23_23  and  C24_24 
REMARK   18  A    between atoms: C24_24  and  C25_25 
REMARK   19  A    between atoms: C25_25  and  N1_44 
REMARK       I    between atoms: C27_27  and  N29_46 
REMARK   20  A    between atoms: N29_46  and  C30_30 
ROOT
ATOM      1  C7  L04 d          37.199  38.276  22.866  0.00  0.00     0.025 C 
ATOM      2  H8  L04 d          37.384  38.746  23.843  0.00  0.00     0.054 H 
ENDROOT
BRANCH   1   3
ATOM      3  C18 L04 d          38.540  38.073  22.161  0.00  0.00    -0.041 C 
ATOM      4  H18 L04 d          38.428  37.227  21.467  0.00  0.00     0.035 H 
ATOM      5  H19 L04 d          38.760  38.988  21.591  0.00  0.00     0.035 H 
BRANCH   3   6
ATOM      6  C2  L04 d          39.744  37.783  23.059  0.00  0.00     0.031 C 
ATOM      7  H3  L04 d          39.397  37.850  24.100  0.00  0.00     0.056 H 
BRANCH   6   8
ATOM      8  C1  L04 d          40.878  38.807  22.904  0.00  0.00    -0.052 C 
ATOM      9  H1  L04 d          40.502  39.789  23.227  0.00  0.00     0.034 H 
ATOM     10  H2  L04 d          41.711  38.501  23.555  0.00  0.00     0.034 H 
BRANCH   8  11
ATOM     11  C23 L04 d          41.408  38.944  21.486  0.00  0.00    -0.063 C 
ATOM     12  H27 L04 d          41.259  39.979  21.146  0.00  0.00     0.033 H 
ATOM     13  H28 L04 d          40.854  38.258  20.829  0.00  0.00     0.033 H 
BRANCH  11  14
ATOM     14  C24 L04 d          42.892  38.607  21.417  0.00  0.00    -0.050 C 
ATOM     15  H29 L04 d          43.173  38.049  22.322  0.00  0.00     0.035 H 
ATOM     16  H30 L04 d          43.467  39.543  21.369  0.00  0.00     0.035 H 
BRANCH  14  17
ATOM     17  C25 L04 d          43.221  37.762  20.195  0.00  0.00    -0.002 C 
ATOM     18  H31 L04 d          44.198  38.082  19.802  0.00  0.00     0.064 H 
ATOM     19  H32 L04 d          42.447  37.932  19.433  0.00  0.00     0.064 H 
BRANCH  17  20
ATOM     20  N1  L04 d          43.284  36.331  20.483  0.00  0.00    -0.344 N 
ATOM     21  C28 L04 d          44.230  35.620  21.352  0.00  0.00     0.023 A 
ATOM     22  C36 L04 d          43.714  34.184  21.284  0.00  0.00    -0.025 A 
ATOM     23  H33 L04 d          44.196  36.008  22.381  0.00  0.00     0.071 H 
ATOM     24  H34 L04 d          45.258  35.693  20.967  0.00  0.00     0.071 H 
ATOM     25  C29 L04 d          42.609  34.134  20.395  0.00  0.00     0.040 A 
ATOM     26  C38 L04 d          44.126  33.019  21.943  0.00  0.00    -0.074 A 
ATOM     27  C26 L04 d          42.391  35.497  19.895  0.00  0.00     0.254 A 
ATOM     28  C37 L04 d          41.940  32.921  20.183  0.00  0.00    -0.067 A 
ATOM     29  O1  L04 d          41.510  35.838  19.101  0.00  0.00    -0.267 OA
ATOM     30  C40 L04 d          42.365  31.781  20.849  0.00  0.00    -0.082 A 
ATOM     31  H40 L04 d          41.096  32.874  19.504  0.00  0.00     0.085 H 
ATOM     32  C39 L04 d          43.443  31.828  21.716  0.00  0.00    -0.082 A 
ATOM     33  H43 L04 d          41.846  30.843  20.689  0.00  0.00     0.083 H 
ATOM     34  H42 L04 d          43.760  30.924  22.224  0.00  0.00     0.083 H 
ATOM     35  H41 L04 d          44.969  33.045  22.623  0.00  0.00     0.084 H 
ENDBRANCH  17  20
ENDBRANCH  14  17
ENDBRANCH  11  14
ENDBRANCH   8  11
ENDBRANCH   6   8
BRANCH   6  36
ATOM     36  C3  L04 d          40.233  36.348  22.828  0.00  0.00     0.177 C 
ATOM     37  O5  L04 d          39.708  35.559  22.001  0.00  0.00    -0.648 OA
ATOM     38  O4  L04 d          41.166  35.952  23.530  0.00  0.00    -0.648 OA
ENDBRANCH   6  36
ENDBRANCH   3   6
ENDBRANCH   1   3
BRANCH   1  39
ATOM     39  C16 L04 d          36.500  36.941  23.078  0.00  0.00     0.222 C 
ATOM     40  O17 L04 d          36.314  36.165  22.137  0.00  0.00    -0.273 OA
ATOM     41  N18 L04 d          36.113  36.681  24.323  0.00  0.00    -0.347 N 
ATOM     42  H46 L04 d          36.314  37.340  25.047  0.00  0.00     0.163 HD
BRANCH  41  43
ATOM     43  C19 L04 d          35.403  35.453  24.650  0.00  0.00     0.090 C 
ATOM     44  H20 L04 d          35.783  34.629  24.029  0.00  0.00     0.087 H 
BRANCH  43  45
ATOM     45  C27 L04 d          33.926  35.687  24.352  0.00  0.00     0.245 C 
ATOM     46  O28 L04 d          33.325  34.945  23.571  0.00  0.00    -0.271 OA
ATOM     47  N29 L04 d          33.343  36.674  25.034  0.00  0.00    -0.325 N 
ATOM     48  H47 L04 d          33.930  37.160  25.682  0.00  0.00     0.169 HD
BRANCH  47  49
ATOM     49  C30 L04 d          32.035  37.113  24.962  0.00  0.00     0.034 A 
ATOM     50  C35 L04 d          30.959  36.289  24.635  0.00  0.00    -0.057 A 
ATOM     51  C34 L04 d          29.664  36.797  24.571  0.00  0.00    -0.081 A 
ATOM     52  H39 L04 d          31.132  35.239  24.429  0.00  0.00     0.086 H 
ATOM     53  C33 L04 d          29.433  38.146  24.837  0.00  0.00    -0.083 A 
ATOM     54  H38 L04 d          28.837  36.145  24.314  0.00  0.00     0.083 H 
ATOM     55  C32 L04 d          30.499  38.978  25.163  0.00  0.00    -0.081 A 
ATOM     56  H37 L04 d          28.427  38.546  24.790  0.00  0.00     0.083 H 
ATOM     57  C31 L04 d          31.789  38.459  25.225  0.00  0.00    -0.057 A 
ATOM     58  H36 L04 d          30.326  40.028  25.367  0.00  0.00     0.083 H 
ATOM     59  H35 L04 d          32.616  39.113  25.482  0.00  0.00     0.086 H 
ENDBRANCH  47  49
ENDBRANCH  43  45
BRANCH  43  60
ATOM     60  C20 L04 d          35.582  35.094  26.127  0.00  0.00    -0.035 C 
ATOM     61  H21 L04 d          34.727  35.521  26.671  0.00  0.00     0.037 H 
ATOM     62  H22 L04 d          36.511  35.574  26.467  0.00  0.00     0.037 H 
BRANCH  60  63
ATOM     63  C21 L04 d          35.670  33.615  26.511  0.00  0.00    -0.059 C 
ATOM     64  H23 L04 d          34.681  33.271  26.846  0.00  0.00     0.038 H 
BRANCH  63  65
ATOM     65  C4  L04 d          36.081  32.827  25.279  0.00  0.00    -0.073 C 
ATOM     66  H4  L04 d          35.457  33.128  24.425  0.00  0.00     0.028 H 
ATOM     67  H5  L04 d          35.947  31.752  25.470  0.00  0.00     0.028 H 
ATOM     68  H6  L04 d          37.139  33.029  25.050  0.00  0.00     0.028 H 
ENDBRANCH  63  65
BRANCH  63  69
ATOM     69  C22 L04 d          36.671  33.405  27.646  0.00  0.00    -0.073 C 
ATOM     70  H24 L04 d          36.859  34.364  28.151  0.00  0.00     0.028 H 
ATOM     71  H25 L04 d          37.615  33.016  27.236  0.00  0.00     0.028 H 
ATOM     72  H26 L04 d          36.260  32.685  28.369  0.00  0.00     0.028 H 
ENDBRANCH  63  69
ENDBRANCH  60  63
ENDBRANCH  43  60
ENDBRANCH  41  43
ENDBRANCH   1  39
BRANCH   1  73
ATOM     73  C8  L04 d          36.276  39.180  22.044  0.00  0.00    -0.050 C 
ATOM     74  H9  L04 d          35.684  38.546  21.366  0.00  0.00     0.034 H 
ATOM     75  H10 L04 d          36.900  39.866  21.453  0.00  0.00     0.034 H 
BRANCH  73  76
ATOM     76  C9  L04 d          35.325  40.001  22.873  0.00  0.00    -0.040 C 
ATOM     77  H11 L04 d          35.630  41.054  22.800  0.00  0.00     0.040 H 
ATOM     78  H12 L04 d          35.407  39.668  23.918  0.00  0.00     0.040 H 
BRANCH  76  79
ATOM     79  C10 L04 d          33.888  39.902  22.465  0.00  0.00    -0.058 A 
ATOM     80  C15 L04 d          33.044  41.001  22.579  0.00  0.00    -0.076 A 
ATOM     81  C14 L04 d          31.720  40.925  22.170  0.00  0.00    -0.072 A 
ATOM     82  H16 L04 d          33.424  41.928  22.991  0.00  0.00     0.084 H 
ATOM     83  C13 L04 d          31.215  39.744  21.642  0.00  0.00    -0.026 A 
ATOM     84  H15 L04 d          31.076  41.792  22.263  0.00  0.00     0.084 H 
ATOM     85  C12 L04 d          32.061  38.644  21.533  0.00  0.00    -0.072 A 
ATOM     86  C11 L04 d          33.380  38.722  21.940  0.00  0.00    -0.076 A 
ATOM     87  H14 L04 d          31.681  37.714  21.124  0.00  0.00     0.084 H 
ATOM     88  H13 L04 d          34.023  37.853  21.848  0.00  0.00     0.084 H 
BRANCH  83  89
ATOM     89  C5  L04 d          29.814  39.647  21.202  0.00  0.00    -0.026 A 
ATOM     90  C43 L04 d          29.509  39.460  19.858  0.00  0.00    -0.069 A 
ATOM     91  C42 L04 d          28.188  39.377  19.439  0.00  0.00    -0.045 A 
ATOM     92  H45 L04 d          30.310  39.380  19.131  0.00  0.00     0.085 H 
ATOM     93  C41 L04 d          27.148  39.480  20.352  0.00  0.00     0.116 A 
ATOM     94  H44 L04 d          27.967  39.232  18.388  0.00  0.00     0.088 H 
ATOM     95  C17 L04 d          27.447  39.649  21.696  0.00  0.00    -0.045 A 
ATOM     96  F1  L04 d          25.868  39.414  19.930  0.00  0.00    -0.206 F 
ATOM     97  C6  L04 d          28.770  39.740  22.117  0.00  0.00    -0.069 A 
ATOM     98  H17 L04 d          26.645  39.712  22.423  0.00  0.00     0.088 H 
ATOM     99  H7  L04 d          28.990  39.884  23.168  0.00  0.00     0.085 H 
ENDBRANCH  83  89
ENDBRANCH  76  79
ENDBRANCH  73  76
ENDBRANCH   1  73
TORSDOF 20
ENDMDL
MODEL 7
REMARK VINA RESULT:     -10.8      3.669     11.281
REMARK  20 active torsions:
REMARK  status: ('A' for Active; 'I' for Inactive)
REMARK    1  A    between atoms: C1_1  and  C23_23 
REMARK    2  A    between atoms: C1_1  and  C2_2 
REMARK    3  A    between atoms: C2_2  and  C18_18 
REMARK    4  A    between atoms: C2_2  and  C3_3 
REMARK    5  A    between atoms: C21_21  and  C4_4 
REMARK    6  A    between atoms: C13_13  and  C5_5 
REMARK    7  A    between atoms: C18_18  and  C7_7 
REMARK    8  A    between atoms: C7_7  and  C16_16 
REMARK    9  A    between atoms: C7_7  and  C8_8 
REMARK   10  A    between atoms: C8_8  and  C9_9 
REMARK   11  A    between atoms: C9_9  and  C10_10 
REMARK       I    between atoms: C16_16  and  N18_45 
REMARK   12  A    between atoms: N18_45  and  C19_19 
REMARK   13  A    between atoms: C19_19  and  C27_27 
REMARK   14  A    between atoms: C19_19  and  C20_20 
REMARK   15  A    between atoms: C20_20  and  C21_21 
REMARK   16  A    between atoms: C21_21  and  C22_22 
REMARK   17  A    between atoms: C23_23  and  C24_24 
REMARK   18  A    between atoms: C24_24  and  C25_25 
REMARK   19  A    between atoms: C25_25  and  N1_44 
REMARK       I    between atoms: C27_27  and  N29_46 
REMARK   20  A    between atoms: N29_46  and  C30_30 
ROOT
ATOM      1  C7  L04 d          34.061  39.510  24.156  0.00  0.00     0.025 C 
ATOM      2  H8  L04 d          34.032  39.280  25.231  0.00  0.00     0.054 H 
ENDROOT
BRANCH   1   3
ATOM      3  C18 L04 d          34.494  38.255  23.399  0.00  0.00    -0.041 C 
ATOM      4  H18 L04 d          33.716  38.027  22.657  0.00  0.00     0.035 H 
ATOM      5  H19 L04 d          35.437  38.484  22.883  0.00  0.00     0.035 H 
BRANCH   3   6
ATOM      6  C2  L04 d          34.719  36.996  24.240  0.00  0.00     0.031 C 
ATOM      7  H3  L04 d          35.243  37.307  25.156  0.00  0.00     0.056 H 
BRANCH   6   8
ATOM      8  C1  L04 d          35.612  35.955  23.550  0.00  0.00    -0.052 C 
ATOM      9  H1  L04 d          34.963  35.229  23.039  0.00  0.00     0.034 H 
ATOM     10  H2  L04 d          36.235  36.475  22.807  0.00  0.00     0.034 H 
BRANCH   8  11
ATOM     11  C23 L04 d          36.529  35.194  24.492  0.00  0.00    -0.063 C 
ATOM     12  H27 L04 d          36.620  35.754  25.434  0.00  0.00     0.033 H 
ATOM     13  H28 L04 d          37.520  35.097  24.026  0.00  0.00     0.033 H 
BRANCH  11  14
ATOM     14  C24 L04 d          35.983  33.805  24.791  0.00  0.00    -0.050 C 
ATOM     15  H29 L04 d          36.816  33.086  24.788  0.00  0.00     0.035 H 
ATOM     16  H30 L04 d          35.258  33.531  24.010  0.00  0.00     0.035 H 
BRANCH  14  17
ATOM     17  C25 L04 d          35.291  33.751  26.145  0.00  0.00    -0.002 C 
ATOM     18  H31 L04 d          34.345  33.200  26.033  0.00  0.00     0.064 H 
ATOM     19  H32 L04 d          35.079  34.779  26.472  0.00  0.00     0.064 H 
BRANCH  17  20
ATOM     20  N1  L04 d          36.091  33.092  27.176  0.00  0.00    -0.344 N 
ATOM     21  C28 L04 d          36.143  31.663  27.510  0.00  0.00     0.023 A 
ATOM     22  C36 L04 d          37.210  31.626  28.602  0.00  0.00    -0.025 A 
ATOM     23  H33 L04 d          36.442  31.060  26.639  0.00  0.00     0.071 H 
ATOM     24  H34 L04 d          35.174  31.306  27.887  0.00  0.00     0.071 H 
ATOM     25  C29 L04 d          37.646  32.950  28.864  0.00  0.00     0.040 A 
ATOM     26  C38 L04 d          37.788  30.556  29.297  0.00  0.00    -0.074 A 
ATOM     27  C26 L04 d          36.899  33.840  27.967  0.00  0.00     0.254 A 
ATOM     28  C37 L04 d          38.650  33.178  29.816  0.00  0.00    -0.067 A 
ATOM     29  O1  L04 d          37.017  35.067  27.910  0.00  0.00    -0.267 OA
ATOM     30  C40 L04 d          39.208  32.102  30.490  0.00  0.00    -0.082 A 
ATOM     31  H40 L04 d          38.987  34.187  30.024  0.00  0.00     0.085 H 
ATOM     32  C39 L04 d          38.784  30.809  30.236  0.00  0.00    -0.082 A 
ATOM     33  H43 L04 d          39.988  32.276  31.223  0.00  0.00     0.083 H 
ATOM     34  H42 L04 d          39.233  29.983  30.776  0.00  0.00     0.083 H 
ATOM     35  H41 L04 d          37.462  29.541  29.106  0.00  0.00     0.084 H 
ENDBRANCH  17  20
ENDBRANCH  14  17
ENDBRANCH  11  14
ENDBRANCH   8  11
ENDBRANCH   6   8
BRANCH   6  36
ATOM     36  C3  L04 d          33.369  36.404  24.662  0.00  0.00     0.177 C 
ATOM     37  O5  L04 d          32.789  36.692  25.741  0.00  0.00    -0.648 OA
ATOM     38  O4  L04 d          32.860  35.571  23.908  0.00  0.00    -0.648 OA
ENDBRANCH   6  36
ENDBRANCH   3   6
ENDBRANCH   1   3
BRANCH   1  39
ATOM     39  C16 L04 d          32.678  39.956  23.704  0.00  0.00     0.222 C 
ATOM     40  O17 L04 d          32.176  40.999  24.130  0.00  0.00    -0.273 OA
ATOM     41  N18 L04 d          32.065  39.155  22.838  0.00  0.00    -0.347 N 
ATOM     42  H46 L04 d          32.534  38.334  22.512  0.00  0.00     0.163 HD
BRANCH  41  43
ATOM     43  C19 L04 d          30.723  39.451  22.356  0.00  0.00     0.090 C 
ATOM     44  H20 L04 d          30.625  40.532  22.177  0.00  0.00     0.087 H 
BRANCH  43  45
ATOM     45  C27 L04 d          29.743  39.016  23.440  0.00  0.00     0.245 C 
ATOM     46  O28 L04 d          29.577  37.817  23.682  0.00  0.00    -0.271 OA
ATOM     47  N29 L04 d          29.160  39.998  24.127  0.00  0.00    -0.325 N 
ATOM     48  H47 L04 d          29.429  40.927  23.871  0.00  0.00     0.169 HD
BRANCH  47  49
ATOM     49  C30 L04 d          28.233  39.902  25.147  0.00  0.00     0.034 A 
ATOM     50  C35 L04 d          26.966  39.340  24.991  0.00  0.00    -0.057 A 
ATOM     51  C34 L04 d          26.075  39.282  26.059  0.00  0.00    -0.081 A 
ATOM     52  H39 L04 d          26.672  38.943  24.026  0.00  0.00     0.086 H 
ATOM     53  C33 L04 d          26.447  39.788  27.303  0.00  0.00    -0.083 A 
ATOM     54  H38 L04 d          25.092  38.843  25.923  0.00  0.00     0.083 H 
ATOM     55  C32 L04 d          27.708  40.352  27.470  0.00  0.00    -0.081 A 
ATOM     56  H37 L04 d          25.757  39.744  28.138  0.00  0.00     0.083 H 
ATOM     57  C31 L04 d          28.591  40.404  26.396  0.00  0.00    -0.057 A 
ATOM     58  H36 L04 d          28.001  40.750  28.434  0.00  0.00     0.083 H 
ATOM     59  H35 L04 d          29.573  40.843  26.534  0.00  0.00     0.086 H 
ENDBRANCH  47  49
ENDBRANCH  43  45
BRANCH  43  60
ATOM     60  C20 L04 d          30.429  38.697  21.058  0.00  0.00    -0.035 C 
ATOM     61  H21 L04 d          29.770  37.855  21.314  0.00  0.00     0.037 H 
ATOM     62  H22 L04 d          31.389  38.312  20.681  0.00  0.00     0.037 H 
BRANCH  60  63
ATOM     63  C21 L04 d          29.765  39.459  19.908  0.00  0.00    -0.059 C 
ATOM     64  H23 L04 d          29.381  38.738  19.172  0.00  0.00     0.038 H 
BRANCH  63  65
ATOM     65  C4  L04 d          28.605  40.259  20.474  0.00  0.00    -0.073 C 
ATOM     66  H4  L04 d          28.491  41.194  19.904  0.00  0.00     0.028 H 
ATOM     67  H5  L04 d          28.802  40.496  21.530  0.00  0.00     0.028 H 
ATOM     68  H6  L04 d          27.680  39.668  20.398  0.00  0.00     0.028 H 
ENDBRANCH  63  65
BRANCH  63  69
ATOM     69  C22 L04 d          30.768  40.379  19.213  0.00  0.00    -0.073 C 
ATOM     70  H24 L04 d          31.640  39.792  18.887  0.00  0.00     0.028 H 
ATOM     71  H25 L04 d          31.095  41.162  19.913  0.00  0.00     0.028 H 
ATOM     72  H26 L04 d          30.293  40.845  18.337  0.00  0.00     0.028 H 
ENDBRANCH  63  69
ENDBRANCH  60  63
ENDBRANCH  43  60
ENDBRANCH  41  43
ENDBRANCH   1  39
BRANCH   1  73
ATOM     73  C8  L04 d          35.042  40.662  23.919  0.00  0.00    -0.050 C 
ATOM     74  H9  L04 d          35.982  40.429  24.440  0.00  0.00     0.034 H 
ATOM     75  H10 L04 d          34.606  41.580  24.341  0.00  0.00     0.034 H 
BRANCH  73  76
ATOM     76  C9  L04 d          35.355  40.912  22.468  0.00  0.00    -0.040 C 
ATOM     77  H11 L04 d          35.098  41.955  22.237  0.00  0.00     0.040 H 
ATOM     78  H12 L04 d          34.730  40.239  21.862  0.00  0.00     0.040 H 
BRANCH  76  79
ATOM     79  C10 L04 d          36.785  40.688  22.086  0.00  0.00    -0.058 A 
ATOM     80  C15 L04 d          37.763  41.612  22.438  0.00  0.00    -0.076 A 
ATOM     81  C14 L04 d          39.095  41.394  22.116  0.00  0.00    -0.072 A 
ATOM     82  H16 L04 d          37.481  42.513  22.970  0.00  0.00     0.084 H 
ATOM     83  C13 L04 d          39.472  40.246  21.432  0.00  0.00    -0.026 A 
ATOM     84  H15 L04 d          39.845  42.123  22.401  0.00  0.00     0.084 H 
ATOM     85  C12 L04 d          38.491  39.325  21.077  0.00  0.00    -0.072 A 
ATOM     86  C11 L04 d          37.165  39.544  21.399  0.00  0.00    -0.076 A 
ATOM     87  H14 L04 d          38.770  38.425  20.541  0.00  0.00     0.084 H 
ATOM     88  H13 L04 d          36.414  38.815  21.113  0.00  0.00     0.084 H 
BRANCH  83  89
ATOM     89  C5  L04 d          40.881  39.998  21.084  0.00  0.00    -0.026 A 
ATOM     90  C43 L04 d          41.279  39.945  19.754  0.00  0.00    -0.069 A 
ATOM     91  C42 L04 d          42.605  39.703  19.423  0.00  0.00    -0.045 A 
ATOM     92  H45 L04 d          40.548  40.095  18.967  0.00  0.00     0.085 H 
ATOM     93  C41 L04 d          43.558  39.507  20.413  0.00  0.00     0.116 A 
ATOM     94  H44 L04 d          42.900  39.665  18.380  0.00  0.00     0.088 H 
ATOM     95  C17 L04 d          43.169  39.575  21.743  0.00  0.00    -0.045 A 
ATOM     96  F1  L04 d          44.840  39.256  20.078  0.00  0.00    -0.206 F 
ATOM     97  C6  L04 d          41.839  39.811  22.076  0.00  0.00    -0.069 A 
ATOM     98  H17 L04 d          43.905  39.443  22.527  0.00  0.00     0.088 H 
ATOM     99  H7  L04 d          41.546  39.849  23.119  0.00  0.00     0.085 H 
ENDBRANCH  83  89
ENDBRANCH  76  79
ENDBRANCH  73  76
ENDBRANCH   1  73
TORSDOF 20
ENDMDL
MODEL 8
REMARK VINA RESULT:     -10.5      1.939      3.772
REMARK  20 active torsions:
REMARK  status: ('A' for Active; 'I' for Inactive)
REMARK    1  A    between atoms: C1_1  and  C23_23 
REMARK    2  A    between atoms: C1_1  and  C2_2 
REMARK    3  A    between atoms: C2_2  and  C18_18 
REMARK    4  A    between atoms: C2_2  and  C3_3 
REMARK    5  A    between atoms: C21_21  and  C4_4 
REMARK    6  A    between atoms: C13_13  and  C5_5 
REMARK    7  A    between atoms: C18_18  and  C7_7 
REMARK    8  A    between atoms: C7_7  and  C16_16 
REMARK    9  A    between atoms: C7_7  and  C8_8 
REMARK   10  A    between atoms: C8_8  and  C9_9 
REMARK   11  A    between atoms: C9_9  and  C10_10 
REMARK       I    between atoms: C16_16  and  N18_45 
REMARK   12  A    between atoms: N18_45  and  C19_19 
REMARK   13  A    between atoms: C19_19  and  C27_27 
REMARK   14  A    between atoms: C19_19  and  C20_20 
REMARK   15  A    between atoms: C20_20  and  C21_21 
REMARK   16  A    between atoms: C21_21  and  C22_22 
REMARK   17  A    between atoms: C23_23  and  C24_24 
REMARK   18  A    between atoms: C24_24  and  C25_25 
REMARK   19  A    between atoms: C25_25  and  N1_44 
REMARK       I    between atoms: C27_27  and  N29_46 
REMARK   20  A    between atoms: N29_46  and  C30_30 
ROOT
ATOM      1  C7  L04 d          36.959  37.394  22.867  0.00  0.00     0.025 C 
ATOM      2  H8  L04 d          36.552  37.650  23.857  0.00  0.00     0.054 H 
ENDROOT
BRANCH   1   3
ATOM      3  C18 L04 d          37.101  38.679  22.051  0.00  0.00    -0.041 C 
ATOM      4  H18 L04 d          38.144  39.015  22.136  0.00  0.00     0.035 H 
ATOM      5  H19 L04 d          36.878  38.435  21.002  0.00  0.00     0.035 H 
BRANCH   3   6
ATOM      6  C2  L04 d          36.200  39.847  22.458  0.00  0.00     0.031 C 
ATOM      7  H3  L04 d          36.830  40.748  22.487  0.00  0.00     0.056 H 
BRANCH   6   8
ATOM      8  C1  L04 d          35.592  39.686  23.859  0.00  0.00    -0.052 C 
ATOM      9  H1  L04 d          35.514  38.612  24.079  0.00  0.00     0.034 H 
ATOM     10  H2  L04 d          36.269  40.161  24.585  0.00  0.00     0.034 H 
BRANCH   8  11
ATOM     11  C23 L04 d          34.214  40.306  24.018  0.00  0.00    -0.063 C 
ATOM     12  H27 L04 d          33.981  40.898  23.120  0.00  0.00     0.033 H 
ATOM     13  H28 L04 d          34.216  40.963  24.900  0.00  0.00     0.033 H 
BRANCH  11  14
ATOM     14  C24 L04 d          33.145  39.237  24.198  0.00  0.00    -0.050 C 
ATOM     15  H29 L04 d          33.452  38.560  25.010  0.00  0.00     0.035 H 
ATOM     16  H30 L04 d          33.049  38.668  23.262  0.00  0.00     0.035 H 
BRANCH  14  17
ATOM     17  C25 L04 d          31.794  39.844  24.547  0.00  0.00    -0.002 C 
ATOM     18  H31 L04 d          31.953  40.876  24.893  0.00  0.00     0.064 H 
ATOM     19  H32 L04 d          31.342  39.251  25.356  0.00  0.00     0.064 H 
BRANCH  17  20
ATOM     20  N1  L04 d          30.866  39.871  23.417  0.00  0.00    -0.344 N 
ATOM     21  C28 L04 d          31.180  39.976  21.987  0.00  0.00     0.023 A 
ATOM     22  C36 L04 d          29.797  39.872  21.346  0.00  0.00    -0.025 A 
ATOM     23  H33 L04 d          31.833  39.154  21.660  0.00  0.00     0.071 H 
ATOM     24  H34 L04 d          31.656  40.939  21.753  0.00  0.00     0.071 H 
ATOM     25  C29 L04 d          28.821  39.778  22.371  0.00  0.00     0.040 A 
ATOM     26  C38 L04 d          29.399  39.831  20.004  0.00  0.00    -0.074 A 
ATOM     27  C26 L04 d          29.533  39.808  23.654  0.00  0.00     0.254 A 
ATOM     28  C37 L04 d          27.466  39.645  22.033  0.00  0.00    -0.067 A 
ATOM     29  O1  L04 d          29.007  39.744  24.769  0.00  0.00    -0.267 OA
ATOM     30  C40 L04 d          27.097  39.603  20.697  0.00  0.00    -0.082 A 
ATOM     31  H40 L04 d          26.714  39.575  22.810  0.00  0.00     0.085 H 
ATOM     32  C39 L04 d          28.049  39.696  19.696  0.00  0.00    -0.082 A 
ATOM     33  H43 L04 d          26.051  39.496  20.434  0.00  0.00     0.083 H 
ATOM     34  H42 L04 d          27.737  39.664  18.658  0.00  0.00     0.083 H 
ATOM     35  H41 L04 d          30.136  39.903  19.213  0.00  0.00     0.084 H 
ENDBRANCH  17  20
ENDBRANCH  14  17
ENDBRANCH  11  14
ENDBRANCH   8  11
ENDBRANCH   6   8
BRANCH   6  36
ATOM     36  C3  L04 d          35.125  40.073  21.389  0.00  0.00     0.177 C 
ATOM     37  O5  L04 d          34.957  41.167  20.791  0.00  0.00    -0.648 OA
ATOM     38  O4  L04 d          34.367  39.130  21.146  0.00  0.00    -0.648 OA
ENDBRANCH   6  36
ENDBRANCH   3   6
ENDBRANCH   1   3
BRANCH   1  39
ATOM     39  C16 L04 d          38.312  36.721  23.043  0.00  0.00     0.222 C 
ATOM     40  O17 L04 d          38.701  36.359  24.157  0.00  0.00    -0.273 OA
ATOM     41  N18 L04 d          39.027  36.558  21.935  0.00  0.00    -0.347 N 
ATOM     42  H46 L04 d          38.647  36.852  21.058  0.00  0.00     0.163 HD
BRANCH  41  43
ATOM     43  C19 L04 d          40.354  35.960  21.975  0.00  0.00     0.090 C 
ATOM     44  H20 L04 d          40.462  35.360  22.891  0.00  0.00     0.087 H 
BRANCH  43  45
ATOM     45  C27 L04 d          41.368  37.098  21.979  0.00  0.00     0.245 C 
ATOM     46  O28 L04 d          41.855  37.500  20.919  0.00  0.00    -0.271 OA
ATOM     47  N29 L04 d          41.618  37.651  23.166  0.00  0.00    -0.325 N 
ATOM     48  H47 L04 d          41.110  37.270  23.939  0.00  0.00     0.169 HD
BRANCH  47  49
ATOM     49  C30 L04 d          42.488  38.681  23.469  0.00  0.00     0.034 A 
ATOM     50  C35 L04 d          42.283  40.005  23.086  0.00  0.00    -0.057 A 
ATOM     51  C34 L04 d          43.205  40.995  23.415  0.00  0.00    -0.081 A 
ATOM     52  H39 L04 d          41.394  40.268  22.524  0.00  0.00     0.086 H 
ATOM     53  C33 L04 d          44.351  40.664  24.139  0.00  0.00    -0.083 A 
ATOM     54  H38 L04 d          43.034  42.021  23.110  0.00  0.00     0.083 H 
ATOM     55  C32 L04 d          44.566  39.346  24.526  0.00  0.00    -0.081 A 
ATOM     56  H37 L04 d          45.070  41.432  24.399  0.00  0.00     0.083 H 
ATOM     57  C31 L04 d          43.638  38.365  24.191  0.00  0.00    -0.057 A 
ATOM     58  H36 L04 d          45.456  39.083  25.086  0.00  0.00     0.083 H 
ATOM     59  H35 L04 d          43.811  37.339  24.498  0.00  0.00     0.086 H 
ENDBRANCH  47  49
ENDBRANCH  43  45
BRANCH  43  60
ATOM     60  C20 L04 d          40.586  35.063  20.757  0.00  0.00    -0.035 C 
ATOM     61  H21 L04 d          41.144  35.657  20.018  0.00  0.00     0.037 H 
ATOM     62  H22 L04 d          39.597  34.804  20.351  0.00  0.00     0.037 H 
BRANCH  60  63
ATOM     63  C21 L04 d          41.352  33.752  20.954  0.00  0.00    -0.059 C 
ATOM     64  H23 L04 d          40.635  32.920  20.999  0.00  0.00     0.038 H 
BRANCH  63  65
ATOM     65  C4  L04 d          42.272  33.554  19.762  0.00  0.00    -0.073 C 
ATOM     66  H4  L04 d          41.957  34.215  18.941  0.00  0.00     0.028 H 
ATOM     67  H5  L04 d          42.222  32.507  19.430  0.00  0.00     0.028 H 
ATOM     68  H6  L04 d          43.306  33.798  20.052  0.00  0.00     0.028 H 
ENDBRANCH  63  65
BRANCH  63  69
ATOM     69  C22 L04 d          42.152  33.779  22.256  0.00  0.00    -0.073 C 
ATOM     70  H24 L04 d          42.375  34.821  22.529  0.00  0.00     0.028 H 
ATOM     71  H25 L04 d          43.093  33.226  22.120  0.00  0.00     0.028 H 
ATOM     72  H26 L04 d          41.563  33.308  23.058  0.00  0.00     0.028 H 
ENDBRANCH  63  69
ENDBRANCH  60  63
ENDBRANCH  43  60
ENDBRANCH  41  43
ENDBRANCH   1  39
BRANCH   1  73
ATOM     73  C8  L04 d          36.013  36.406  22.179  0.00  0.00    -0.050 C 
ATOM     74  H9  L04 d          36.603  35.541  21.840  0.00  0.00     0.034 H 
ATOM     75  H10 L04 d          35.563  36.907  21.310  0.00  0.00     0.034 H 
BRANCH  73  76
ATOM     76  C9  L04 d          34.903  35.904  23.063  0.00  0.00    -0.040 C 
ATOM     77  H11 L04 d          34.268  35.234  22.466  0.00  0.00     0.040 H 
ATOM     78  H12 L04 d          34.311  36.770  23.395  0.00  0.00     0.040 H 
BRANCH  76  79
ATOM     79  C10 L04 d          35.356  35.156  24.279  0.00  0.00    -0.058 A 
ATOM     80  C15 L04 d          35.817  33.849  24.173  0.00  0.00    -0.076 A 
ATOM     81  C14 L04 d          36.270  33.163  25.290  0.00  0.00    -0.072 A 
ATOM     82  H16 L04 d          35.823  33.360  23.206  0.00  0.00     0.084 H 
ATOM     83  C13 L04 d          36.267  33.774  26.538  0.00  0.00    -0.026 A 
ATOM     84  H15 L04 d          36.629  32.145  25.190  0.00  0.00     0.084 H 
ATOM     85  C12 L04 d          35.801  35.081  26.641  0.00  0.00    -0.072 A 
ATOM     86  C11 L04 d          35.351  35.763  25.527  0.00  0.00    -0.076 A 
ATOM     87  H14 L04 d          35.791  35.571  27.609  0.00  0.00     0.084 H 
ATOM     88  H13 L04 d          34.991  36.781  25.628  0.00  0.00     0.084 H 
BRANCH  83  89
ATOM     89  C5  L04 d          36.746  33.062  27.733  0.00  0.00    -0.026 A 
ATOM     90  C43 L04 d          37.479  33.732  28.706  0.00  0.00    -0.069 A 
ATOM     91  C42 L04 d          37.940  33.061  29.831  0.00  0.00    -0.045 A 
ATOM     92  H45 L04 d          37.693  34.788  28.586  0.00  0.00     0.085 H 
ATOM     93  C41 L04 d          37.679  31.709  30.005  0.00  0.00     0.116 A 
ATOM     94  H44 L04 d          38.509  33.598  30.580  0.00  0.00     0.088 H 
ATOM     95  C17 L04 d          36.934  31.039  29.045  0.00  0.00    -0.045 A 
ATOM     96  F1  L04 d          38.146  31.064  31.093  0.00  0.00    -0.206 F 
ATOM     97  C6  L04 d          36.478  31.709  27.914  0.00  0.00    -0.069 A 
ATOM     98  H17 L04 d          36.707  29.987  29.177  0.00  0.00     0.088 H 
ATOM     99  H7  L04 d          35.907  31.171  27.166  0.00  0.00     0.085 H 
ENDBRANCH  83  89
ENDBRANCH  76  79
ENDBRANCH  73  76
ENDBRANCH   1  73
TORSDOF 20
ENDMDL
MODEL 9
REMARK VINA RESULT:     -10.4      3.670     11.403
REMARK  20 active torsions:
REMARK  status: ('A' for Active; 'I' for Inactive)
REMARK    1  A    between atoms: C1_1  and  C23_23 
REMARK    2  A    between atoms: C1_1  and  C2_2 
REMARK    3  A    between atoms: C2_2  and  C18_18 
REMARK    4  A    between atoms: C2_2  and  C3_3 
REMARK    5  A    between atoms: C21_21  and  C4_4 
REMARK    6  A    between atoms: C13_13  and  C5_5 
REMARK    7  A    between atoms: C18_18  and  C7_7 
REMARK    8  A    between atoms: C7_7  and  C16_16 
REMARK    9  A    between atoms: C7_7  and  C8_8 
REMARK   10  A    between atoms: C8_8  and  C9_9 
REMARK   11  A    between atoms: C9_9  and  C10_10 
REMARK       I    between atoms: C16_16  and  N18_45 
REMARK   12  A    between atoms: N18_45  and  C19_19 
REMARK   13  A    between atoms: C19_19  and  C27_27 
REMARK   14  A    between atoms: C19_19  and  C20_20 
REMARK   15  A    between atoms: C20_20  and  C21_21 
REMARK   16  A    between atoms: C21_21  and  C22_22 
REMARK   17  A    between atoms: C23_23  and  C24_24 
REMARK   18  A    between atoms: C24_24  and  C25_25 
REMARK   19  A    between atoms: C25_25  and  N1_44 
REMARK       I    between atoms: C27_27  and  N29_46 
REMARK   20  A    between atoms: N29_46  and  C30_30 
ROOT
ATOM      1  C7  L04 d          33.498  39.732  22.825  0.00  0.00     0.025 C 
ATOM      2  H8  L04 d          33.855  39.761  23.865  0.00  0.00     0.054 H 
ENDROOT
BRANCH   1   3
ATOM      3  C18 L04 d          33.516  38.282  22.343  0.00  0.00    -0.041 C 
ATOM      4  H18 L04 d          32.487  38.009  22.067  0.00  0.00     0.035 H 
ATOM      5  H19 L04 d          34.159  38.234  21.452  0.00  0.00     0.035 H 
BRANCH   3   6
ATOM      6  C2  L04 d          34.023  37.239  23.341  0.00  0.00     0.031 C 
ATOM      7  H3  L04 d          34.841  37.704  23.909  0.00  0.00     0.056 H 
BRANCH   6   8
ATOM      8  C1  L04 d          34.607  35.988  22.668  0.00  0.00    -0.052 C 
ATOM      9  H1  L04 d          33.788  35.454  22.164  0.00  0.00     0.034 H 
ATOM     10  H2  L04 d          35.347  36.312  21.921  0.00  0.00     0.034 H 
BRANCH   8  11
ATOM     11  C23 L04 d          35.287  35.023  23.624  0.00  0.00    -0.063 C 
ATOM     12  H27 L04 d          35.211  34.003  23.219  0.00  0.00     0.033 H 
ATOM     13  H28 L04 d          34.781  35.069  24.600  0.00  0.00     0.033 H 
BRANCH  11  14
ATOM     14  C24 L04 d          36.756  35.375  23.811  0.00  0.00    -0.050 C 
ATOM     15  H29 L04 d          37.321  34.452  24.013  0.00  0.00     0.035 H 
ATOM     16  H30 L04 d          36.852  36.059  24.667  0.00  0.00     0.035 H 
BRANCH  14  17
ATOM     17  C25 L04 d          37.337  36.047  22.575  0.00  0.00    -0.002 C 
ATOM     18  H31 L04 d          36.830  37.012  22.432  0.00  0.00     0.064 H 
ATOM     19  H32 L04 d          37.149  35.401  21.705  0.00  0.00     0.064 H 
BRANCH  17  20
ATOM     20  N1  L04 d          38.775  36.288  22.672  0.00  0.00    -0.344 N 
ATOM     21  C28 L04 d          39.867  35.517  22.065  0.00  0.00     0.023 A 
ATOM     22  C36 L04 d          41.098  36.322  22.479  0.00  0.00    -0.025 A 
ATOM     23  H33 L04 d          39.767  35.478  20.970  0.00  0.00     0.071 H 
ATOM     24  H34 L04 d          39.906  34.494  22.466  0.00  0.00     0.071 H 
ATOM     25  C29 L04 d          40.685  37.406  23.296  0.00  0.00     0.040 A 
ATOM     26  C38 L04 d          42.454  36.168  22.166  0.00  0.00    -0.074 A 
ATOM     27  C26 L04 d          39.224  37.331  23.413  0.00  0.00     0.254 A 
ATOM     28  C37 L04 d          41.637  38.313  23.783  0.00  0.00    -0.067 A 
ATOM     29  O1  L04 d          38.513  38.114  24.048  0.00  0.00    -0.267 OA
ATOM     30  C40 L04 d          42.973  38.141  23.457  0.00  0.00    -0.082 A 
ATOM     31  H40 L04 d          41.330  39.143  24.410  0.00  0.00     0.085 H 
ATOM     32  C39 L04 d          43.378  37.083  22.661  0.00  0.00    -0.082 A 
ATOM     33  H43 L04 d          43.710  38.844  23.830  0.00  0.00     0.083 H 
ATOM     34  H42 L04 d          44.429  36.967  22.420  0.00  0.00     0.083 H 
ATOM     35  H41 L04 d          42.781  35.343  21.543  0.00  0.00     0.084 H 
ENDBRANCH  17  20
ENDBRANCH  14  17
ENDBRANCH  11  14
ENDBRANCH   8  11
ENDBRANCH   6   8
BRANCH   6  36
ATOM     36  C3  L04 d          32.912  36.888  24.337  0.00  0.00     0.177 C 
ATOM     37  O5  L04 d          31.855  36.285  24.017  0.00  0.00    -0.648 OA
ATOM     38  O4  L04 d          33.064  37.261  25.503  0.00  0.00    -0.648 OA
ENDBRANCH   6  36
ENDBRANCH   3   6
ENDBRANCH   1   3
BRANCH   1  39
ATOM     39  C16 L04 d          32.086  40.297  22.766  0.00  0.00     0.222 C 
ATOM     40  O17 L04 d          31.849  41.453  23.128  0.00  0.00    -0.273 OA
ATOM     41  N18 L04 d          31.150  39.473  22.308  0.00  0.00    -0.347 N 
ATOM     42  H46 L04 d          31.409  38.555  22.008  0.00  0.00     0.163 HD
BRANCH  41  43
ATOM     43  C19 L04 d          29.755  39.881  22.236  0.00  0.00     0.090 C 
ATOM     44  H20 L04 d          29.695  40.972  22.104  0.00  0.00     0.087 H 
BRANCH  43  45
ATOM     45  C27 L04 d          29.094  39.482  23.551  0.00  0.00     0.245 C 
ATOM     46  O28 L04 d          28.839  38.298  23.783  0.00  0.00    -0.271 OA
ATOM     47  N29 L04 d          28.892  40.469  24.424  0.00  0.00    -0.325 N 
ATOM     48  H47 L04 d          29.201  41.376  24.135  0.00  0.00     0.169 HD
BRANCH  47  49
ATOM     49  C30 L04 d          28.311  40.404  25.676  0.00  0.00     0.034 A 
ATOM     50  C35 L04 d          27.163  39.665  25.959  0.00  0.00    -0.057 A 
ATOM     51  C34 L04 d          26.622  39.650  27.242  0.00  0.00    -0.081 A 
ATOM     52  H39 L04 d          26.685  39.096  25.171  0.00  0.00     0.086 H 
ATOM     53  C33 L04 d          27.233  40.379  28.262  0.00  0.00    -0.083 A 
ATOM     54  H38 L04 d          25.728  39.072  27.448  0.00  0.00     0.083 H 
ATOM     55  C32 L04 d          28.377  41.120  27.991  0.00  0.00    -0.081 A 
ATOM     56  H37 L04 d          26.816  40.368  29.263  0.00  0.00     0.083 H 
ATOM     57  C31 L04 d          28.910  41.128  26.706  0.00  0.00    -0.057 A 
ATOM     58  H36 L04 d          28.854  41.691  28.780  0.00  0.00     0.083 H 
ATOM     59  H35 L04 d          29.804  41.707  26.501  0.00  0.00     0.086 H 
ENDBRANCH  47  49
ENDBRANCH  43  45
BRANCH  43  60
ATOM     60  C20 L04 d          29.043  39.194  21.069  0.00  0.00    -0.035 C 
ATOM     61  H21 L04 d          28.380  38.428  21.498  0.00  0.00     0.037 H 
ATOM     62  H22 L04 d          29.817  38.709  20.456  0.00  0.00     0.037 H 
BRANCH  60  63
ATOM     63  C21 L04 d          28.193  40.052  20.128  0.00  0.00    -0.059 C 
ATOM     64  H23 L04 d          28.271  41.106  20.433  0.00  0.00     0.038 H 
BRANCH  63  65
ATOM     65  C4  L04 d          28.738  39.899  18.720  0.00  0.00    -0.073 C 
ATOM     66  H4  L04 d          28.150  39.143  18.178  0.00  0.00     0.028 H 
ATOM     67  H5  L04 d          29.790  39.580  18.766  0.00  0.00     0.028 H 
ATOM     68  H6  L04 d          28.670  40.862  18.193  0.00  0.00     0.028 H 
ENDBRANCH  63  65
BRANCH  63  69
ATOM     69  C22 L04 d          26.724  39.634  20.188  0.00  0.00    -0.073 C 
ATOM     70  H24 L04 d          26.595  38.670  19.673  0.00  0.00     0.028 H 
ATOM     71  H25 L04 d          26.105  40.398  19.695  0.00  0.00     0.028 H 
ATOM     72  H26 L04 d          26.414  39.532  21.238  0.00  0.00     0.028 H 
ENDBRANCH  63  69
ENDBRANCH  60  63
ENDBRANCH  43  60
ENDBRANCH  41  43
ENDBRANCH   1  39
BRANCH   1  73
ATOM     73  C8  L04 d          34.407  40.611  21.962  0.00  0.00    -0.050 C 
ATOM     74  H9  L04 d          33.798  41.420  21.530  0.00  0.00     0.034 H 
ATOM     75  H10 L04 d          34.820  39.991  21.153  0.00  0.00     0.034 H 
BRANCH  73  76
ATOM     76  C9  L04 d          35.553  41.233  22.714  0.00  0.00    -0.040 C 
ATOM     77  H11 L04 d          35.489  40.909  23.763  0.00  0.00     0.040 H 
ATOM     78  H12 L04 d          35.443  42.326  22.662  0.00  0.00     0.040 H 
BRANCH  76  79
ATOM     79  C10 L04 d          36.912  40.876  22.198  0.00  0.00    -0.058 A 
ATOM     80  C15 L04 d          37.078  39.802  21.331  0.00  0.00    -0.076 A 
ATOM     81  C14 L04 d          38.330  39.487  20.822  0.00  0.00    -0.072 A 
ATOM     82  H16 L04 d          36.220  39.204  21.048  0.00  0.00     0.084 H 
ATOM     83  C13 L04 d          39.442  40.242  21.177  0.00  0.00    -0.026 A 
ATOM     84  H15 L04 d          38.442  38.648  20.145  0.00  0.00     0.084 H 
ATOM     85  C12 L04 d          39.272  41.313  22.048  0.00  0.00    -0.072 A 
ATOM     86  C11 L04 d          38.024  41.626  22.552  0.00  0.00    -0.076 A 
ATOM     87  H14 L04 d          40.131  41.911  22.335  0.00  0.00     0.084 H 
ATOM     88  H13 L04 d          37.913  42.464  23.231  0.00  0.00     0.084 H 
BRANCH  83  89
ATOM     89  C5  L04 d          40.776  39.923  20.645  0.00  0.00    -0.026 A 
ATOM     90  C43 L04 d          40.951  38.850  19.778  0.00  0.00    -0.069 A 
ATOM     91  C42 L04 d          42.211  38.541  19.282  0.00  0.00    -0.045 A 
ATOM     92  H45 L04 d          40.097  38.250  19.486  0.00  0.00     0.085 H 
ATOM     93  C41 L04 d          43.318  39.295  19.643  0.00  0.00     0.116 A 
ATOM     94  H44 L04 d          42.330  37.703  18.606  0.00  0.00     0.088 H 
ATOM     95  C17 L04 d          43.147  40.377  20.496  0.00  0.00    -0.045 A 
ATOM     96  F1  L04 d          44.539  38.975  19.167  0.00  0.00    -0.206 F 
ATOM     97  C6  L04 d          41.887  40.683  20.999  0.00  0.00    -0.069 A 
ATOM     98  H17 L04 d          44.000  40.986  20.772  0.00  0.00     0.088 H 
ATOM     99  H7  L04 d          41.768  41.523  21.674  0.00  0.00     0.085 H 
ENDBRANCH  83  89
ENDBRANCH  76  79
ENDBRANCH  73  76
ENDBRANCH   1  73
TORSDOF 20
ENDMDL
MODEL 10
REMARK VINA RESULT:     -10.3      4.209      7.280
REMARK  20 active torsions:
REMARK  status: ('A' for Active; 'I' for Inactive)
REMARK    1  A    between atoms: C1_1  and  C23_23 
REMARK    2  A    between atoms: C1_1  and  C2_2 
REMARK    3  A    between atoms: C2_2  and  C18_18 
REMARK    4  A    between atoms: C2_2  and  C3_3 
REMARK    5  A    between atoms: C21_21  and  C4_4 
REMARK    6  A    between atoms: C13_13  and  C5_5 
REMARK    7  A    between atoms: C18_18  and  C7_7 
REMARK    8  A    between atoms: C7_7  and  C16_16 
REMARK    9  A    between atoms: C7_7  and  C8_8 
REMARK   10  A    between atoms: C8_8  and  C9_9 
REMARK   11  A    between atoms: C9_9  and  C10_10 
REMARK       I    between atoms: C16_16  and  N18_45 
REMARK   12  A    between atoms: N18_45  and  C19_19 
REMARK   13  A    between atoms: C19_19  and  C27_27 
REMARK   14  A    between atoms: C19_19  and  C20_20 
REMARK   15  A    between atoms: C20_20  and  C21_21 
REMARK   16  A    between atoms: C21_21  and  C22_22 
REMARK   17  A    between atoms: C23_23  and  C24_24 
REMARK   18  A    between atoms: C24_24  and  C25_25 
REMARK   19  A    between atoms: C25_25  and  N1_44 
REMARK       I    between atoms: C27_27  and  N29_46 
REMARK   20  A    between atoms: N29_46  and  C30_30 
ROOT
ATOM      1  C7  L04 d          37.528  39.602  22.026  0.00  0.00     0.025 C 
ATOM      2  H8  L04 d          37.192  39.026  21.152  0.00  0.00     0.054 H 
ENDROOT
BRANCH   1   3
ATOM      3  C18 L04 d          37.009  38.917  23.290  0.00  0.00    -0.041 C 
ATOM      4  H18 L04 d          37.861  38.787  23.973  0.00  0.00     0.035 H 
ATOM      5  H19 L04 d          36.267  39.584  23.752  0.00  0.00     0.035 H 
BRANCH   3   6
ATOM      6  C2  L04 d          36.351  37.549  23.102  0.00  0.00     0.031 C 
ATOM      7  H3  L04 d          36.366  37.327  22.025  0.00  0.00     0.056 H 
BRANCH   6   8
ATOM      8  C1  L04 d          34.880  37.516  23.540  0.00  0.00    -0.052 C 
ATOM      9  H1  L04 d          34.805  36.900  24.448  0.00  0.00     0.034 H 
ATOM     10  H2  L04 d          34.566  38.545  23.770  0.00  0.00     0.034 H 
BRANCH   8  11
ATOM     11  C23 L04 d          33.929  36.950  22.499  0.00  0.00    -0.063 C 
ATOM     12  H27 L04 d          33.971  35.851  22.536  0.00  0.00     0.033 H 
ATOM     13  H28 L04 d          34.241  37.295  21.503  0.00  0.00     0.033 H 
BRANCH  11  14
ATOM     14  C24 L04 d          32.498  37.401  22.755  0.00  0.00    -0.050 C 
ATOM     15  H29 L04 d          31.861  37.055  21.927  0.00  0.00     0.035 H 
ATOM     16  H30 L04 d          32.474  38.500  22.802  0.00  0.00     0.035 H 
BRANCH  14  17
ATOM     17  C25 L04 d          31.955  36.840  24.061  0.00  0.00    -0.002 C 
ATOM     18  H31 L04 d          32.792  36.717  24.764  0.00  0.00     0.064 H 
ATOM     19  H32 L04 d          31.498  35.861  23.859  0.00  0.00     0.064 H 
BRANCH  17  20
ATOM     20  N1  L04 d          30.950  37.701  24.685  0.00  0.00    -0.344 N 
ATOM     21  C28 L04 d          31.154  38.978  25.379  0.00  0.00     0.023 A 
ATOM     22  C36 L04 d          29.723  39.392  25.717  0.00  0.00    -0.025 A 
ATOM     23  H33 L04 d          31.638  39.716  24.723  0.00  0.00     0.071 H 
ATOM     24  H34 L04 d          31.756  38.845  26.290  0.00  0.00     0.071 H 
ATOM     25  C29 L04 d          28.835  38.375  25.282  0.00  0.00     0.040 A 
ATOM     26  C38 L04 d          29.211  40.549  26.317  0.00  0.00    -0.074 A 
ATOM     27  C26 L04 d          29.649  37.321  24.665  0.00  0.00     0.254 A 
ATOM     28  C37 L04 d          27.453  38.535  25.457  0.00  0.00    -0.067 A 
ATOM     29  O1  L04 d          29.216  36.277  24.169  0.00  0.00    -0.267 OA
ATOM     30  C40 L04 d          26.969  39.691  26.051  0.00  0.00    -0.082 A 
ATOM     31  H40 L04 d          26.767  37.762  25.129  0.00  0.00     0.085 H 
ATOM     32  C39 L04 d          27.835  40.684  26.477  0.00  0.00    -0.082 A 
ATOM     33  H43 L04 d          25.901  39.819  26.183  0.00  0.00     0.083 H 
ATOM     34  H42 L04 d          27.435  41.578  26.941  0.00  0.00     0.083 H 
ATOM     35  H41 L04 d          29.880  41.332  26.655  0.00  0.00     0.084 H 
ENDBRANCH  17  20
ENDBRANCH  14  17
ENDBRANCH  11  14
ENDBRANCH   8  11
ENDBRANCH   6   8
BRANCH   6  36
ATOM     36  C3  L04 d          37.183  36.469  23.805  0.00  0.00     0.177 C 
ATOM     37  O5  L04 d          36.727  35.343  24.132  0.00  0.00    -0.648 OA
ATOM     38  O4  L04 d          38.348  36.755  24.093  0.00  0.00    -0.648 OA
ENDBRANCH   6  36
ENDBRANCH   3   6
ENDBRANCH   1   3
BRANCH   1  39
ATOM     39  C16 L04 d          39.049  39.657  22.034  0.00  0.00     0.222 C 
ATOM     40  O17 L04 d          39.645  40.737  22.056  0.00  0.00    -0.273 OA
ATOM     41  N18 L04 d          39.671  38.483  22.014  0.00  0.00    -0.347 N 
ATOM     42  H46 L04 d          39.132  37.642  22.021  0.00  0.00     0.163 HD
BRANCH  41  43
ATOM     43  C19 L04 d          41.124  38.401  21.983  0.00  0.00     0.090 C 
ATOM     44  H20 L04 d          41.527  39.212  21.359  0.00  0.00     0.087 H 
BRANCH  43  45
ATOM     45  C27 L04 d          41.492  37.051  21.378  0.00  0.00     0.245 C 
ATOM     46  O28 L04 d          41.431  36.880  20.158  0.00  0.00    -0.271 OA
ATOM     47  N29 L04 d          41.939  36.131  22.234  0.00  0.00    -0.325 N 
ATOM     48  H47 L04 d          41.998  36.420  23.190  0.00  0.00     0.169 HD
BRANCH  47  49
ATOM     49  C30 L04 d          42.332  34.833  21.974  0.00  0.00     0.034 A 
ATOM     50  C35 L04 d          43.609  34.342  22.239  0.00  0.00    -0.057 A 
ATOM     51  C34 L04 d          43.944  33.023  21.943  0.00  0.00    -0.081 A 
ATOM     52  H39 L04 d          44.352  34.995  22.682  0.00  0.00     0.086 H 
ATOM     53  C33 L04 d          42.992  32.176  21.375  0.00  0.00    -0.083 A 
ATOM     54  H38 L04 d          44.942  32.655  22.154  0.00  0.00     0.083 H 
ATOM     55  C32 L04 d          41.715  32.655  21.105  0.00  0.00    -0.081 A 
ATOM     56  H37 L04 d          43.248  31.148  21.144  0.00  0.00     0.083 H 
ATOM     57  C31 L04 d          41.392  33.975  21.405  0.00  0.00    -0.057 A 
ATOM     58  H36 L04 d          40.974  32.002  20.661  0.00  0.00     0.083 H 
ATOM     59  H35 L04 d          40.393  34.341  21.194  0.00  0.00     0.086 H 
ENDBRANCH  47  49
ENDBRANCH  43  45
BRANCH  43  60
ATOM     60  C20 L04 d          41.709  38.514  23.393  0.00  0.00    -0.035 C 
ATOM     61  H21 L04 d          42.080  37.517  23.671  0.00  0.00     0.037 H 
ATOM     62  H22 L04 d          40.886  38.801  24.064  0.00  0.00     0.037 H 
BRANCH  60  63
ATOM     63  C21 L04 d          42.852  39.504  23.629  0.00  0.00    -0.059 C 
ATOM     64  H23 L04 d          42.603  40.142  24.490  0.00  0.00     0.038 H 
BRANCH  63  65
ATOM     65  C4  L04 d          44.111  38.714  23.941  0.00  0.00    -0.073 C 
ATOM     66  H4  L04 d          44.089  38.390  24.993  0.00  0.00     0.028 H 
ATOM     67  H5  L04 d          44.994  39.347  23.771  0.00  0.00     0.028 H 
ATOM     68  H6  L04 d          44.161  37.831  23.287  0.00  0.00     0.028 H 
ENDBRANCH  63  65
BRANCH  63  69
ATOM     69  C22 L04 d          43.063  40.396  22.406  0.00  0.00    -0.073 C 
ATOM     70  H24 L04 d          44.109  40.320  22.073  0.00  0.00     0.028 H 
ATOM     71  H25 L04 d          42.837  41.439  22.669  0.00  0.00     0.028 H 
ATOM     72  H26 L04 d          42.395  40.069  21.595  0.00  0.00     0.028 H 
ENDBRANCH  63  69
ENDBRANCH  60  63
ENDBRANCH  43  60
ENDBRANCH  41  43
ENDBRANCH   1  39
BRANCH   1  73
ATOM     73  C8  L04 d          36.993  41.033  21.916  0.00  0.00    -0.050 C 
ATOM     74  H9  L04 d          36.554  41.163  20.916  0.00  0.00     0.034 H 
ATOM     75  H10 L04 d          37.836  41.728  22.040  0.00  0.00     0.034 H 
BRANCH  73  76
ATOM     76  C9  L04 d          35.944  41.375  22.940  0.00  0.00    -0.040 C 
ATOM     77  H11 L04 d          36.038  42.444  23.182  0.00  0.00     0.040 H 
ATOM     78  H12 L04 d          36.139  40.777  23.842  0.00  0.00     0.040 H 
BRANCH  76  79
ATOM     79  C10 L04 d          34.534  41.119  22.506  0.00  0.00    -0.058 A 
ATOM     80  C15 L04 d          33.504  41.080  23.439  0.00  0.00    -0.076 A 
ATOM     81  C14 L04 d          32.191  40.876  23.039  0.00  0.00    -0.072 A 
ATOM     82  H16 L04 d          33.729  41.210  24.491  0.00  0.00     0.084 H 
ATOM     83  C13 L04 d          31.886  40.705  21.695  0.00  0.00    -0.026 A 
ATOM     84  H15 L04 d          31.399  40.852  23.779  0.00  0.00     0.084 H 
ATOM     85  C12 L04 d          32.920  40.741  20.764  0.00  0.00    -0.072 A 
ATOM     86  C11 L04 d          34.227  40.944  21.164  0.00  0.00    -0.076 A 
ATOM     87  H14 L04 d          32.697  40.607  19.711  0.00  0.00     0.084 H 
ATOM     88  H13 L04 d          35.019  40.968  20.424  0.00  0.00     0.084 H 
BRANCH  83  89
ATOM     89  C5  L04 d          30.499  40.490  21.253  0.00  0.00    -0.026 A 
ATOM     90  C43 L04 d          29.495  40.238  22.181  0.00  0.00    -0.069 A 
ATOM     91  C42 L04 d          28.187  40.027  21.767  0.00  0.00    -0.045 A 
ATOM     92  H45 L04 d          29.735  40.207  23.238  0.00  0.00     0.085 H 
ATOM     93  C41 L04 d          27.857  40.060  20.420  0.00  0.00     0.116 A 
ATOM     94  H44 L04 d          27.416  39.832  22.503  0.00  0.00     0.088 H 
ATOM     95  C17 L04 d          28.852  40.327  19.490  0.00  0.00    -0.045 A 
ATOM     96  F1  L04 d          26.585  39.837  20.028  0.00  0.00    -0.206 F 
ATOM     97  C6  L04 d          30.164  40.533  19.903  0.00  0.00    -0.069 A 
ATOM     98  H17 L04 d          28.605  40.375  18.435  0.00  0.00     0.088 H 
ATOM     99  H7  L04 d          30.934  40.728  19.166  0.00  0.00     0.085 H 
ENDBRANCH  83  89
ENDBRANCH  76  79
ENDBRANCH  73  76
ENDBRANCH   1  73
TORSDOF 20
ENDMDL
