MODEL 1
REMARK VINA RESULT:      -5.3      0.000      0.000
REMARK  4 active torsions:
REMARK  status: ('A' for Active; 'I' for Inactive)
REMARK    1  A    between atoms: C3_2  and  O3_3 
REMARK    2  A    between atoms: C4_4  and  O4_5 
REMARK    3  A    between atoms: C_8  and  C1_12 
REMARK    4  A    between atoms: C1_12  and  O30_10 
ROOT
ATOM      1  C2  FA1 d          44.093   7.288  26.903  0.00  0.00    -0.001 C 
ATOM      2  C3  FA1 d          43.067   7.898  25.963  0.00  0.00     0.067 C 
ATOM      3  C4  FA1 d          43.612   7.860  24.533  0.00  0.00     0.076 C 
ATOM      4  C5  FA1 d          44.089   6.462  24.185  0.00  0.00    -0.074 C 
ATOM      5  C6  FA1 d          44.435   5.552  25.176  0.00  0.00    -0.066 C 
ATOM      6  C1  FA1 d          44.348   5.795  26.570  0.00  0.00     0.145 C 
ATOM      7  H1  FA1 d          43.722   7.365  27.936  0.00  0.00     0.042 H 
ATOM      8  H2  FA1 d          45.038   7.842  26.810  0.00  0.00     0.042 H 
ATOM      9  H3  FA1 d          42.141   7.306  26.008  0.00  0.00     0.087 H 
ATOM     10  H5  FA1 d          44.451   8.564  24.432  0.00  0.00     0.093 H 
ATOM     11  H7  FA1 d          44.161   6.167  23.139  0.00  0.00     0.080 H 
ATOM     12  H8  FA1 d          44.802   4.578  24.857  0.00  0.00     0.081 H 
ENDROOT
BRANCH   6  13
ATOM     13  C   FA1 d          45.708   5.312  27.108  0.00  0.00     0.327 C 
ATOM     14  O1  FA1 d          45.748   4.970  28.490  0.00  0.00    -0.184 OA
ATOM     15  O2  FA1 d          46.268   4.354  26.243  0.00  0.00    -0.184 OA
ENDBRANCH   6  13
BRANCH   6  16
ATOM     16  O30 FA1 d          43.259   4.925  27.049  0.00  0.00    -0.380 OA
ATOM     17  H9  FA1 d          43.592   4.044  27.178  0.00  0.00     0.211 HD
ENDBRANCH   6  16
BRANCH   2  18
ATOM     18  O3  FA1 d          42.767   9.264  26.361  0.00  0.00    -0.393 OA
ATOM     19  H4  FA1 d          43.577   9.751  26.453  0.00  0.00     0.210 HD
ENDBRANCH   2  18
BRANCH   3  20
ATOM     20  O4  FA1 d          42.558   8.247  23.685  0.00  0.00    -0.389 OA
ATOM     21  H6  FA1 d          41.732   7.962  24.059  0.00  0.00     0.210 HD
ENDBRANCH   3  20
TORSDOF 4
ENDMDL
MODEL 2
REMARK VINA RESULT:      -5.3      1.333      4.307
REMARK  4 active torsions:
REMARK  status: ('A' for Active; 'I' for Inactive)
REMARK    1  A    between atoms: C3_2  and  O3_3 
REMARK    2  A    between atoms: C4_4  and  O4_5 
REMARK    3  A    between atoms: C_8  and  C1_12 
REMARK    4  A    between atoms: C1_12  and  O30_10 
ROOT
ATOM      1  C2  FA1 d          44.144   5.731  25.725  0.00  0.00    -0.001 C 
ATOM      2  C3  FA1 d          44.878   5.445  27.025  0.00  0.00     0.067 C 
ATOM      3  C4  FA1 d          45.835   6.602  27.326  0.00  0.00     0.076 C 
ATOM      4  C5  FA1 d          45.102   7.928  27.251  0.00  0.00    -0.074 C 
ATOM      5  C6  FA1 d          43.922   8.059  26.528  0.00  0.00    -0.066 C 
ATOM      6  C1  FA1 d          43.269   7.007  25.839  0.00  0.00     0.145 C 
ATOM      7  H1  FA1 d          43.497   4.874  25.484  0.00  0.00     0.042 H 
ATOM      8  H2  FA1 d          44.881   5.873  24.921  0.00  0.00     0.042 H 
ATOM      9  H3  FA1 d          44.145   5.366  27.841  0.00  0.00     0.087 H 
ATOM     10  H5  FA1 d          46.661   6.604  26.600  0.00  0.00     0.093 H 
ATOM     11  H7  FA1 d          45.507   8.793  27.774  0.00  0.00     0.080 H 
ATOM     12  H8  FA1 d          43.466   9.046  26.487  0.00  0.00     0.081 H 
ENDROOT
BRANCH   6  13
ATOM     13  C   FA1 d          42.959   7.614  24.458  0.00  0.00     0.327 C 
ATOM     14  O1  FA1 d          41.839   8.492  24.398  0.00  0.00    -0.184 OA
ATOM     15  O2  FA1 d          44.134   8.107  23.862  0.00  0.00    -0.184 OA
ENDBRANCH   6  13
BRANCH   6  16
ATOM     16  O30 FA1 d          42.025   6.762  26.591  0.00  0.00    -0.380 OA
ATOM     17  H9  FA1 d          42.023   7.292  27.379  0.00  0.00     0.211 HD
ENDBRANCH   6  16
BRANCH   2  18
ATOM     18  O3  FA1 d          45.606   4.190  26.927  0.00  0.00    -0.393 OA
ATOM     19  H4  FA1 d          46.466   4.293  27.316  0.00  0.00     0.210 HD
ENDBRANCH   2  18
BRANCH   3  20
ATOM     20  O4  FA1 d          46.336   6.387  28.623  0.00  0.00    -0.389 OA
ATOM     21  H6  FA1 d          46.688   5.507  28.684  0.00  0.00     0.210 HD
ENDBRANCH   3  20
TORSDOF 4
ENDMDL
MODEL 3
REMARK VINA RESULT:      -5.1      1.308      4.189
REMARK  4 active torsions:
REMARK  status: ('A' for Active; 'I' for Inactive)
REMARK    1  A    between atoms: C3_2  and  O3_3 
REMARK    2  A    between atoms: C4_4  and  O4_5 
REMARK    3  A    between atoms: C_8  and  C1_12 
REMARK    4  A    between atoms: C1_12  and  O30_10 
ROOT
ATOM      1  C2  FA1 d          44.493   7.404  26.905  0.00  0.00    -0.001 C 
ATOM      2  C3  FA1 d          45.640   6.425  27.091  0.00  0.00     0.067 C 
ATOM      3  C4  FA1 d          45.191   5.033  26.642  0.00  0.00     0.076 C 
ATOM      4  C5  FA1 d          44.585   5.095  25.251  0.00  0.00    -0.074 C 
ATOM      5  C6  FA1 d          44.074   6.282  24.742  0.00  0.00    -0.066 C 
ATOM      6  C1  FA1 d          44.095   7.531  25.411  0.00  0.00     0.145 C 
ATOM      7  H1  FA1 d          44.801   8.392  27.279  0.00  0.00     0.042 H 
ATOM      8  H2  FA1 d          43.623   7.049  27.477  0.00  0.00     0.042 H 
ATOM      9  H3  FA1 d          46.489   6.745  26.469  0.00  0.00     0.087 H 
ATOM     10  H5  FA1 d          44.444   4.634  27.344  0.00  0.00     0.093 H 
ATOM     11  H7  FA1 d          44.551   4.192  24.643  0.00  0.00     0.080 H 
ATOM     12  H8  FA1 d          43.623   6.250  23.751  0.00  0.00     0.081 H 
ENDROOT
BRANCH   6  13
ATOM     13  C   FA1 d          42.657   8.057  25.244  0.00  0.00     0.327 C 
ATOM     14  O1  FA1 d          42.095   7.936  23.941  0.00  0.00    -0.184 OA
ATOM     15  O2  FA1 d          41.839   7.593  26.289  0.00  0.00    -0.184 OA
ENDBRANCH   6  13
BRANCH   6  16
ATOM     16  O30 FA1 d          45.046   8.364  24.653  0.00  0.00    -0.380 OA
ATOM     17  H9  FA1 d          44.733   9.261  24.632  0.00  0.00     0.211 HD
ENDBRANCH   6  16
BRANCH   2  18
ATOM     18  O3  FA1 d          46.064   6.403  28.482  0.00  0.00    -0.393 OA
ATOM     19  H4  FA1 d          45.354   6.078  29.023  0.00  0.00     0.210 HD
ENDBRANCH   2  18
BRANCH   3  20
ATOM     20  O4  FA1 d          46.336   4.215  26.645  0.00  0.00    -0.389 OA
ATOM     21  H6  FA1 d          46.908   4.471  25.932  0.00  0.00     0.210 HD
ENDBRANCH   3  20
TORSDOF 4
ENDMDL
MODEL 4
REMARK VINA RESULT:      -4.6      1.810      2.637
REMARK  4 active torsions:
REMARK  status: ('A' for Active; 'I' for Inactive)
REMARK    1  A    between atoms: C3_2  and  O3_3 
REMARK    2  A    between atoms: C4_4  and  O4_5 
REMARK    3  A    between atoms: C_8  and  C1_12 
REMARK    4  A    between atoms: C1_12  and  O30_10 
ROOT
ATOM      1  C2  FA1 d          44.465   7.624  25.781  0.00  0.00    -0.001 C 
ATOM      2  C3  FA1 d          44.007   6.847  24.557  0.00  0.00     0.067 C 
ATOM      3  C4  FA1 d          44.891   5.609  24.387  0.00  0.00     0.076 C 
ATOM      4  C5  FA1 d          44.963   4.828  25.686  0.00  0.00    -0.074 C 
ATOM      5  C6  FA1 d          44.697   5.435  26.908  0.00  0.00    -0.066 C 
ATOM      6  C1  FA1 d          44.302   6.786  27.076  0.00  0.00     0.145 C 
ATOM      7  H1  FA1 d          43.863   8.540  25.869  0.00  0.00     0.042 H 
ATOM      8  H2  FA1 d          45.525   7.891  25.659  0.00  0.00     0.042 H 
ATOM      9  H3  FA1 d          42.966   6.524  24.706  0.00  0.00     0.087 H 
ATOM     10  H5  FA1 d          45.906   5.911  24.091  0.00  0.00     0.093 H 
ATOM     11  H7  FA1 d          45.228   3.772  25.660  0.00  0.00     0.080 H 
ATOM     12  H8  FA1 d          44.800   4.826  27.804  0.00  0.00     0.081 H 
ENDROOT
BRANCH   6  13
ATOM     13  C   FA1 d          45.218   7.294  28.206  0.00  0.00     0.327 C 
ATOM     14  O1  FA1 d          46.297   6.438  28.568  0.00  0.00    -0.184 OA
ATOM     15  O2  FA1 d          45.572   8.637  27.985  0.00  0.00    -0.184 OA
ENDBRANCH   6  13
BRANCH   6  16
ATOM     16  O30 FA1 d          42.900   6.729  27.527  0.00  0.00    -0.380 OA
ATOM     17  H9  FA1 d          42.352   6.416  26.817  0.00  0.00     0.211 HD
ENDBRANCH   6  16
BRANCH   2  18
ATOM     18  O3  FA1 d          44.069   7.689  23.373  0.00  0.00    -0.393 OA
ATOM     19  H4  FA1 d          43.816   7.181  22.611  0.00  0.00     0.210 HD
ENDBRANCH   2  18
BRANCH   3  20
ATOM     20  O4  FA1 d          44.307   4.829  23.373  0.00  0.00    -0.389 OA
ATOM     21  H6  FA1 d          44.347   3.912  23.618  0.00  0.00     0.210 HD
ENDBRANCH   3  20
TORSDOF 4
ENDMDL
MODEL 5
REMARK VINA RESULT:      -4.5      1.410      4.235
REMARK  4 active torsions:
REMARK  status: ('A' for Active; 'I' for Inactive)
REMARK    1  A    between atoms: C3_2  and  O3_3 
REMARK    2  A    between atoms: C4_4  and  O4_5 
REMARK    3  A    between atoms: C_8  and  C1_12 
REMARK    4  A    between atoms: C1_12  and  O30_10 
ROOT
ATOM      1  C2  FA1 d          44.090   6.279  25.344  0.00  0.00    -0.001 C 
ATOM      2  C3  FA1 d          44.737   5.007  25.866  0.00  0.00     0.067 C 
ATOM      3  C4  FA1 d          45.902   5.378  26.787  0.00  0.00     0.076 C 
ATOM      4  C5  FA1 d          45.451   6.377  27.836  0.00  0.00    -0.074 C 
ATOM      5  C6  FA1 d          44.331   7.175  27.636  0.00  0.00    -0.066 C 
ATOM      6  C1  FA1 d          43.488   7.123  26.498  0.00  0.00     0.145 C 
ATOM      7  H1  FA1 d          43.287   6.010  24.640  0.00  0.00     0.042 H 
ATOM      8  H2  FA1 d          44.850   6.879  24.822  0.00  0.00     0.042 H 
ATOM      9  H3  FA1 d          43.993   4.437  26.443  0.00  0.00     0.087 H 
ATOM     10  H5  FA1 d          46.721   5.817  26.198  0.00  0.00     0.093 H 
ATOM     11  H7  FA1 d          46.016   6.471  28.762  0.00  0.00     0.080 H 
ATOM     12  H8  FA1 d          44.082   7.895  28.413  0.00  0.00     0.081 H 
ENDROOT
BRANCH   6  13
ATOM     13  C   FA1 d          43.322   8.602  26.100  0.00  0.00     0.327 C 
ATOM     14  O1  FA1 d          42.663   9.434  27.050  0.00  0.00    -0.184 OA
ATOM     15  O2  FA1 d          44.532   9.115  25.599  0.00  0.00    -0.184 OA
ENDBRANCH   6  13
BRANCH   6  16
ATOM     16  O30 FA1 d          42.211   6.567  26.983  0.00  0.00    -0.380 OA
ATOM     17  H9  FA1 d          41.505   7.166  26.769  0.00  0.00     0.211 HD
ENDBRANCH   6  16
BRANCH   2  18
ATOM     18  O3  FA1 d          45.198   4.185  24.759  0.00  0.00    -0.393 OA
ATOM     19  H4  FA1 d          44.761   3.343  24.787  0.00  0.00     0.210 HD
ENDBRANCH   2  18
BRANCH   3  20
ATOM     20  O4  FA1 d          46.335   4.185  27.395  0.00  0.00    -0.389 OA
ATOM     21  H6  FA1 d          46.994   4.386  28.048  0.00  0.00     0.210 HD
ENDBRANCH   3  20
TORSDOF 4
ENDMDL
