MODEL 1
REMARK VINA RESULT:      -6.1      0.000      0.000
REMARK  3 active torsions:
REMARK  status: ('A' for Active; 'I' for Inactive)
REMARK    1  A    between atoms: N2_1  and  C7_3 
REMARK    2  A    between atoms: C7_3  and  C4_4 
REMARK    3  A    between atoms: C1_9  and  N1_10 
ROOT
ATOM      1  C4  PBZ d          -1.786  14.235  16.566  0.00  0.00     0.007 A 
ATOM      2  C2  PBZ d          -2.233  16.145  17.982  0.00  0.00    -0.057 A 
ATOM      3  C3  PBZ d          -2.467  15.428  16.813  0.00  0.00    -0.067 A 
ATOM      4  C5  PBZ d          -0.872  13.755  17.507  0.00  0.00    -0.067 A 
ATOM      5  C6  PBZ d          -0.646  14.479  18.683  0.00  0.00    -0.057 A 
ATOM      6  C1  PBZ d          -1.319  15.674  18.914  0.00  0.00     0.025 A 
ATOM      7  H5  PBZ d          -2.765  17.072  18.164  0.00  0.00     0.086 H 
ATOM      8  H6  PBZ d          -3.184  15.798  16.089  0.00  0.00     0.085 H 
ATOM      9  H7  PBZ d          -0.341  12.827  17.327  0.00  0.00     0.085 H 
ATOM     10  H8  PBZ d           0.059  14.106  19.419  0.00  0.00     0.086 H 
ENDROOT
BRANCH   1  11
ATOM     11  C7  PBZ d          -2.038  13.487  15.283  0.00  0.00     0.102 C 
ATOM     12  N3  PBZ d          -2.588  14.079  14.221  0.00  0.00    -0.385 N 
ATOM     13  H3  PBZ d          -2.865  15.071  14.269  0.00  0.00     0.157 HD
ATOM     14  H4  PBZ d          -2.736  13.545  13.352  0.00  0.00     0.157 HD
BRANCH  11  15
ATOM     15  N2  PBZ d          -1.695  12.210  15.184  0.00  0.00    -0.385 N 
ATOM     16  H1  PBZ d          -2.301  11.552  14.675  0.00  0.00     0.157 HD
ATOM     17  H2  PBZ d          -0.821  11.877  15.616  0.00  0.00     0.157 HD
ENDBRANCH  11  15
ENDBRANCH   1  11
BRANCH   6  18
ATOM     18  N1  PBZ d          -1.103  16.378  20.057  0.00  0.00    -0.399 N 
ATOM     19  H9  PBZ d          -0.493  17.208  20.044  0.00  0.00     0.156 HD
ATOM     20  H10 PBZ d          -1.550  16.082  20.937  0.00  0.00     0.156 HD
ENDBRANCH   6  18
TORSDOF 3
ENDMDL
MODEL 2
REMARK VINA RESULT:      -6.1      0.039      1.524
REMARK  3 active torsions:
REMARK  status: ('A' for Active; 'I' for Inactive)
REMARK    1  A    between atoms: N2_1  and  C7_3 
REMARK    2  A    between atoms: C7_3  and  C4_4 
REMARK    3  A    between atoms: C1_9  and  N1_10 
ROOT
ATOM      1  C4  PBZ d          -1.798  14.265  16.544  0.00  0.00     0.007 A 
ATOM      2  C2  PBZ d          -0.680  14.458  18.681  0.00  0.00    -0.057 A 
ATOM      3  C3  PBZ d          -0.901  13.771  17.492  0.00  0.00    -0.067 A 
ATOM      4  C5  PBZ d          -2.468  15.466  16.789  0.00  0.00    -0.067 A 
ATOM      5  C6  PBZ d          -2.237  16.155  17.986  0.00  0.00    -0.057 A 
ATOM      6  C1  PBZ d          -1.352  15.647  18.931  0.00  0.00     0.025 A 
ATOM      7  H5  PBZ d           0.016  14.065  19.413  0.00  0.00     0.086 H 
ATOM      8  H6  PBZ d          -0.372  12.844  17.300  0.00  0.00     0.085 H 
ATOM      9  H7  PBZ d          -3.163  15.861  16.058  0.00  0.00     0.085 H 
ATOM     10  H8  PBZ d          -2.751  17.091  18.177  0.00  0.00     0.086 H 
ENDROOT
BRANCH   1  11
ATOM     11  C7  PBZ d          -2.038  13.493  15.273  0.00  0.00     0.102 C 
ATOM     12  N3  PBZ d          -2.581  14.065  14.196  0.00  0.00    -0.385 N 
ATOM     13  H3  PBZ d          -2.860  15.056  14.224  0.00  0.00     0.157 HD
ATOM     14  H4  PBZ d          -2.720  13.514  13.336  0.00  0.00     0.157 HD
BRANCH  11  15
ATOM     15  N2  PBZ d          -1.690  12.216  15.200  0.00  0.00    -0.385 N 
ATOM     16  H1  PBZ d          -0.715  11.959  14.993  0.00  0.00     0.157 HD
ATOM     17  H2  PBZ d          -2.396  11.480  15.349  0.00  0.00     0.157 HD
ENDBRANCH  11  15
ENDBRANCH   1  11
BRANCH   6  18
ATOM     18  N1  PBZ d          -1.124  16.316  20.092  0.00  0.00    -0.399 N 
ATOM     19  H9  PBZ d          -1.108  15.804  20.986  0.00  0.00     0.156 HD
ATOM     20  H10 PBZ d          -0.965  17.333  20.078  0.00  0.00     0.156 HD
ENDBRANCH   6  18
TORSDOF 3
ENDMDL
MODEL 3
REMARK VINA RESULT:      -5.4      0.994      4.410
REMARK  3 active torsions:
REMARK  status: ('A' for Active; 'I' for Inactive)
REMARK    1  A    between atoms: N2_1  and  C7_3 
REMARK    2  A    between atoms: C7_3  and  C4_4 
REMARK    3  A    between atoms: C1_9  and  N1_10 
ROOT
ATOM      1  C4  PBZ d          -1.201  15.357  17.932  0.00  0.00     0.007 A 
ATOM      2  C2  PBZ d          -0.785  13.105  17.152  0.00  0.00    -0.057 A 
ATOM      3  C3  PBZ d          -0.594  14.111  18.093  0.00  0.00    -0.067 A 
ATOM      4  C5  PBZ d          -2.017  15.588  16.821  0.00  0.00    -0.067 A 
ATOM      5  C6  PBZ d          -2.209  14.569  15.880  0.00  0.00    -0.057 A 
ATOM      6  C1  PBZ d          -1.588  13.335  16.043  0.00  0.00     0.025 A 
ATOM      7  H5  PBZ d          -0.307  12.141  17.284  0.00  0.00     0.086 H 
ATOM      8  H6  PBZ d           0.031  13.926  18.959  0.00  0.00     0.085 H 
ATOM      9  H7  PBZ d          -2.497  16.550  16.688  0.00  0.00     0.085 H 
ATOM     10  H8  PBZ d          -2.846  14.742  15.020  0.00  0.00     0.086 H 
ENDROOT
BRANCH   1  11
ATOM     11  C7  PBZ d          -0.963  16.439  18.952  0.00  0.00     0.102 C 
ATOM     12  N3  PBZ d          -0.341  17.578  18.636  0.00  0.00    -0.385 N 
ATOM     13  H3  PBZ d           0.002  17.728  17.676  0.00  0.00     0.157 HD
ATOM     14  H4  PBZ d          -0.204  18.305  19.352  0.00  0.00     0.157 HD
BRANCH  11  15
ATOM     15  N2  PBZ d          -1.391  16.281  20.197  0.00  0.00    -0.385 N 
ATOM     16  H1  PBZ d          -2.400  16.294  20.399  0.00  0.00     0.157 HD
ATOM     17  H2  PBZ d          -0.713  16.145  20.961  0.00  0.00     0.157 HD
ENDBRANCH  11  15
ENDBRANCH   1  11
BRANCH   6  18
ATOM     18  N1  PBZ d          -1.775  12.343  15.132  0.00  0.00    -0.399 N 
ATOM     19  H9  PBZ d          -0.978  11.992  14.581  0.00  0.00     0.156 HD
ATOM     20  H10 PBZ d          -2.713  11.941  14.994  0.00  0.00     0.156 HD
ENDBRANCH   6  18
TORSDOF 3
ENDMDL
MODEL 4
REMARK VINA RESULT:      -5.3      0.993      4.212
REMARK  3 active torsions:
REMARK  status: ('A' for Active; 'I' for Inactive)
REMARK    1  A    between atoms: N2_1  and  C7_3 
REMARK    2  A    between atoms: C7_3  and  C4_4 
REMARK    3  A    between atoms: C1_9  and  N1_10 
ROOT
ATOM      1  C4  PBZ d          -1.197  15.373  17.899  0.00  0.00     0.007 A 
ATOM      2  C2  PBZ d          -2.187  14.581  15.838  0.00  0.00    -0.057 A 
ATOM      3  C3  PBZ d          -1.986  15.595  16.769  0.00  0.00    -0.067 A 
ATOM      4  C5  PBZ d          -0.596  14.126  18.086  0.00  0.00    -0.067 A 
ATOM      5  C6  PBZ d          -0.797  13.112  17.142  0.00  0.00    -0.057 A 
ATOM      6  C1  PBZ d          -1.597  13.338  16.026  0.00  0.00     0.025 A 
ATOM      7  H5  PBZ d          -2.803  14.761  14.965  0.00  0.00     0.086 H 
ATOM      8  H6  PBZ d          -2.446  16.564  16.616  0.00  0.00     0.085 H 
ATOM      9  H7  PBZ d           0.023  13.945  18.957  0.00  0.00     0.085 H 
ATOM     10  H8  PBZ d          -0.327  12.145  17.281  0.00  0.00     0.086 H 
ENDROOT
BRANCH   1  11
ATOM     11  C7  PBZ d          -1.012  16.478  18.905  0.00  0.00     0.102 C 
ATOM     12  N3  PBZ d          -1.481  16.379  20.152  0.00  0.00    -0.385 N 
ATOM     13  H3  PBZ d          -1.996  15.535  20.443  0.00  0.00     0.157 HD
ATOM     14  H4  PBZ d          -1.327  17.146  20.822  0.00  0.00     0.157 HD
BRANCH  11  15
ATOM     15  N2  PBZ d          -0.353  17.578  18.567  0.00  0.00    -0.385 N 
ATOM     16  H1  PBZ d          -0.871  18.441  18.350  0.00  0.00     0.157 HD
ATOM     17  H2  PBZ d           0.675  17.568  18.521  0.00  0.00     0.157 HD
ENDBRANCH  11  15
ENDBRANCH   1  11
BRANCH   6  18
ATOM     18  N1  PBZ d          -1.792  12.357  15.107  0.00  0.00    -0.399 N 
ATOM     19  H9  PBZ d          -1.387  12.445  14.164  0.00  0.00     0.156 HD
ATOM     20  H10 PBZ d          -2.345  11.523  15.353  0.00  0.00     0.156 HD
ENDBRANCH   6  18
TORSDOF 3
ENDMDL
MODEL 5
REMARK VINA RESULT:      -4.7      1.114      4.455
REMARK  3 active torsions:
REMARK  status: ('A' for Active; 'I' for Inactive)
REMARK    1  A    between atoms: N2_1  and  C7_3 
REMARK    2  A    between atoms: C7_3  and  C4_4 
REMARK    3  A    between atoms: C1_9  and  N1_10 
ROOT
ATOM      1  C4  PBZ d          -1.402  14.547  17.704  0.00  0.00     0.007 A 
ATOM      2  C2  PBZ d          -1.255  12.892  15.945  0.00  0.00    -0.057 A 
ATOM      3  C3  PBZ d          -1.029  13.277  17.263  0.00  0.00    -0.067 A 
ATOM      4  C5  PBZ d          -2.018  15.432  16.815  0.00  0.00    -0.067 A 
ATOM      5  C6  PBZ d          -2.247  15.036  15.492  0.00  0.00    -0.057 A 
ATOM      6  C1  PBZ d          -1.859  13.773  15.058  0.00  0.00     0.025 A 
ATOM      7  H5  PBZ d          -0.959  11.905  15.611  0.00  0.00     0.086 H 
ATOM      8  H6  PBZ d          -0.560  12.585  17.952  0.00  0.00     0.085 H 
ATOM      9  H7  PBZ d          -2.317  16.419  17.148  0.00  0.00     0.085 H 
ATOM     10  H8  PBZ d          -2.730  15.718  14.801  0.00  0.00     0.086 H 
ENDROOT
BRANCH   1  11
ATOM     11  C7  PBZ d          -1.128  14.950  19.129  0.00  0.00     0.102 C 
ATOM     12  N3  PBZ d          -1.442  14.157  20.156  0.00  0.00    -0.385 N 
ATOM     13  H3  PBZ d          -1.897  13.249  19.985  0.00  0.00     0.157 HD
ATOM     14  H4  PBZ d          -1.230  14.454  21.119  0.00  0.00     0.157 HD
BRANCH  11  15
ATOM     15  N2  PBZ d          -0.544  16.112  19.387  0.00  0.00    -0.385 N 
ATOM     16  H1  PBZ d           0.219  16.162  20.077  0.00  0.00     0.157 HD
ATOM     17  H2  PBZ d          -0.853  16.964  18.897  0.00  0.00     0.157 HD
ENDBRANCH  11  15
ENDBRANCH   1  11
BRANCH   6  18
ATOM     18  N1  PBZ d          -2.082  13.385  13.775  0.00  0.00    -0.399 N 
ATOM     19  H9  PBZ d          -1.431  13.671  13.029  0.00  0.00     0.156 HD
ATOM     20  H10 PBZ d          -2.902  12.805  13.547  0.00  0.00     0.156 HD
ENDBRANCH   6  18
TORSDOF 3
ENDMDL
