MODEL 1
REMARK VINA RESULT:      -4.3      0.000      0.000
REMARK WARNING: 32 MAX_TORS EXCEEDED!!!
REMARK  36 active torsions:
REMARK  status: ('A' for Active; 'I' for Inactive)
REMARK    1  A    between atoms: C6_6  and  N6_7 
REMARK    2  A    between atoms: CCN_19  and  N9_10 
REMARK    3  A    between atoms: CCK_16  and  OAN_12 
REMARK    4  A    between atoms: CCL_17  and  OAO_13 
REMARK    5  A    between atoms: CCC_15  and  CCM_18 
REMARK       I    between atoms: NBR_27  and  CCC_15 
REMARK    6  A    between atoms: CBZ_20  and  CBG_22 
REMARK       I    between atoms: NBS_28  and  CBZ_20 
REMARK    7  A    between atoms: CBG_22  and  CAX_23 
REMARK    8  A    between atoms: CAX_23  and  CAU_24 
REMARK    9  A    between atoms: CAU_24  and  CAW_25 
REMARK   10  A    between atoms: CAW_25  and  CBD_26 
REMARK   11  A    between atoms: CBD_26  and  NBR_27 
REMARK   12  A    between atoms: CCI_29  and  NBS_28 
REMARK   13  A    between atoms: CCB_30  and  CCI_29 
REMARK   14  A    between atoms: CCI_29  and  CBJ_32 
REMARK       I    between atoms: NBQ_44  and  CCB_30 
REMARK   15  A    between atoms: CBJ_32  and  CAZ_33 
REMARK   16  A    between atoms: CAZ_33  and  CAS_34 
REMARK   17  A    between atoms: CAS_34  and  CAR_35 
REMARK   18  A    between atoms: CAR_35  and  NAC_36 
REMARK   19  A    between atoms: CBH_39  and  CCA_37 
REMARK       I    between atoms: CCA_37  and  NBT_45 
REMARK   20  A    between atoms: CAY_40  and  CBH_39 
REMARK   21  A    between atoms: CAT_41  and  CAY_40 
REMARK   22  A    between atoms: CAV_42  and  CAT_41 
REMARK   23  A    between atoms: CBC_43  and  CAV_42 
REMARK   24  A    between atoms: CBC_43  and  NBQ_44 
REMARK   25  A    between atoms: NBT_45  and  CCJ_46 
REMARK   26  A    between atoms: CCJ_46  and  CBK_47 
REMARK   27  A    between atoms: CCJ_46  and  CCD_54 
REMARK   28  A    between atoms: CBK_47  and  CBB_48 
REMARK   29  A    between atoms: CBB_48  and  CBF_49 
REMARK   30  A    between atoms: CBF_49  and  NBP_50 
REMARK       I    between atoms: NBP_50  and  CBX_51 
REMARK       I    between atoms: CBX_51  and  NAB_52 
REMARK       I    between atoms: CBX_51  and  NAE_53 
REMARK       I    between atoms: CCD_54  and  N_56 
REMARK   31  A    between atoms: N_56  and  CA_57 
REMARK   32  A    between atoms: CA_57  and  CB_58 
REMARK   33  A    between atoms: CA_57  and  C_65 
REMARK   34  A    between atoms: CB_58  and  CG_59 
REMARK   35  A    between atoms: CG_59  and  CD_60 
REMARK   36  A    between atoms: CD_60  and  NE_61 
REMARK       I    between atoms: NE_61  and  CZ_62 
REMARK       I    between atoms: CZ_62  and  NH1_63 
REMARK       I    between atoms: C_65  and  NAF_67 
ROOT
ATOM      1  CCB A02 d          16.046   6.564   4.918  0.00  0.00     0.240 C 
ATOM      2  OAK A02 d          14.856   6.276   4.915  0.00  0.00    -0.271 OA
ATOM      3  NBQ A02 d          16.660   7.186   3.912  0.00  0.00    -0.359 N 
ATOM      4  H45 A02 d          17.639   7.375   3.988  0.00  0.00     0.162 HD
ENDROOT
BRANCH   1   5
ATOM      5  CCI A02 d          16.946   6.177   6.117  0.00  0.00     0.089 C 
ATOM      6  H23 A02 d          16.780   5.107   6.310  0.00  0.00     0.087 H 
BRANCH   5   7
ATOM      7  NBS A02 d          16.535   6.915   7.339  0.00  0.00    -0.348 N 
ATOM      8  CBZ A02 d          16.490   8.256   7.374  0.00  0.00     0.218 C 
ATOM      9  OAI A02 d          16.823   8.989   6.435  0.00  0.00    -0.274 OA
ATOM     10  H22 A02 d          16.286   6.399   8.158  0.00  0.00     0.163 HD
BRANCH   8  11
ATOM     11  CBG A02 d          16.034   8.860   8.719  0.00  0.00     0.009 C 
ATOM     12  H11 A02 d          16.886   9.375   9.185  0.00  0.00     0.047 H 
ATOM     13  H12 A02 d          15.694   8.046   9.376  0.00  0.00     0.047 H 
BRANCH  11  14
ATOM     14  CAX A02 d          14.882   9.867   8.535  0.00  0.00    -0.057 C 
ATOM     15  H13 A02 d          14.587   9.885   7.475  0.00  0.00     0.033 H 
ATOM     16  H14 A02 d          15.229  10.868   8.836  0.00  0.00     0.033 H 
BRANCH  14  17
ATOM     17  CAU A02 d          13.667   9.483   9.387  0.00  0.00    -0.063 C 
ATOM     18  H15 A02 d          12.949   8.944   8.751  0.00  0.00     0.033 H 
ATOM     19  H16 A02 d          13.200  10.404   9.767  0.00  0.00     0.033 H 
BRANCH  17  20
ATOM     20  CAW A02 d          14.031   8.592  10.577  0.00  0.00    -0.050 C 
ATOM     21  H17 A02 d          14.864   9.039  11.141  0.00  0.00     0.035 H 
ATOM     22  H18 A02 d          14.324   7.592  10.222  0.00  0.00     0.035 H 
BRANCH  20  23
ATOM     23  CBD A02 d          12.793   8.486  11.470  0.00  0.00    -0.005 C 
ATOM     24  H19 A02 d          11.924   8.865  10.912  0.00  0.00     0.064 H 
ATOM     25  H20 A02 d          12.951   9.105  12.365  0.00  0.00     0.064 H 
BRANCH  23  26
ATOM     26  NBR A02 d          12.515   7.103  11.895  0.00  0.00    -0.359 N 
ATOM     27  CCC A02 d          11.663   6.282  11.280  0.00  0.00     0.249 C 
ATOM     28  OAL A02 d          10.950   6.604  10.318  0.00  0.00    -0.271 OA
ATOM     29  H21 A02 d          12.999   6.757  12.699  0.00  0.00     0.162 HD
BRANCH  27  30
ATOM     30  CCM A02 d          11.584   4.844  11.827  0.00  0.00     0.144 C 
ATOM     31  OBV A02 d          12.049   3.868  10.836  0.00  0.00    -0.346 OA
ATOM     32  CCN A02 d          13.385   3.414  11.205  0.00  0.00     0.140 C 
ATOM     33  CCL A02 d          13.838   4.371  12.325  0.00  0.00     0.105 C 
ATOM     34  H10 A02 d          13.331   2.389  11.601  0.00  0.00     0.123 H 
ATOM     35  CCK A02 d          12.530   4.702  13.019  0.00  0.00     0.098 C 
ATOM     36  H8  A02 d          14.329   5.270  11.921  0.00  0.00     0.093 H 
ATOM     37  H7  A02 d          12.593   5.619  13.622  0.00  0.00     0.091 H 
ATOM     38  H9  A02 d          10.548   4.621  12.124  0.00  0.00     0.102 H 
BRANCH  32  39
ATOM     39  N9  A02 d          14.328   3.410  10.007  0.00  0.00    -0.294 N 
ATOM     40  C4  A02 d          14.235   2.622   8.941  0.00  0.00     0.167 A 
ATOM     41  N3  A02 d          13.376   1.652   8.590  0.00  0.00    -0.222 NA
ATOM     42  C5  A02 d          15.295   2.937   8.101  0.00  0.00     0.149 A 
ATOM     43  C2  A02 d          13.523   1.008   7.440  0.00  0.00     0.091 A 
ATOM     44  N1  A02 d          14.530   1.297   6.605  0.00  0.00    -0.222 NA
ATOM     45  H1  A02 d          12.815   0.232   7.171  0.00  0.00     0.146 H 
ATOM     46  C6  A02 d          15.430   2.247   6.908  0.00  0.00     0.155 A 
ATOM     47  N7  A02 d          16.002   3.913   8.667  0.00  0.00    -0.236 NA
ATOM     48  C8  A02 d          15.397   4.202   9.825  0.00  0.00     0.071 A 
ATOM     49  H4  A02 d          15.726   4.971  10.522  0.00  0.00     0.144 H 
BRANCH  46  50
ATOM     50  N6  A02 d          16.436   2.526   6.087  0.00  0.00    -0.382 N 
ATOM     51  H2  A02 d          16.496   3.453   5.642  0.00  0.00     0.157 HD
ATOM     52  H3  A02 d          17.156   1.815   5.894  0.00  0.00     0.157 HD
ENDBRANCH  46  50
ENDBRANCH  32  39
BRANCH  33  53
ATOM     53  OAO A02 d          14.703   3.700  13.229  0.00  0.00    -0.388 OA
ATOM     54  H6  A02 d          15.498   4.208  13.342  0.00  0.00     0.210 HD
ENDBRANCH  33  53
BRANCH  35  55
ATOM     55  OAN A02 d          12.110   3.583  13.826  0.00  0.00    -0.390 OA
ATOM     56  H5  A02 d          12.712   3.476  14.554  0.00  0.00     0.210 HD
ENDBRANCH  35  55
ENDBRANCH  27  30
ENDBRANCH  23  26
ENDBRANCH  20  23
ENDBRANCH  17  20
ENDBRANCH  14  17
ENDBRANCH  11  14
ENDBRANCH   8  11
ENDBRANCH   5   7
BRANCH   5  57
ATOM     57  CBJ A02 d          18.454   6.349   5.824  0.00  0.00    -0.038 C 
ATOM     58  H24 A02 d          18.620   7.385   5.494  0.00  0.00     0.036 H 
ATOM     59  H25 A02 d          18.722   5.658   5.011  0.00  0.00     0.036 H 
BRANCH  57  60
ATOM     60  CAZ A02 d          19.387   6.073   7.007  0.00  0.00    -0.061 C 
ATOM     61  H26 A02 d          18.815   6.144   7.945  0.00  0.00     0.033 H 
ATOM     62  H27 A02 d          20.195   6.818   7.014  0.00  0.00     0.033 H 
BRANCH  60  63
ATOM     63  CAS A02 d          19.996   4.660   6.888  0.00  0.00    -0.043 C 
ATOM     64  H28 A02 d          19.182   3.920   6.846  0.00  0.00     0.035 H 
ATOM     65  H29 A02 d          20.625   4.465   7.769  0.00  0.00     0.035 H 
BRANCH  63  66
ATOM     66  CAR A02 d          20.855   4.532   5.620  0.00  0.00     0.080 C 
ATOM     67  H30 A02 d          21.287   5.513   5.373  0.00  0.00     0.075 H 
ATOM     68  H31 A02 d          20.225   4.187   4.787  0.00  0.00     0.075 H 
BRANCH  66  69
ATOM     69  NAC A02 d          21.941   3.561   5.844  0.00  0.00    -0.079 N 
ATOM     70  H32 A02 d          21.827   2.779   5.219  0.00  0.00     0.274 HD
ATOM     71  H33 A02 d          21.910   3.236   6.798  0.00  0.00     0.274 HD
ATOM     72  H34 A02 d          22.830   4.005   5.670  0.00  0.00     0.274 HD
ENDBRANCH  66  69
ENDBRANCH  63  66
ENDBRANCH  60  63
ENDBRANCH  57  60
ENDBRANCH   5  57
ENDBRANCH   1   5
BRANCH   3  73
ATOM     73  CBC A02 d          15.946   7.607   2.685  0.00  0.00    -0.005 C 
ATOM     74  H43 A02 d          14.870   7.419   2.809  0.00  0.00     0.064 H 
ATOM     75  H44 A02 d          16.114   8.682   2.520  0.00  0.00     0.064 H 
BRANCH  73  76
ATOM     76  CAV A02 d          16.458   6.825   1.469  0.00  0.00    -0.050 C 
ATOM     77  H41 A02 d          17.053   7.496   0.832  0.00  0.00     0.035 H 
ATOM     78  H42 A02 d          17.088   5.993   1.815  0.00  0.00     0.035 H 
BRANCH  76  79
ATOM     79  CAT A02 d          15.284   6.267   0.656  0.00  0.00    -0.063 C 
ATOM     80  H39 A02 d          15.186   6.848  -0.271  0.00  0.00     0.033 H 
ATOM     81  H40 A02 d          15.490   5.214   0.410  0.00  0.00     0.033 H 
BRANCH  79  82
ATOM     82  CAY A02 d          13.965   6.345   1.432  0.00  0.00    -0.057 C 
ATOM     83  H37 A02 d          13.852   5.432   2.035  0.00  0.00     0.033 H 
ATOM     84  H38 A02 d          13.993   7.222   2.095  0.00  0.00     0.033 H 
BRANCH  82  85
ATOM     85  CBH A02 d          12.756   6.472   0.489  0.00  0.00     0.009 C 
ATOM     86  H35 A02 d          13.102   6.368  -0.549  0.00  0.00     0.047 H 
ATOM     87  H36 A02 d          12.039   5.669   0.719  0.00  0.00     0.047 H 
BRANCH  85  88
ATOM     88  CCA A02 d          12.052   7.830   0.646  0.00  0.00     0.218 C 
ATOM     89  OAJ A02 d          11.843   8.551  -0.334  0.00  0.00    -0.274 OA
ATOM     90  NBT A02 d          11.692   8.137   1.898  0.00  0.00    -0.348 N 
ATOM     91  H46 A02 d          11.895   7.483   2.626  0.00  0.00     0.163 HD
BRANCH  90  92
ATOM     92  CCJ A02 d          11.007   9.403   2.257  0.00  0.00     0.089 C 
ATOM     93  H47 A02 d          10.862   9.983   1.335  0.00  0.00     0.087 H 
BRANCH  92  94
ATOM     94  CBK A02 d          11.868  10.258   3.225  0.00  0.00    -0.036 C 
ATOM     95  H48 A02 d          11.320  11.186   3.445  0.00  0.00     0.036 H 
ATOM     96  H49 A02 d          12.814  10.502   2.720  0.00  0.00     0.036 H 
BRANCH  94  97
ATOM     97  CBB A02 d          12.201   9.568   4.559  0.00  0.00    -0.048 C 
ATOM     98  H50 A02 d          12.543   8.544   4.353  0.00  0.00     0.035 H 
ATOM     99  H51 A02 d          11.290   9.534   5.176  0.00  0.00     0.035 H 
BRANCH  97 100
ATOM    100  CBF A02 d          13.299  10.308   5.340  0.00  0.00     0.009 C 
ATOM    101  H52 A02 d          14.151  10.516   4.676  0.00  0.00     0.064 H 
ATOM    102  H53 A02 d          13.635   9.690   6.185  0.00  0.00     0.064 H 
BRANCH 100 103
ATOM    103  NBP A02 d          12.736  11.576   5.841  0.00  0.00    -0.227 N 
ATOM    104  CBX A02 d          13.241  12.785   5.559  0.00  0.00     0.665 C 
ATOM    105  NAB A02 d          14.305  12.949   4.775  0.00  0.00    -0.235 N 
ATOM    106  NAE A02 d          12.647  13.857   6.076  0.00  0.00    -0.235 N 
ATOM    107  H55 A02 d          14.663  13.896   4.582  0.00  0.00     0.174 HD
ATOM    108  H56 A02 d          14.771  12.129   4.361  0.00  0.00     0.174 HD
ATOM    109  H57 A02 d          11.822  13.746   6.684  0.00  0.00     0.174 HD
ATOM    110  H58 A02 d          13.010  14.798   5.868  0.00  0.00     0.174 HD
ATOM    111  H54 A02 d          11.904  11.530   6.445  0.00  0.00     0.177 HD
ENDBRANCH 100 103
ENDBRANCH  97 100
ENDBRANCH  94  97
ENDBRANCH  92  94
BRANCH  92 112
ATOM    112  CCD A02 d           9.612   9.111   2.861  0.00  0.00     0.241 C 
ATOM    113  OAM A02 d           8.812  10.022   3.077  0.00  0.00    -0.271 OA
ATOM    114  N   A02 d           9.360   7.827   3.125  0.00  0.00    -0.346 N 
ATOM    115  H59 A02 d          10.070   7.153   2.918  0.00  0.00     0.163 HD
BRANCH 114 116
ATOM    116  CA  A02 d           8.086   7.349   3.707  0.00  0.00     0.089 C 
ATOM    117  H60 A02 d           7.332   8.141   3.596  0.00  0.00     0.087 H 
BRANCH 116 118
ATOM    118  CB  A02 d           8.279   7.054   5.200  0.00  0.00    -0.036 C 
ATOM    119  H61 A02 d           7.578   6.261   5.501  0.00  0.00     0.036 H 
ATOM    120  H62 A02 d           8.067   7.968   5.775  0.00  0.00     0.036 H 
BRANCH 118 121
ATOM    121  CG  A02 d           9.707   6.596   5.500  0.00  0.00    -0.048 C 
ATOM    122  H63 A02 d          10.406   7.400   5.225  0.00  0.00     0.035 H 
ATOM    123  H64 A02 d           9.929   5.698   4.905  0.00  0.00     0.035 H 
BRANCH 121 124
ATOM    124  CD  A02 d           9.884   6.269   6.979  0.00  0.00     0.009 C 
ATOM    125  H65 A02 d           9.624   5.216   7.165  0.00  0.00     0.064 H 
ATOM    126  H66 A02 d           9.239   6.920   7.588  0.00  0.00     0.064 H 
BRANCH 124 127
ATOM    127  NE  A02 d          11.285   6.502   7.315  0.00  0.00    -0.227 N 
ATOM    128  CZ  A02 d          12.231   5.564   7.355  0.00  0.00     0.665 C 
ATOM    129  NH1 A02 d          12.001   4.288   7.047  0.00  0.00    -0.235 N 
ATOM    130  NH2 A02 d          13.450   5.956   7.700  0.00  0.00    -0.235 N 
ATOM    131  H68 A02 d          12.767   3.601   7.093  0.00  0.00     0.174 HD
ATOM    132  H69 A02 d          11.057   3.989   6.763  0.00  0.00     0.174 HD
ATOM    133  H70 A02 d          13.626   6.943   7.937  0.00  0.00     0.174 HD
ATOM    134  H71 A02 d          14.221   5.274   7.730  0.00  0.00     0.174 HD
ATOM    135  H67 A02 d          11.566   7.468   7.538  0.00  0.00     0.177 HD
ENDBRANCH 124 127
ENDBRANCH 121 124
ENDBRANCH 118 121
ENDBRANCH 116 118
BRANCH 116 136
ATOM    136  C   A02 d           7.573   6.082   2.983  0.00  0.00     0.238 C 
ATOM    137  O   A02 d           7.220   5.078   3.605  0.00  0.00    -0.271 OA
ATOM    138  NAF A02 d           7.526   6.179   1.656  0.00  0.00    -0.368 N 
ATOM    139  H72 A02 d           7.206   5.405   1.110  0.00  0.00     0.159 HD
ATOM    140  H73 A02 d           7.811   7.025   1.206  0.00  0.00     0.159 HD
ENDBRANCH 116 136
ENDBRANCH 114 116
ENDBRANCH  92 112
ENDBRANCH  90  92
ENDBRANCH  85  88
ENDBRANCH  82  85
ENDBRANCH  79  82
ENDBRANCH  76  79
ENDBRANCH  73  76
ENDBRANCH   3  73
TORSDOF 36
ENDMDL
MODEL 2
REMARK VINA RESULT:      -4.1      3.107      7.848
REMARK WARNING: 32 MAX_TORS EXCEEDED!!!
REMARK  36 active torsions:
REMARK  status: ('A' for Active; 'I' for Inactive)
REMARK    1  A    between atoms: C6_6  and  N6_7 
REMARK    2  A    between atoms: CCN_19  and  N9_10 
REMARK    3  A    between atoms: CCK_16  and  OAN_12 
REMARK    4  A    between atoms: CCL_17  and  OAO_13 
REMARK    5  A    between atoms: CCC_15  and  CCM_18 
REMARK       I    between atoms: NBR_27  and  CCC_15 
REMARK    6  A    between atoms: CBZ_20  and  CBG_22 
REMARK       I    between atoms: NBS_28  and  CBZ_20 
REMARK    7  A    between atoms: CBG_22  and  CAX_23 
REMARK    8  A    between atoms: CAX_23  and  CAU_24 
REMARK    9  A    between atoms: CAU_24  and  CAW_25 
REMARK   10  A    between atoms: CAW_25  and  CBD_26 
REMARK   11  A    between atoms: CBD_26  and  NBR_27 
REMARK   12  A    between atoms: CCI_29  and  NBS_28 
REMARK   13  A    between atoms: CCB_30  and  CCI_29 
REMARK   14  A    between atoms: CCI_29  and  CBJ_32 
REMARK       I    between atoms: NBQ_44  and  CCB_30 
REMARK   15  A    between atoms: CBJ_32  and  CAZ_33 
REMARK   16  A    between atoms: CAZ_33  and  CAS_34 
REMARK   17  A    between atoms: CAS_34  and  CAR_35 
REMARK   18  A    between atoms: CAR_35  and  NAC_36 
REMARK   19  A    between atoms: CBH_39  and  CCA_37 
REMARK       I    between atoms: CCA_37  and  NBT_45 
REMARK   20  A    between atoms: CAY_40  and  CBH_39 
REMARK   21  A    between atoms: CAT_41  and  CAY_40 
REMARK   22  A    between atoms: CAV_42  and  CAT_41 
REMARK   23  A    between atoms: CBC_43  and  CAV_42 
REMARK   24  A    between atoms: CBC_43  and  NBQ_44 
REMARK   25  A    between atoms: NBT_45  and  CCJ_46 
REMARK   26  A    between atoms: CCJ_46  and  CBK_47 
REMARK   27  A    between atoms: CCJ_46  and  CCD_54 
REMARK   28  A    between atoms: CBK_47  and  CBB_48 
REMARK   29  A    between atoms: CBB_48  and  CBF_49 
REMARK   30  A    between atoms: CBF_49  and  NBP_50 
REMARK       I    between atoms: NBP_50  and  CBX_51 
REMARK       I    between atoms: CBX_51  and  NAB_52 
REMARK       I    between atoms: CBX_51  and  NAE_53 
REMARK       I    between atoms: CCD_54  and  N_56 
REMARK   31  A    between atoms: N_56  and  CA_57 
REMARK   32  A    between atoms: CA_57  and  CB_58 
REMARK   33  A    between atoms: CA_57  and  C_65 
REMARK   34  A    between atoms: CB_58  and  CG_59 
REMARK   35  A    between atoms: CG_59  and  CD_60 
REMARK   36  A    between atoms: CD_60  and  NE_61 
REMARK       I    between atoms: NE_61  and  CZ_62 
REMARK       I    between atoms: CZ_62  and  NH1_63 
REMARK       I    between atoms: C_65  and  NAF_67 
ROOT
ATOM      1  CCB A02 d          14.939   5.039   8.638  0.00  0.00     0.240 C 
ATOM      2  OAK A02 d          13.798   5.383   8.354  0.00  0.00    -0.271 OA
ATOM      3  NBQ A02 d          15.743   5.733   9.442  0.00  0.00    -0.359 N 
ATOM      4  H45 A02 d          16.666   5.388   9.615  0.00  0.00     0.162 HD
ENDROOT
BRANCH   1   5
ATOM      5  CCI A02 d          15.545   3.750   8.030  0.00  0.00     0.089 C 
ATOM      6  H23 A02 d          15.142   2.904   8.606  0.00  0.00     0.087 H 
BRANCH   5   7
ATOM      7  NBS A02 d          17.021   3.736   8.201  0.00  0.00    -0.348 N 
ATOM      8  CBZ A02 d          17.663   2.677   8.720  0.00  0.00     0.218 C 
ATOM      9  OAI A02 d          17.100   1.659   9.140  0.00  0.00    -0.274 OA
ATOM     10  H22 A02 d          17.551   4.536   7.921  0.00  0.00     0.163 HD
BRANCH   8  11
ATOM     11  CBG A02 d          19.195   2.825   8.819  0.00  0.00     0.009 C 
ATOM     12  H11 A02 d          19.651   1.825   8.816  0.00  0.00     0.047 H 
ATOM     13  H12 A02 d          19.443   3.338   9.760  0.00  0.00     0.047 H 
BRANCH  11  14
ATOM     14  CAX A02 d          19.770   3.639   7.642  0.00  0.00    -0.057 C 
ATOM     15  H13 A02 d          19.001   3.731   6.860  0.00  0.00     0.033 H 
ATOM     16  H14 A02 d          20.645   3.110   7.235  0.00  0.00     0.033 H 
BRANCH  14  17
ATOM     17  CAU A02 d          20.197   5.040   8.092  0.00  0.00    -0.063 C 
ATOM     18  H15 A02 d          21.244   5.201   7.794  0.00  0.00     0.033 H 
ATOM     19  H16 A02 d          20.115   5.098   9.187  0.00  0.00     0.033 H 
BRANCH  17  20
ATOM     20  CAW A02 d          19.339   6.150   7.477  0.00  0.00    -0.050 C 
ATOM     21  H17 A02 d          18.435   6.306   8.085  0.00  0.00     0.035 H 
ATOM     22  H18 A02 d          19.048   5.876   6.452  0.00  0.00     0.035 H 
BRANCH  20  23
ATOM     23  CBD A02 d          20.182   7.427   7.457  0.00  0.00    -0.005 C 
ATOM     24  H19 A02 d          21.206   7.167   7.149  0.00  0.00     0.064 H 
ATOM     25  H20 A02 d          20.201   7.852   8.471  0.00  0.00     0.064 H 
BRANCH  23  26
ATOM     26  NBR A02 d          19.653   8.442   6.529  0.00  0.00    -0.359 N 
ATOM     27  CCC A02 d          20.341   8.966   5.514  0.00  0.00     0.249 C 
ATOM     28  OAL A02 d          21.529   8.715   5.268  0.00  0.00    -0.271 OA
ATOM     29  H21 A02 d          18.715   8.759   6.670  0.00  0.00     0.162 HD
BRANCH  27  30
ATOM     30  CCM A02 d          19.576   9.946   4.604  0.00  0.00     0.144 C 
ATOM     31  OBV A02 d          19.799   9.646   3.186  0.00  0.00    -0.346 OA
ATOM     32  CCN A02 d          18.616   8.987   2.647  0.00  0.00     0.140 C 
ATOM     33  CCL A02 d          17.754   8.640   3.877  0.00  0.00     0.105 C 
ATOM     34  H10 A02 d          18.065   9.686   2.001  0.00  0.00     0.123 H 
ATOM     35  CCK A02 d          18.073   9.779   4.828  0.00  0.00     0.098 C 
ATOM     36  H8  A02 d          18.023   7.661   4.302  0.00  0.00     0.093 H 
ATOM     37  H7  A02 d          17.824   9.538   5.872  0.00  0.00     0.091 H 
ATOM     38  H9  A02 d          19.889  10.977   4.829  0.00  0.00     0.102 H 
BRANCH  32  39
ATOM     39  N9  A02 d          18.984   7.763   1.814  0.00  0.00    -0.294 N 
ATOM     40  C4  A02 d          19.374   6.584   2.288  0.00  0.00     0.167 A 
ATOM     41  N3  A02 d          19.569   6.114   3.530  0.00  0.00    -0.222 NA
ATOM     42  C5  A02 d          19.618   5.761   1.196  0.00  0.00     0.149 A 
ATOM     43  C2  A02 d          19.975   4.865   3.720  0.00  0.00     0.091 A 
ATOM     44  N1  A02 d          20.210   4.046   2.686  0.00  0.00    -0.222 NA
ATOM     45  H1  A02 d          20.121   4.501   4.731  0.00  0.00     0.146 H 
ATOM     46  C6  A02 d          20.047   4.464   1.420  0.00  0.00     0.155 A 
ATOM     47  N7  A02 d          19.364   6.452   0.086  0.00  0.00    -0.236 NA
ATOM     48  C8  A02 d          18.966   7.668   0.475  0.00  0.00     0.071 A 
ATOM     49  H4  A02 d          18.670   8.470  -0.200  0.00  0.00     0.144 H 
BRANCH  46  50
ATOM     50  N6  A02 d          20.291   3.656   0.394  0.00  0.00    -0.382 N 
ATOM     51  H2  A02 d          20.302   2.635   0.533  0.00  0.00     0.157 HD
ATOM     52  H3  A02 d          20.471   4.050  -0.541  0.00  0.00     0.157 HD
ENDBRANCH  46  50
ENDBRANCH  32  39
BRANCH  33  53
ATOM     53  OAO A02 d          16.375   8.670   3.540  0.00  0.00    -0.388 OA
ATOM     54  H6  A02 d          16.235   9.299   2.841  0.00  0.00     0.210 HD
ENDBRANCH  33  53
BRANCH  35  55
ATOM     55  OAN A02 d          17.394  10.976   4.399  0.00  0.00    -0.390 OA
ATOM     56  H5  A02 d          16.600  10.738   3.934  0.00  0.00     0.210 HD
ENDBRANCH  35  55
ENDBRANCH  27  30
ENDBRANCH  23  26
ENDBRANCH  20  23
ENDBRANCH  17  20
ENDBRANCH  14  17
ENDBRANCH  11  14
ENDBRANCH   8  11
ENDBRANCH   5   7
BRANCH   5  57
ATOM     57  CBJ A02 d          15.136   3.524   6.557  0.00  0.00    -0.038 C 
ATOM     58  H24 A02 d          14.439   4.325   6.271  0.00  0.00     0.036 H 
ATOM     59  H25 A02 d          14.624   2.552   6.493  0.00  0.00     0.036 H 
BRANCH  57  60
ATOM     60  CAZ A02 d          16.291   3.518   5.550  0.00  0.00    -0.061 C 
ATOM     61  H26 A02 d          16.033   2.862   4.706  0.00  0.00     0.033 H 
ATOM     62  H27 A02 d          17.200   3.142   6.043  0.00  0.00     0.033 H 
BRANCH  60  63
ATOM     63  CAS A02 d          16.549   4.946   5.027  0.00  0.00    -0.043 C 
ATOM     64  H28 A02 d          17.624   5.064   4.820  0.00  0.00     0.035 H 
ATOM     65  H29 A02 d          16.242   5.671   5.795  0.00  0.00     0.035 H 
BRANCH  63  66
ATOM     66  CAR A02 d          15.758   5.217   3.738  0.00  0.00     0.080 C 
ATOM     67  H30 A02 d          15.546   6.293   3.660  0.00  0.00     0.075 H 
ATOM     68  H31 A02 d          14.811   4.657   3.768  0.00  0.00     0.075 H 
BRANCH  66  69
ATOM     69  NAC A02 d          16.542   4.787   2.566  0.00  0.00    -0.079 N 
ATOM     70  H32 A02 d          16.146   5.190   1.731  0.00  0.00     0.274 HD
ATOM     71  H33 A02 d          16.519   3.781   2.497  0.00  0.00     0.274 HD
ATOM     72  H34 A02 d          17.496   5.095   2.669  0.00  0.00     0.274 HD
ENDBRANCH  66  69
ENDBRANCH  63  66
ENDBRANCH  60  63
ENDBRANCH  57  60
ENDBRANCH   5  57
ENDBRANCH   1   5
BRANCH   3  73
ATOM     73  CBC A02 d          15.322   6.997  10.089  0.00  0.00    -0.005 C 
ATOM     74  H43 A02 d          16.174   7.423  10.638  0.00  0.00     0.064 H 
ATOM     75  H44 A02 d          14.992   7.707   9.316  0.00  0.00     0.064 H 
BRANCH  73  76
ATOM     76  CAV A02 d          14.168   6.743  11.066  0.00  0.00    -0.050 C 
ATOM     77  H41 A02 d          13.440   6.064  10.598  0.00  0.00     0.035 H 
ATOM     78  H42 A02 d          14.565   6.280  11.981  0.00  0.00     0.035 H 
BRANCH  76  79
ATOM     79  CAT A02 d          13.470   8.059  11.428  0.00  0.00    -0.063 C 
ATOM     80  H39 A02 d          13.594   8.243  12.504  0.00  0.00     0.033 H 
ATOM     81  H40 A02 d          13.938   8.878  10.860  0.00  0.00     0.033 H 
BRANCH  79  82
ATOM     82  CAY A02 d          11.974   8.021  11.100  0.00  0.00    -0.057 C 
ATOM     83  H37 A02 d          11.489   7.266  11.736  0.00  0.00     0.033 H 
ATOM     84  H38 A02 d          11.539   9.010  11.306  0.00  0.00     0.033 H 
BRANCH  82  85
ATOM     85  CBH A02 d          11.724   7.664   9.625  0.00  0.00     0.009 C 
ATOM     86  H35 A02 d          12.432   6.879   9.323  0.00  0.00     0.047 H 
ATOM     87  H36 A02 d          10.694   7.290   9.519  0.00  0.00     0.047 H 
BRANCH  85  88
ATOM     88  CCA A02 d          11.909   8.883   8.706  0.00  0.00     0.218 C 
ATOM     89  OAJ A02 d          10.934   9.448   8.200  0.00  0.00    -0.274 OA
ATOM     90  NBT A02 d          13.179   9.263   8.521  0.00  0.00    -0.348 N 
ATOM     91  H46 A02 d          13.902   8.748   8.982  0.00  0.00     0.163 HD
BRANCH  90  92
ATOM     92  CCJ A02 d          13.566  10.412   7.666  0.00  0.00     0.089 C 
ATOM     93  H47 A02 d          14.527  10.799   8.034  0.00  0.00     0.087 H 
BRANCH  92  94
ATOM     94  CBK A02 d          12.526  11.560   7.757  0.00  0.00    -0.036 C 
ATOM     95  H48 A02 d          12.877  12.283   8.508  0.00  0.00     0.036 H 
ATOM     96  H49 A02 d          11.567  11.131   8.081  0.00  0.00     0.036 H 
BRANCH  94  97
ATOM     97  CBB A02 d          12.292  12.314   6.436  0.00  0.00    -0.048 C 
ATOM     98  H50 A02 d          12.290  11.588   5.610  0.00  0.00     0.035 H 
ATOM     99  H51 A02 d          13.111  13.033   6.290  0.00  0.00     0.035 H 
BRANCH  97 100
ATOM    100  CBF A02 d          10.957  13.076   6.428  0.00  0.00     0.009 C 
ATOM    101  H52 A02 d          10.537  13.079   5.411  0.00  0.00     0.064 H 
ATOM    102  H53 A02 d          11.118  14.111   6.761  0.00  0.00     0.064 H 
BRANCH 100 103
ATOM    103  NBP A02 d          10.029  12.393   7.349  0.00  0.00    -0.227 N 
ATOM    104  CBX A02 d           8.951  11.703   6.954  0.00  0.00     0.665 C 
ATOM    105  NAB A02 d           8.627  11.560   5.670  0.00  0.00    -0.235 N 
ATOM    106  NAE A02 d           8.186  11.135   7.882  0.00  0.00    -0.235 N 
ATOM    107  H55 A02 d           7.788  11.021   5.407  0.00  0.00     0.174 HD
ATOM    108  H56 A02 d           9.214  11.987   4.940  0.00  0.00     0.174 HD
ATOM    109  H57 A02 d           8.424  11.238   8.879  0.00  0.00     0.174 HD
ATOM    110  H58 A02 d           7.356  10.593   7.605  0.00  0.00     0.174 HD
ATOM    111  H54 A02 d          10.222  12.450   8.359  0.00  0.00     0.177 HD
ENDBRANCH 100 103
ENDBRANCH  97 100
ENDBRANCH  94  97
ENDBRANCH  92  94
BRANCH  92 112
ATOM    112  CCD A02 d          13.766   9.953   6.201  0.00  0.00     0.241 C 
ATOM    113  OAM A02 d          14.720  10.356   5.536  0.00  0.00    -0.271 OA
ATOM    114  N   A02 d          12.839   9.114   5.733  0.00  0.00    -0.346 N 
ATOM    115  H59 A02 d          12.096   8.840   6.344  0.00  0.00     0.163 HD
BRANCH 114 116
ATOM    116  CA  A02 d          12.855   8.568   4.358  0.00  0.00     0.089 C 
ATOM    117  H60 A02 d          13.883   8.622   3.972  0.00  0.00     0.087 H 
BRANCH 116 118
ATOM    118  CB  A02 d          11.943   9.410   3.457  0.00  0.00    -0.036 C 
ATOM    119  H61 A02 d          11.530  10.243   4.045  0.00  0.00     0.036 H 
ATOM    120  H62 A02 d          11.120   8.778   3.089  0.00  0.00     0.036 H 
BRANCH 118 121
ATOM    121  CG  A02 d          12.708   9.978   2.260  0.00  0.00    -0.048 C 
ATOM    122  H63 A02 d          12.193   9.684   1.333  0.00  0.00     0.035 H 
ATOM    123  H64 A02 d          13.728   9.566   2.258  0.00  0.00     0.035 H 
BRANCH 121 124
ATOM    124  CD  A02 d          12.786  11.499   2.323  0.00  0.00     0.009 C 
ATOM    125  H65 A02 d          11.860  11.905   2.755  0.00  0.00     0.064 H 
ATOM    126  H66 A02 d          12.932  11.911   1.313  0.00  0.00     0.064 H 
BRANCH 124 127
ATOM    127  NE  A02 d          13.924  11.844   3.171  0.00  0.00    -0.227 N 
ATOM    128  CZ  A02 d          14.457  13.060   3.281  0.00  0.00     0.665 C 
ATOM    129  NH1 A02 d          13.973  14.126   2.644  0.00  0.00    -0.235 N 
ATOM    130  NH2 A02 d          15.504  13.185   4.086  0.00  0.00    -0.235 N 
ATOM    131  H68 A02 d          14.422  15.045   2.763  0.00  0.00     0.174 HD
ATOM    132  H69 A02 d          13.150  14.030   2.032  0.00  0.00     0.174 HD
ATOM    133  H70 A02 d          15.876  12.360   4.578  0.00  0.00     0.174 HD
ATOM    134  H71 A02 d          15.943  14.107   4.220  0.00  0.00     0.174 HD
ATOM    135  H67 A02 d          14.347  11.088   3.728  0.00  0.00     0.177 HD
ENDBRANCH 124 127
ENDBRANCH 121 124
ENDBRANCH 118 121
ENDBRANCH 116 118
BRANCH 116 136
ATOM    136  C   A02 d          12.400   7.090   4.330  0.00  0.00     0.238 C 
ATOM    137  O   A02 d          12.668   6.311   5.247  0.00  0.00    -0.271 OA
ATOM    138  NAF A02 d          11.689   6.746   3.258  0.00  0.00    -0.368 N 
ATOM    139  H72 A02 d          11.355   5.808   3.160  0.00  0.00     0.159 HD
ATOM    140  H73 A02 d          11.489   7.425   2.552  0.00  0.00     0.159 HD
ENDBRANCH 116 136
ENDBRANCH 114 116
ENDBRANCH  92 112
ENDBRANCH  90  92
ENDBRANCH  85  88
ENDBRANCH  82  85
ENDBRANCH  79  82
ENDBRANCH  76  79
ENDBRANCH  73  76
ENDBRANCH   3  73
TORSDOF 36
ENDMDL
MODEL 3
REMARK VINA RESULT:      -4.1      2.834      4.443
REMARK WARNING: 32 MAX_TORS EXCEEDED!!!
REMARK  36 active torsions:
REMARK  status: ('A' for Active; 'I' for Inactive)
REMARK    1  A    between atoms: C6_6  and  N6_7 
REMARK    2  A    between atoms: CCN_19  and  N9_10 
REMARK    3  A    between atoms: CCK_16  and  OAN_12 
REMARK    4  A    between atoms: CCL_17  and  OAO_13 
REMARK    5  A    between atoms: CCC_15  and  CCM_18 
REMARK       I    between atoms: NBR_27  and  CCC_15 
REMARK    6  A    between atoms: CBZ_20  and  CBG_22 
REMARK       I    between atoms: NBS_28  and  CBZ_20 
REMARK    7  A    between atoms: CBG_22  and  CAX_23 
REMARK    8  A    between atoms: CAX_23  and  CAU_24 
REMARK    9  A    between atoms: CAU_24  and  CAW_25 
REMARK   10  A    between atoms: CAW_25  and  CBD_26 
REMARK   11  A    between atoms: CBD_26  and  NBR_27 
REMARK   12  A    between atoms: CCI_29  and  NBS_28 
REMARK   13  A    between atoms: CCB_30  and  CCI_29 
REMARK   14  A    between atoms: CCI_29  and  CBJ_32 
REMARK       I    between atoms: NBQ_44  and  CCB_30 
REMARK   15  A    between atoms: CBJ_32  and  CAZ_33 
REMARK   16  A    between atoms: CAZ_33  and  CAS_34 
REMARK   17  A    between atoms: CAS_34  and  CAR_35 
REMARK   18  A    between atoms: CAR_35  and  NAC_36 
REMARK   19  A    between atoms: CBH_39  and  CCA_37 
REMARK       I    between atoms: CCA_37  and  NBT_45 
REMARK   20  A    between atoms: CAY_40  and  CBH_39 
REMARK   21  A    between atoms: CAT_41  and  CAY_40 
REMARK   22  A    between atoms: CAV_42  and  CAT_41 
REMARK   23  A    between atoms: CBC_43  and  CAV_42 
REMARK   24  A    between atoms: CBC_43  and  NBQ_44 
REMARK   25  A    between atoms: NBT_45  and  CCJ_46 
REMARK   26  A    between atoms: CCJ_46  and  CBK_47 
REMARK   27  A    between atoms: CCJ_46  and  CCD_54 
REMARK   28  A    between atoms: CBK_47  and  CBB_48 
REMARK   29  A    between atoms: CBB_48  and  CBF_49 
REMARK   30  A    between atoms: CBF_49  and  NBP_50 
REMARK       I    between atoms: NBP_50  and  CBX_51 
REMARK       I    between atoms: CBX_51  and  NAB_52 
REMARK       I    between atoms: CBX_51  and  NAE_53 
REMARK       I    between atoms: CCD_54  and  N_56 
REMARK   31  A    between atoms: N_56  and  CA_57 
REMARK   32  A    between atoms: CA_57  and  CB_58 
REMARK   33  A    between atoms: CA_57  and  C_65 
REMARK   34  A    between atoms: CB_58  and  CG_59 
REMARK   35  A    between atoms: CG_59  and  CD_60 
REMARK   36  A    between atoms: CD_60  and  NE_61 
REMARK       I    between atoms: NE_61  and  CZ_62 
REMARK       I    between atoms: CZ_62  and  NH1_63 
REMARK       I    between atoms: C_65  and  NAF_67 
ROOT
ATOM      1  CCB A02 d          18.500   5.223   4.826  0.00  0.00     0.240 C 
ATOM      2  OAK A02 d          18.796   4.117   4.390  0.00  0.00    -0.271 OA
ATOM      3  NBQ A02 d          17.745   6.100   4.167  0.00  0.00    -0.359 N 
ATOM      4  H45 A02 d          17.558   6.988   4.589  0.00  0.00     0.162 HD
ENDROOT
BRANCH   1   5
ATOM      5  CCI A02 d          19.035   5.695   6.200  0.00  0.00     0.089 C 
ATOM      6  H23 A02 d          19.754   4.936   6.543  0.00  0.00     0.087 H 
BRANCH   5   7
ATOM      7  NBS A02 d          17.937   5.744   7.200  0.00  0.00    -0.348 N 
ATOM      8  CBZ A02 d          17.093   6.786   7.273  0.00  0.00     0.218 C 
ATOM      9  OAI A02 d          17.175   7.799   6.568  0.00  0.00    -0.274 OA
ATOM     10  H22 A02 d          17.823   4.981   7.836  0.00  0.00     0.163 HD
BRANCH   8  11
ATOM     11  CBG A02 d          16.007   6.672   8.363  0.00  0.00     0.009 C 
ATOM     12  H11 A02 d          16.107   5.698   8.864  0.00  0.00     0.047 H 
ATOM     13  H12 A02 d          15.017   6.739   7.887  0.00  0.00     0.047 H 
BRANCH  11  14
ATOM     14  CAX A02 d          16.131   7.790   9.417  0.00  0.00    -0.057 C 
ATOM     15  H13 A02 d          17.165   8.167   9.420  0.00  0.00     0.033 H 
ATOM     16  H14 A02 d          15.887   7.378  10.408  0.00  0.00     0.033 H 
BRANCH  14  17
ATOM     17  CAU A02 d          15.177   8.951   9.110  0.00  0.00    -0.063 C 
ATOM     18  H15 A02 d          15.384   9.315   8.093  0.00  0.00     0.033 H 
ATOM     19  H16 A02 d          15.363   9.758   9.834  0.00  0.00     0.033 H 
BRANCH  17  20
ATOM     20  CAW A02 d          13.702   8.548   9.194  0.00  0.00    -0.050 C 
ATOM     21  H17 A02 d          13.572   7.519   8.826  0.00  0.00     0.035 H 
ATOM     22  H18 A02 d          13.090   9.234   8.590  0.00  0.00     0.035 H 
BRANCH  20  23
ATOM     23  CBD A02 d          13.285   8.633  10.664  0.00  0.00    -0.005 C 
ATOM     24  H19 A02 d          12.374   9.245  10.736  0.00  0.00     0.064 H 
ATOM     25  H20 A02 d          14.095   9.112  11.233  0.00  0.00     0.064 H 
BRANCH  23  26
ATOM     26  NBR A02 d          13.013   7.311  11.255  0.00  0.00    -0.359 N 
ATOM     27  CCC A02 d          11.910   6.596  11.028  0.00  0.00     0.249 C 
ATOM     28  OAL A02 d          10.949   6.986  10.348  0.00  0.00    -0.271 OA
ATOM     29  H21 A02 d          13.702   6.923  11.866  0.00  0.00     0.162 HD
BRANCH  27  30
ATOM     30  CCM A02 d          11.859   5.196  11.668  0.00  0.00     0.144 C 
ATOM     31  OBV A02 d          11.894   4.140  10.651  0.00  0.00    -0.346 OA
ATOM     32  CCN A02 d          13.225   3.546  10.628  0.00  0.00     0.140 C 
ATOM     33  CCL A02 d          14.097   4.480  11.491  0.00  0.00     0.105 C 
ATOM     34  H10 A02 d          13.193   2.548  11.089  0.00  0.00     0.123 H 
ATOM     35  CCK A02 d          13.107   4.983  12.525  0.00  0.00     0.098 C 
ATOM     36  H8  A02 d          14.527   5.301  10.898  0.00  0.00     0.093 H 
ATOM     37  H7  A02 d          13.445   5.907  13.017  0.00  0.00     0.091 H 
ATOM     38  H9  A02 d          10.948   5.105  12.280  0.00  0.00     0.102 H 
BRANCH  32  39
ATOM     39  N9  A02 d          13.748   3.392   9.204  0.00  0.00    -0.294 N 
ATOM     40  C4  A02 d          14.989   3.065   8.857  0.00  0.00     0.167 A 
ATOM     41  N3  A02 d          16.097   2.794   9.565  0.00  0.00    -0.222 NA
ATOM     42  C5  A02 d          15.039   3.046   7.470  0.00  0.00     0.149 A 
ATOM     43  C2  A02 d          17.232   2.492   8.947  0.00  0.00     0.091 A 
ATOM     44  N1  A02 d          17.307   2.457   7.610  0.00  0.00    -0.222 NA
ATOM     45  H1  A02 d          18.115   2.270   9.536  0.00  0.00     0.146 H 
ATOM     46  C6  A02 d          16.236   2.733   6.848  0.00  0.00     0.155 A 
ATOM     47  N7  A02 d          13.830   3.353   7.003  0.00  0.00    -0.236 NA
ATOM     48  C8  A02 d          13.047   3.551   8.070  0.00  0.00     0.071 A 
ATOM     49  H4  A02 d          11.989   3.805   8.025  0.00  0.00     0.144 H 
BRANCH  46  50
ATOM     50  N6  A02 d          16.313   2.711   5.522  0.00  0.00    -0.382 N 
ATOM     51  H2  A02 d          17.231   2.641   5.061  0.00  0.00     0.157 HD
ATOM     52  H3  A02 d          15.455   2.764   4.955  0.00  0.00     0.157 HD
ENDBRANCH  46  50
ENDBRANCH  32  39
BRANCH  33  53
ATOM     53  OAO A02 d          15.126   3.742  12.134  0.00  0.00    -0.388 OA
ATOM     54  H6  A02 d          15.940   4.229  12.086  0.00  0.00     0.210 HD
ENDBRANCH  33  53
BRANCH  35  55
ATOM     55  OAN A02 d          12.846   3.949  13.494  0.00  0.00    -0.390 OA
ATOM     56  H5  A02 d          13.459   4.030  14.215  0.00  0.00     0.210 HD
ENDBRANCH  35  55
ENDBRANCH  27  30
ENDBRANCH  23  26
ENDBRANCH  20  23
ENDBRANCH  17  20
ENDBRANCH  14  17
ENDBRANCH  11  14
ENDBRANCH   8  11
ENDBRANCH   5   7
BRANCH   5  57
ATOM     57  CBJ A02 d          19.801   7.035   6.125  0.00  0.00    -0.038 C 
ATOM     58  H24 A02 d          20.144   7.287   7.139  0.00  0.00     0.036 H 
ATOM     59  H25 A02 d          19.102   7.807   5.771  0.00  0.00     0.036 H 
BRANCH  57  60
ATOM     60  CAZ A02 d          21.021   7.040   5.197  0.00  0.00    -0.061 C 
ATOM     61  H26 A02 d          20.815   6.404   4.323  0.00  0.00     0.033 H 
ATOM     62  H27 A02 d          21.892   6.645   5.741  0.00  0.00     0.033 H 
BRANCH  60  63
ATOM     63  CAS A02 d          21.324   8.477   4.722  0.00  0.00    -0.043 C 
ATOM     64  H28 A02 d          20.397   8.932   4.342  0.00  0.00     0.035 H 
ATOM     65  H29 A02 d          22.072   8.438   3.916  0.00  0.00     0.035 H 
BRANCH  63  66
ATOM     66  CAR A02 d          21.870   9.337   5.872  0.00  0.00     0.080 C 
ATOM     67  H30 A02 d          22.968   9.371   5.811  0.00  0.00     0.075 H 
ATOM     68  H31 A02 d          21.569   8.894   6.833  0.00  0.00     0.075 H 
BRANCH  66  69
ATOM     69  NAC A02 d          21.332  10.706   5.776  0.00  0.00    -0.079 N 
ATOM     70  H32 A02 d          21.228  10.958   4.805  0.00  0.00     0.274 HD
ATOM     71  H33 A02 d          21.968  11.349   6.224  0.00  0.00     0.274 HD
ATOM     72  H34 A02 d          20.435  10.748   6.234  0.00  0.00     0.274 HD
ENDBRANCH  66  69
ENDBRANCH  63  66
ENDBRANCH  60  63
ENDBRANCH  57  60
ENDBRANCH   5  57
ENDBRANCH   1   5
BRANCH   3  73
ATOM     73  CBC A02 d          17.170   5.811   2.833  0.00  0.00    -0.005 C 
ATOM     74  H43 A02 d          17.087   6.749   2.265  0.00  0.00     0.064 H 
ATOM     75  H44 A02 d          17.832   5.115   2.297  0.00  0.00     0.064 H 
BRANCH  73  76
ATOM     76  CAV A02 d          15.781   5.179   2.971  0.00  0.00    -0.050 C 
ATOM     77  H41 A02 d          15.732   4.273   2.349  0.00  0.00     0.035 H 
ATOM     78  H42 A02 d          15.608   4.911   4.024  0.00  0.00     0.035 H 
BRANCH  76  79
ATOM     79  CAT A02 d          14.696   6.163   2.516  0.00  0.00    -0.063 C 
ATOM     80  H39 A02 d          15.167   7.127   2.278  0.00  0.00     0.033 H 
ATOM     81  H40 A02 d          14.205   5.761   1.617  0.00  0.00     0.033 H 
BRANCH  79  82
ATOM     82  CAY A02 d          13.636   6.384   3.601  0.00  0.00    -0.057 C 
ATOM     83  H37 A02 d          12.840   7.027   3.195  0.00  0.00     0.033 H 
ATOM     84  H38 A02 d          13.211   5.411   3.887  0.00  0.00     0.033 H 
BRANCH  82  85
ATOM     85  CBH A02 d          14.230   7.056   4.849  0.00  0.00     0.009 C 
ATOM     86  H35 A02 d          13.623   6.783   5.724  0.00  0.00     0.047 H 
ATOM     87  H36 A02 d          15.261   6.697   4.991  0.00  0.00     0.047 H 
BRANCH  85  88
ATOM     88  CCA A02 d          14.250   8.588   4.716  0.00  0.00     0.218 C 
ATOM     89  OAJ A02 d          14.830   9.134   3.772  0.00  0.00    -0.274 OA
ATOM     90  NBT A02 d          13.594   9.247   5.679  0.00  0.00    -0.348 N 
ATOM     91  H46 A02 d          13.146   8.716   6.399  0.00  0.00     0.163 HD
BRANCH  90  92
ATOM     92  CCJ A02 d          13.502  10.727   5.732  0.00  0.00     0.089 C 
ATOM     93  H47 A02 d          13.733  11.116   4.730  0.00  0.00     0.087 H 
BRANCH  92  94
ATOM     94  CBK A02 d          14.536  11.323   6.723  0.00  0.00    -0.036 C 
ATOM     95  H48 A02 d          14.628  10.638   7.578  0.00  0.00     0.036 H 
ATOM     96  H49 A02 d          14.158  12.295   7.071  0.00  0.00     0.036 H 
BRANCH  94  97
ATOM     97  CBB A02 d          15.938  11.538   6.127  0.00  0.00    -0.048 C 
ATOM     98  H50 A02 d          16.341  10.565   5.810  0.00  0.00     0.035 H 
ATOM     99  H51 A02 d          16.589  11.970   6.902  0.00  0.00     0.035 H 
BRANCH  97 100
ATOM    100  CBF A02 d          15.918  12.484   4.915  0.00  0.00     0.009 C 
ATOM    101  H52 A02 d          15.283  12.059   4.123  0.00  0.00     0.064 H 
ATOM    102  H53 A02 d          16.940  12.619   4.533  0.00  0.00     0.064 H 
BRANCH 100 103
ATOM    103  NBP A02 d          15.371  13.783   5.350  0.00  0.00    -0.227 N 
ATOM    104  CBX A02 d          15.642  14.950   4.751  0.00  0.00     0.665 C 
ATOM    105  NAB A02 d          16.432  15.037   3.682  0.00  0.00    -0.235 N 
ATOM    106  NAE A02 d          15.091  16.057   5.241  0.00  0.00    -0.235 N 
ATOM    107  H55 A02 d          16.616  15.955   3.251  0.00  0.00     0.174 HD
ATOM    108  H56 A02 d          16.859  14.187   3.287  0.00  0.00     0.174 HD
ATOM    109  H57 A02 d          14.478  16.005   6.068  0.00  0.00     0.174 HD
ATOM    110  H58 A02 d          15.277  16.966   4.795  0.00  0.00     0.174 HD
ATOM    111  H54 A02 d          14.741  13.793   6.165  0.00  0.00     0.177 HD
ENDBRANCH 100 103
ENDBRANCH  97 100
ENDBRANCH  94  97
ENDBRANCH  92  94
BRANCH  92 112
ATOM    112  CCD A02 d          12.062  11.167   6.094  0.00  0.00     0.241 C 
ATOM    113  OAM A02 d          11.577  10.901   7.194  0.00  0.00    -0.271 OA
ATOM    114  N   A02 d          11.411  11.835   5.139  0.00  0.00    -0.346 N 
ATOM    115  H59 A02 d          11.883  12.006   4.274  0.00  0.00     0.163 HD
BRANCH 114 116
ATOM    116  CA  A02 d          10.027  12.335   5.294  0.00  0.00     0.089 C 
ATOM    117  H60 A02 d           9.500  11.689   6.011  0.00  0.00     0.087 H 
BRANCH 116 118
ATOM    118  CB  A02 d           9.301  12.273   3.944  0.00  0.00    -0.036 C 
ATOM    119  H61 A02 d           9.021  13.293   3.641  0.00  0.00     0.036 H 
ATOM    120  H62 A02 d           8.394  11.661   4.054  0.00  0.00     0.036 H 
BRANCH 118 121
ATOM    121  CG  A02 d          10.188  11.658   2.860  0.00  0.00    -0.048 C 
ATOM    122  H63 A02 d           9.597  10.930   2.284  0.00  0.00     0.035 H 
ATOM    123  H64 A02 d          11.036  11.146   3.338  0.00  0.00     0.035 H 
BRANCH 121 124
ATOM    124  CD  A02 d          10.723  12.725   1.911  0.00  0.00     0.009 C 
ATOM    125  H65 A02 d          10.580  13.724   2.349  0.00  0.00     0.064 H 
ATOM    126  H66 A02 d          10.196  12.669   0.946  0.00  0.00     0.064 H 
BRANCH 124 127
ATOM    127  NE  A02 d          12.146  12.465   1.717  0.00  0.00    -0.227 N 
ATOM    128  CZ  A02 d          13.123  13.345   1.931  0.00  0.00     0.665 C 
ATOM    129  NH1 A02 d          12.903  14.575   2.395  0.00  0.00    -0.235 N 
ATOM    130  NH2 A02 d          14.361  12.939   1.682  0.00  0.00    -0.235 N 
ATOM    131  H68 A02 d          13.694  15.218   2.544  0.00  0.00     0.174 HD
ATOM    132  H69 A02 d          11.942  14.882   2.604  0.00  0.00     0.174 HD
ATOM    133  H70 A02 d          14.529  11.989   1.324  0.00  0.00     0.174 HD
ATOM    134  H71 A02 d          15.154  13.576   1.847  0.00  0.00     0.174 HD
ATOM    135  H67 A02 d          12.417  11.527   1.388  0.00  0.00     0.177 HD
ENDBRANCH 124 127
ENDBRANCH 121 124
ENDBRANCH 118 121
ENDBRANCH 116 118
BRANCH 116 136
ATOM    136  C   A02 d          10.006  13.783   5.836  0.00  0.00     0.238 C 
ATOM    137  O   A02 d           9.438  14.074   6.891  0.00  0.00    -0.271 OA
ATOM    138  NAF A02 d          10.662  14.668   5.088  0.00  0.00    -0.368 N 
ATOM    139  H72 A02 d          10.698  15.628   5.365  0.00  0.00     0.159 HD
ATOM    140  H73 A02 d          11.118  14.372   4.248  0.00  0.00     0.159 HD
ENDBRANCH 116 136
ENDBRANCH 114 116
ENDBRANCH  92 112
ENDBRANCH  90  92
ENDBRANCH  85  88
ENDBRANCH  82  85
ENDBRANCH  79  82
ENDBRANCH  76  79
ENDBRANCH  73  76
ENDBRANCH   3  73
TORSDOF 36
ENDMDL
MODEL 4
REMARK VINA RESULT:      -4.1      2.424      4.078
REMARK WARNING: 32 MAX_TORS EXCEEDED!!!
REMARK  36 active torsions:
REMARK  status: ('A' for Active; 'I' for Inactive)
REMARK    1  A    between atoms: C6_6  and  N6_7 
REMARK    2  A    between atoms: CCN_19  and  N9_10 
REMARK    3  A    between atoms: CCK_16  and  OAN_12 
REMARK    4  A    between atoms: CCL_17  and  OAO_13 
REMARK    5  A    between atoms: CCC_15  and  CCM_18 
REMARK       I    between atoms: NBR_27  and  CCC_15 
REMARK    6  A    between atoms: CBZ_20  and  CBG_22 
REMARK       I    between atoms: NBS_28  and  CBZ_20 
REMARK    7  A    between atoms: CBG_22  and  CAX_23 
REMARK    8  A    between atoms: CAX_23  and  CAU_24 
REMARK    9  A    between atoms: CAU_24  and  CAW_25 
REMARK   10  A    between atoms: CAW_25  and  CBD_26 
REMARK   11  A    between atoms: CBD_26  and  NBR_27 
REMARK   12  A    between atoms: CCI_29  and  NBS_28 
REMARK   13  A    between atoms: CCB_30  and  CCI_29 
REMARK   14  A    between atoms: CCI_29  and  CBJ_32 
REMARK       I    between atoms: NBQ_44  and  CCB_30 
REMARK   15  A    between atoms: CBJ_32  and  CAZ_33 
REMARK   16  A    between atoms: CAZ_33  and  CAS_34 
REMARK   17  A    between atoms: CAS_34  and  CAR_35 
REMARK   18  A    between atoms: CAR_35  and  NAC_36 
REMARK   19  A    between atoms: CBH_39  and  CCA_37 
REMARK       I    between atoms: CCA_37  and  NBT_45 
REMARK   20  A    between atoms: CAY_40  and  CBH_39 
REMARK   21  A    between atoms: CAT_41  and  CAY_40 
REMARK   22  A    between atoms: CAV_42  and  CAT_41 
REMARK   23  A    between atoms: CBC_43  and  CAV_42 
REMARK   24  A    between atoms: CBC_43  and  NBQ_44 
REMARK   25  A    between atoms: NBT_45  and  CCJ_46 
REMARK   26  A    between atoms: CCJ_46  and  CBK_47 
REMARK   27  A    between atoms: CCJ_46  and  CCD_54 
REMARK   28  A    between atoms: CBK_47  and  CBB_48 
REMARK   29  A    between atoms: CBB_48  and  CBF_49 
REMARK   30  A    between atoms: CBF_49  and  NBP_50 
REMARK       I    between atoms: NBP_50  and  CBX_51 
REMARK       I    between atoms: CBX_51  and  NAB_52 
REMARK       I    between atoms: CBX_51  and  NAE_53 
REMARK       I    between atoms: CCD_54  and  N_56 
REMARK   31  A    between atoms: N_56  and  CA_57 
REMARK   32  A    between atoms: CA_57  and  CB_58 
REMARK   33  A    between atoms: CA_57  and  C_65 
REMARK   34  A    between atoms: CB_58  and  CG_59 
REMARK   35  A    between atoms: CG_59  and  CD_60 
REMARK   36  A    between atoms: CD_60  and  NE_61 
REMARK       I    between atoms: NE_61  and  CZ_62 
REMARK       I    between atoms: CZ_62  and  NH1_63 
REMARK       I    between atoms: C_65  and  NAF_67 
ROOT
ATOM      1  CCB A02 d          18.554   5.228   4.645  0.00  0.00     0.240 C 
ATOM      2  OAK A02 d          18.851   4.145   4.156  0.00  0.00    -0.271 OA
ATOM      3  NBQ A02 d          17.763   6.118   4.047  0.00  0.00    -0.359 N 
ATOM      4  H45 A02 d          17.579   6.986   4.510  0.00  0.00     0.162 HD
ENDROOT
BRANCH   1   5
ATOM      5  CCI A02 d          19.129   5.655   6.018  0.00  0.00     0.089 C 
ATOM      6  H23 A02 d          19.848   4.880   6.319  0.00  0.00     0.087 H 
BRANCH   5   7
ATOM      7  NBS A02 d          18.058   5.686   7.047  0.00  0.00    -0.348 N 
ATOM      8  CBZ A02 d          17.278   6.765   7.224  0.00  0.00     0.218 C 
ATOM      9  OAI A02 d          17.403   7.824   6.599  0.00  0.00    -0.274 OA
ATOM     10  H22 A02 d          17.914   4.882   7.624  0.00  0.00     0.163 HD
BRANCH   8  11
ATOM     11  CBG A02 d          16.211   6.625   8.330  0.00  0.00     0.009 C 
ATOM     12  H11 A02 d          16.354   5.663   8.842  0.00  0.00     0.047 H 
ATOM     13  H12 A02 d          15.214   6.649   7.866  0.00  0.00     0.047 H 
BRANCH  11  14
ATOM     14  CAX A02 d          16.306   7.762   9.367  0.00  0.00    -0.057 C 
ATOM     15  H13 A02 d          17.349   8.108   9.424  0.00  0.00     0.033 H 
ATOM     16  H14 A02 d          15.993   7.378  10.349  0.00  0.00     0.033 H 
BRANCH  14  17
ATOM     17  CAU A02 d          15.408   8.942   8.982  0.00  0.00    -0.063 C 
ATOM     18  H15 A02 d          15.698   9.292   7.979  0.00  0.00     0.033 H 
ATOM     19  H16 A02 d          15.560   9.752   9.711  0.00  0.00     0.033 H 
BRANCH  17  20
ATOM     20  CAW A02 d          13.921   8.577   8.961  0.00  0.00    -0.050 C 
ATOM     21  H17 A02 d          13.793   7.543   8.606  0.00  0.00     0.035 H 
ATOM     22  H18 A02 d          13.375   9.263   8.296  0.00  0.00     0.035 H 
BRANCH  20  23
ATOM     23  CBD A02 d          13.395   8.707  10.392  0.00  0.00    -0.005 C 
ATOM     24  H19 A02 d          12.473   9.308  10.374  0.00  0.00     0.064 H 
ATOM     25  H20 A02 d          14.154   9.218  11.001  0.00  0.00     0.064 H 
BRANCH  23  26
ATOM     26  NBR A02 d          13.096   7.402  11.008  0.00  0.00    -0.359 N 
ATOM     27  CCC A02 d          12.015   6.670  10.735  0.00  0.00     0.249 C 
ATOM     28  OAL A02 d          11.098   7.027   9.982  0.00  0.00    -0.271 OA
ATOM     29  H21 A02 d          13.747   7.042  11.675  0.00  0.00     0.162 HD
BRANCH  27  30
ATOM     30  CCM A02 d          11.934   5.291  11.417  0.00  0.00     0.144 C 
ATOM     31  OBV A02 d          11.979   4.203  10.435  0.00  0.00    -0.346 OA
ATOM     32  CCN A02 d          13.303   3.594  10.458  0.00  0.00     0.140 C 
ATOM     33  CCL A02 d          14.167   4.545  11.310  0.00  0.00     0.105 C 
ATOM     34  H10 A02 d          13.250   2.611  10.950  0.00  0.00     0.123 H 
ATOM     35  CCK A02 d          13.161   5.091  12.307  0.00  0.00     0.098 C 
ATOM     36  H8  A02 d          14.619   5.342  10.701  0.00  0.00     0.093 H 
ATOM     37  H7  A02 d          13.500   6.026  12.777  0.00  0.00     0.091 H 
ATOM     38  H9  A02 d          11.010   5.229  12.012  0.00  0.00     0.102 H 
BRANCH  32  39
ATOM     39  N9  A02 d          13.854   3.390   9.051  0.00  0.00    -0.294 N 
ATOM     40  C4  A02 d          15.101   3.052   8.741  0.00  0.00     0.167 A 
ATOM     41  N3  A02 d          16.196   2.808   9.479  0.00  0.00    -0.222 NA
ATOM     42  C5  A02 d          15.179   2.983   7.356  0.00  0.00     0.149 A 
ATOM     43  C2  A02 d          17.343   2.486   8.896  0.00  0.00     0.091 A 
ATOM     44  N1  A02 d          17.444   2.403   7.562  0.00  0.00    -0.222 NA
ATOM     45  H1  A02 d          18.214   2.286   9.509  0.00  0.00     0.146 H 
ATOM     46  C6  A02 d          16.388   2.650   6.770  0.00  0.00     0.155 A 
ATOM     47  N7  A02 d          13.979   3.272   6.855  0.00  0.00    -0.236 NA
ATOM     48  C8  A02 d          13.175   3.507   7.898  0.00  0.00     0.071 A 
ATOM     49  H4  A02 d          12.118   3.758   7.823  0.00  0.00     0.144 H 
BRANCH  46  50
ATOM     50  N6  A02 d          16.491   2.580   5.447  0.00  0.00    -0.382 N 
ATOM     51  H2  A02 d          17.418   2.495   5.007  0.00  0.00     0.157 HD
ATOM     52  H3  A02 d          15.644   2.612   4.862  0.00  0.00     0.157 HD
ENDBRANCH  46  50
ENDBRANCH  32  39
BRANCH  33  53
ATOM     53  OAO A02 d          15.174   3.816  11.997  0.00  0.00    -0.388 OA
ATOM     54  H6  A02 d          15.995   4.293  11.952  0.00  0.00     0.210 HD
ENDBRANCH  33  53
BRANCH  35  55
ATOM     55  OAN A02 d          12.868   4.091  13.301  0.00  0.00    -0.390 OA
ATOM     56  H5  A02 d          13.468   4.188  14.032  0.00  0.00     0.210 HD
ENDBRANCH  35  55
ENDBRANCH  27  30
ENDBRANCH  23  26
ENDBRANCH  20  23
ENDBRANCH  17  20
ENDBRANCH  14  17
ENDBRANCH  11  14
ENDBRANCH   8  11
ENDBRANCH   5   7
BRANCH   5  57
ATOM     57  CBJ A02 d          19.907   6.989   5.961  0.00  0.00    -0.038 C 
ATOM     58  H24 A02 d          20.229   7.238   6.982  0.00  0.00     0.036 H 
ATOM     59  H25 A02 d          19.222   7.767   5.592  0.00  0.00     0.036 H 
BRANCH  57  60
ATOM     60  CAZ A02 d          21.147   6.985   5.061  0.00  0.00    -0.061 C 
ATOM     61  H26 A02 d          20.977   6.308   4.210  0.00  0.00     0.033 H 
ATOM     62  H27 A02 d          22.015   6.637   5.639  0.00  0.00     0.033 H 
BRANCH  60  63
ATOM     63  CAS A02 d          21.426   8.408   4.531  0.00  0.00    -0.043 C 
ATOM     64  H28 A02 d          20.470   8.889   4.273  0.00  0.00     0.035 H 
ATOM     65  H29 A02 d          22.058   8.339   3.633  0.00  0.00     0.035 H 
BRANCH  63  66
ATOM     66  CAR A02 d          22.146   9.261   5.586  0.00  0.00     0.080 C 
ATOM     67  H30 A02 d          23.190   9.419   5.276  0.00  0.00     0.075 H 
ATOM     68  H31 A02 d          22.126   8.738   6.554  0.00  0.00     0.075 H 
BRANCH  66  69
ATOM     69  NAC A02 d          21.475  10.566   5.723  0.00  0.00    -0.079 N 
ATOM     70  H32 A02 d          21.118  10.856   4.826  0.00  0.00     0.274 HD
ATOM     71  H33 A02 d          22.135  11.250   6.060  0.00  0.00     0.274 HD
ATOM     72  H34 A02 d          20.712  10.484   6.378  0.00  0.00     0.274 HD
ENDBRANCH  66  69
ENDBRANCH  63  66
ENDBRANCH  60  63
ENDBRANCH  57  60
ENDBRANCH   5  57
ENDBRANCH   1   5
BRANCH   3  73
ATOM     73  CBC A02 d          17.148   5.872   2.723  0.00  0.00    -0.005 C 
ATOM     74  H43 A02 d          16.975   6.834   2.220  0.00  0.00     0.064 H 
ATOM     75  H44 A02 d          17.828   5.257   2.116  0.00  0.00     0.064 H 
BRANCH  73  76
ATOM     76  CAV A02 d          15.811   5.138   2.880  0.00  0.00    -0.050 C 
ATOM     77  H41 A02 d          15.778   4.291   2.178  0.00  0.00     0.035 H 
ATOM     78  H42 A02 d          15.722   4.764   3.910  0.00  0.00     0.035 H 
BRANCH  76  79
ATOM     79  CAT A02 d          14.641   6.084   2.583  0.00  0.00    -0.063 C 
ATOM     80  H39 A02 d          15.041   7.074   2.321  0.00  0.00     0.033 H 
ATOM     81  H40 A02 d          14.066   5.684   1.734  0.00  0.00     0.033 H 
BRANCH  79  82
ATOM     82  CAY A02 d          13.706   6.231   3.788  0.00  0.00    -0.057 C 
ATOM     83  H37 A02 d          12.780   6.728   3.462  0.00  0.00     0.033 H 
ATOM     84  H38 A02 d          13.468   5.230   4.177  0.00  0.00     0.033 H 
BRANCH  82  85
ATOM     85  CBH A02 d          14.350   7.062   4.910  0.00  0.00     0.009 C 
ATOM     86  H35 A02 d          13.661   7.098   5.767  0.00  0.00     0.047 H 
ATOM     87  H36 A02 d          15.290   6.580   5.216  0.00  0.00     0.047 H 
BRANCH  85  88
ATOM     88  CCA A02 d          14.651   8.499   4.452  0.00  0.00     0.218 C 
ATOM     89  OAJ A02 d          15.770   8.807   4.030  0.00  0.00    -0.274 OA
ATOM     90  NBT A02 d          13.620   9.348   4.542  0.00  0.00    -0.348 N 
ATOM     91  H46 A02 d          12.747   9.002   4.887  0.00  0.00     0.163 HD
BRANCH  90  92
ATOM     92  CCJ A02 d          13.710  10.777   4.154  0.00  0.00     0.089 C 
ATOM     93  H47 A02 d          14.721  10.958   3.761  0.00  0.00     0.087 H 
BRANCH  92  94
ATOM     94  CBK A02 d          13.503  11.709   5.378  0.00  0.00    -0.036 C 
ATOM     95  H48 A02 d          12.503  11.513   5.794  0.00  0.00     0.036 H 
ATOM     96  H49 A02 d          13.557  12.750   5.030  0.00  0.00     0.036 H 
BRANCH  94  97
ATOM     97  CBB A02 d          14.536  11.523   6.502  0.00  0.00    -0.048 C 
ATOM     98  H50 A02 d          14.516  10.473   6.831  0.00  0.00     0.035 H 
ATOM     99  H51 A02 d          14.264  12.176   7.344  0.00  0.00     0.035 H 
BRANCH  97 100
ATOM    100  CBF A02 d          15.962  11.871   6.047  0.00  0.00     0.009 C 
ATOM    101  H52 A02 d          16.280  11.175   5.256  0.00  0.00     0.064 H 
ATOM    102  H53 A02 d          16.653  11.797   6.900  0.00  0.00     0.064 H 
BRANCH 100 103
ATOM    103  NBP A02 d          15.958  13.251   5.526  0.00  0.00    -0.227 N 
ATOM    104  CBX A02 d          16.998  14.091   5.616  0.00  0.00     0.665 C 
ATOM    105  NAB A02 d          18.151  13.740   6.182  0.00  0.00    -0.235 N 
ATOM    106  NAE A02 d          16.870  15.315   5.112  0.00  0.00    -0.235 N 
ATOM    107  H55 A02 d          18.928  14.416   6.232  0.00  0.00     0.174 HD
ATOM    108  H56 A02 d          18.268  12.793   6.570  0.00  0.00     0.174 HD
ATOM    109  H57 A02 d          15.983  15.600   4.671  0.00  0.00     0.174 HD
ATOM    110  H58 A02 d          17.657  15.978   5.161  0.00  0.00     0.174 HD
ATOM    111  H54 A02 d          15.102  13.590   5.064  0.00  0.00     0.177 HD
ENDBRANCH 100 103
ENDBRANCH  97 100
ENDBRANCH  94  97
ENDBRANCH  92  94
BRANCH  92 112
ATOM    112  CCD A02 d          12.696  11.098   3.029  0.00  0.00     0.241 C 
ATOM    113  OAM A02 d          11.745  11.852   3.231  0.00  0.00    -0.271 OA
ATOM    114  N   A02 d          12.932  10.500   1.859  0.00  0.00    -0.346 N 
ATOM    115  H59 A02 d          13.730   9.901   1.785  0.00  0.00     0.163 HD
BRANCH 114 116
ATOM    116  CA  A02 d          12.076  10.679   0.665  0.00  0.00     0.089 C 
ATOM    117  H60 A02 d          11.048  10.881   1.000  0.00  0.00     0.087 H 
BRANCH 116 118
ATOM    118  CB  A02 d          12.079   9.392  -0.169  0.00  0.00    -0.036 C 
ATOM    119  H61 A02 d          12.893   9.446  -0.908  0.00  0.00     0.036 H 
ATOM    120  H62 A02 d          11.115   9.302  -0.693  0.00  0.00     0.036 H 
BRANCH 118 121
ATOM    121  CG  A02 d          12.286   8.156   0.708  0.00  0.00    -0.048 C 
ATOM    122  H63 A02 d          12.783   8.458   1.642  0.00  0.00     0.035 H 
ATOM    123  H64 A02 d          12.922   7.436   0.171  0.00  0.00     0.035 H 
BRANCH 121 124
ATOM    124  CD  A02 d          10.957   7.488   1.047  0.00  0.00     0.009 C 
ATOM    125  H65 A02 d          10.230   7.669   0.241  0.00  0.00     0.064 H 
ATOM    126  H66 A02 d          10.564   7.891   1.993  0.00  0.00     0.064 H 
BRANCH 124 127
ATOM    127  NE  A02 d          11.207   6.056   1.180  0.00  0.00    -0.227 N 
ATOM    128  CZ  A02 d          10.543   5.098   0.537  0.00  0.00     0.665 C 
ATOM    129  NH1 A02 d           9.580   5.352  -0.349  0.00  0.00    -0.235 N 
ATOM    130  NH2 A02 d          10.894   3.846   0.798  0.00  0.00    -0.235 N 
ATOM    131  H68 A02 d           9.096   4.574  -0.820  0.00  0.00     0.174 HD
ATOM    132  H69 A02 d           9.320   6.325  -0.562  0.00  0.00     0.174 HD
ATOM    133  H70 A02 d          11.638   3.651   1.482  0.00  0.00     0.174 HD
ATOM    134  H71 A02 d          10.422   3.068   0.315  0.00  0.00     0.174 HD
ATOM    135  H67 A02 d          11.958   5.764   1.823  0.00  0.00     0.177 HD
ENDBRANCH 124 127
ENDBRANCH 121 124
ENDBRANCH 118 121
ENDBRANCH 116 118
BRANCH 116 136
ATOM    136  C   A02 d          12.551  11.868  -0.201  0.00  0.00     0.238 C 
ATOM    137  O   A02 d          11.828  12.842  -0.418  0.00  0.00    -0.271 OA
ATOM    138  NAF A02 d          13.795  11.759  -0.663  0.00  0.00    -0.368 N 
ATOM    139  H72 A02 d          14.182  12.484  -1.232  0.00  0.00     0.159 HD
ATOM    140  H73 A02 d          14.342  10.951  -0.441  0.00  0.00     0.159 HD
ENDBRANCH 116 136
ENDBRANCH 114 116
ENDBRANCH  92 112
ENDBRANCH  90  92
ENDBRANCH  85  88
ENDBRANCH  82  85
ENDBRANCH  79  82
ENDBRANCH  76  79
ENDBRANCH  73  76
ENDBRANCH   3  73
TORSDOF 36
ENDMDL
MODEL 5
REMARK VINA RESULT:      -4.0      3.229      8.024
REMARK WARNING: 32 MAX_TORS EXCEEDED!!!
REMARK  36 active torsions:
REMARK  status: ('A' for Active; 'I' for Inactive)
REMARK    1  A    between atoms: C6_6  and  N6_7 
REMARK    2  A    between atoms: CCN_19  and  N9_10 
REMARK    3  A    between atoms: CCK_16  and  OAN_12 
REMARK    4  A    between atoms: CCL_17  and  OAO_13 
REMARK    5  A    between atoms: CCC_15  and  CCM_18 
REMARK       I    between atoms: NBR_27  and  CCC_15 
REMARK    6  A    between atoms: CBZ_20  and  CBG_22 
REMARK       I    between atoms: NBS_28  and  CBZ_20 
REMARK    7  A    between atoms: CBG_22  and  CAX_23 
REMARK    8  A    between atoms: CAX_23  and  CAU_24 
REMARK    9  A    between atoms: CAU_24  and  CAW_25 
REMARK   10  A    between atoms: CAW_25  and  CBD_26 
REMARK   11  A    between atoms: CBD_26  and  NBR_27 
REMARK   12  A    between atoms: CCI_29  and  NBS_28 
REMARK   13  A    between atoms: CCB_30  and  CCI_29 
REMARK   14  A    between atoms: CCI_29  and  CBJ_32 
REMARK       I    between atoms: NBQ_44  and  CCB_30 
REMARK   15  A    between atoms: CBJ_32  and  CAZ_33 
REMARK   16  A    between atoms: CAZ_33  and  CAS_34 
REMARK   17  A    between atoms: CAS_34  and  CAR_35 
REMARK   18  A    between atoms: CAR_35  and  NAC_36 
REMARK   19  A    between atoms: CBH_39  and  CCA_37 
REMARK       I    between atoms: CCA_37  and  NBT_45 
REMARK   20  A    between atoms: CAY_40  and  CBH_39 
REMARK   21  A    between atoms: CAT_41  and  CAY_40 
REMARK   22  A    between atoms: CAV_42  and  CAT_41 
REMARK   23  A    between atoms: CBC_43  and  CAV_42 
REMARK   24  A    between atoms: CBC_43  and  NBQ_44 
REMARK   25  A    between atoms: NBT_45  and  CCJ_46 
REMARK   26  A    between atoms: CCJ_46  and  CBK_47 
REMARK   27  A    between atoms: CCJ_46  and  CCD_54 
REMARK   28  A    between atoms: CBK_47  and  CBB_48 
REMARK   29  A    between atoms: CBB_48  and  CBF_49 
REMARK   30  A    between atoms: CBF_49  and  NBP_50 
REMARK       I    between atoms: NBP_50  and  CBX_51 
REMARK       I    between atoms: CBX_51  and  NAB_52 
REMARK       I    between atoms: CBX_51  and  NAE_53 
REMARK       I    between atoms: CCD_54  and  N_56 
REMARK   31  A    between atoms: N_56  and  CA_57 
REMARK   32  A    between atoms: CA_57  and  CB_58 
REMARK   33  A    between atoms: CA_57  and  C_65 
REMARK   34  A    between atoms: CB_58  and  CG_59 
REMARK   35  A    between atoms: CG_59  and  CD_60 
REMARK   36  A    between atoms: CD_60  and  NE_61 
REMARK       I    between atoms: NE_61  and  CZ_62 
REMARK       I    between atoms: CZ_62  and  NH1_63 
REMARK       I    between atoms: C_65  and  NAF_67 
ROOT
ATOM      1  CCB A02 d          11.378   7.168   7.506  0.00  0.00     0.240 C 
ATOM      2  OAK A02 d          12.392   7.152   8.193  0.00  0.00    -0.271 OA
ATOM      3  NBQ A02 d          11.373   6.965   6.190  0.00  0.00    -0.359 N 
ATOM      4  H45 A02 d          10.502   7.006   5.699  0.00  0.00     0.162 HD
ENDROOT
BRANCH   1   5
ATOM      5  CCI A02 d          10.000   7.470   8.144  0.00  0.00     0.089 C 
ATOM      6  H23 A02 d          10.043   8.500   8.528  0.00  0.00     0.087 H 
BRANCH   5   7
ATOM      7  NBS A02 d           9.754   6.577   9.306  0.00  0.00    -0.348 N 
ATOM      8  CBZ A02 d           9.726   7.045  10.564  0.00  0.00     0.218 C 
ATOM      9  OAI A02 d           9.943   8.222  10.874  0.00  0.00    -0.274 OA
ATOM     10  H22 A02 d           9.606   5.602   9.147  0.00  0.00     0.163 HD
BRANCH   8  11
ATOM     11  CBG A02 d           9.450   5.984  11.649  0.00  0.00     0.009 C 
ATOM     12  H11 A02 d           8.372   5.769  11.672  0.00  0.00     0.047 H 
ATOM     13  H12 A02 d           9.766   6.382  12.625  0.00  0.00     0.047 H 
BRANCH  11  14
ATOM     14  CAX A02 d          10.213   4.672  11.377  0.00  0.00    -0.057 C 
ATOM     15  H13 A02 d          10.686   4.732  10.385  0.00  0.00     0.033 H 
ATOM     16  H14 A02 d           9.501   3.833  11.394  0.00  0.00     0.033 H 
BRANCH  14  17
ATOM     17  CAU A02 d          11.297   4.430  12.434  0.00  0.00    -0.063 C 
ATOM     18  H15 A02 d          11.684   3.407  12.311  0.00  0.00     0.033 H 
ATOM     19  H16 A02 d          10.844   4.534  13.431  0.00  0.00     0.033 H 
BRANCH  17  20
ATOM     20  CAW A02 d          12.466   5.412  12.323  0.00  0.00    -0.050 C 
ATOM     21  H17 A02 d          12.718   5.810  13.318  0.00  0.00     0.035 H 
ATOM     22  H18 A02 d          12.197   6.243  11.654  0.00  0.00     0.035 H 
BRANCH  20  23
ATOM     23  CBD A02 d          13.660   4.645  11.750  0.00  0.00    -0.005 C 
ATOM     24  H19 A02 d          13.759   3.692  12.291  0.00  0.00     0.064 H 
ATOM     25  H20 A02 d          14.568   5.246  11.897  0.00  0.00     0.064 H 
BRANCH  23  26
ATOM     26  NBR A02 d          13.512   4.357  10.312  0.00  0.00    -0.359 N 
ATOM     27  CCC A02 d          14.264   3.487   9.637  0.00  0.00     0.249 C 
ATOM     28  OAL A02 d          15.221   2.865  10.119  0.00  0.00    -0.271 OA
ATOM     29  H21 A02 d          12.800   4.847   9.809  0.00  0.00     0.162 HD
BRANCH  27  30
ATOM     30  CCM A02 d          13.889   3.262   8.159  0.00  0.00     0.144 C 
ATOM     31  OBV A02 d          14.502   4.273   7.291  0.00  0.00    -0.346 OA
ATOM     32  CCN A02 d          15.631   3.676   6.589  0.00  0.00     0.140 C 
ATOM     33  CCL A02 d          15.860   2.317   7.279  0.00  0.00     0.105 C 
ATOM     34  H10 A02 d          15.365   3.510   5.535  0.00  0.00     0.123 H 
ATOM     35  CCK A02 d          14.454   1.922   7.690  0.00  0.00     0.098 C 
ATOM     36  H8  A02 d          16.533   2.407   8.145  0.00  0.00     0.093 H 
ATOM     37  H7  A02 d          14.446   1.158   8.482  0.00  0.00     0.091 H 
ATOM     38  H9  A02 d          12.794   3.281   8.051  0.00  0.00     0.102 H 
BRANCH  32  39
ATOM     39  N9  A02 d          16.860   4.579   6.630  0.00  0.00    -0.294 N 
ATOM     40  C4  A02 d          16.961   5.733   7.280  0.00  0.00     0.167 A 
ATOM     41  N3  A02 d          16.104   6.436   8.038  0.00  0.00    -0.222 NA
ATOM     42  C5  A02 d          18.236   6.230   7.046  0.00  0.00     0.149 A 
ATOM     43  C2  A02 d          16.475   7.591   8.577  0.00  0.00     0.091 A 
ATOM     44  N1  A02 d          17.702   8.089   8.375  0.00  0.00    -0.222 NA
ATOM     45  H1  A02 d          15.772   8.141   9.191  0.00  0.00     0.146 H 
ATOM     46  C6  A02 d          18.598   7.439   7.615  0.00  0.00     0.155 A 
ATOM     47  N7  A02 d          18.885   5.366   6.267  0.00  0.00    -0.236 NA
ATOM     48  C8  A02 d          18.040   4.356   6.029  0.00  0.00     0.071 A 
ATOM     49  H4  A02 d          18.276   3.477   5.431  0.00  0.00     0.144 H 
BRANCH  46  50
ATOM     50  N6  A02 d          19.811   7.939   7.404  0.00  0.00    -0.382 N 
ATOM     51  H2  A02 d          20.584   7.698   8.039  0.00  0.00     0.157 HD
ATOM     52  H3  A02 d          19.977   8.568   6.606  0.00  0.00     0.157 HD
ENDBRANCH  46  50
ENDBRANCH  32  39
BRANCH  33  53
ATOM     53  OAO A02 d          16.371   1.371   6.351  0.00  0.00    -0.388 OA
ATOM     54  H6  A02 d          16.715   1.827   5.592  0.00  0.00     0.210 HD
ENDBRANCH  33  53
BRANCH  35  55
ATOM     55  OAN A02 d          13.716   1.474   6.536  0.00  0.00    -0.390 OA
ATOM     56  H5  A02 d          14.150   0.718   6.158  0.00  0.00     0.210 HD
ENDBRANCH  35  55
ENDBRANCH  27  30
ENDBRANCH  23  26
ENDBRANCH  20  23
ENDBRANCH  17  20
ENDBRANCH  14  17
ENDBRANCH  11  14
ENDBRANCH   8  11
ENDBRANCH   5   7
BRANCH   5  57
ATOM     57  CBJ A02 d           8.837   7.421   7.128  0.00  0.00    -0.038 C 
ATOM     58  H24 A02 d           8.052   6.770   7.541  0.00  0.00     0.036 H 
ATOM     59  H25 A02 d           9.221   6.985   6.194  0.00  0.00     0.036 H 
BRANCH  57  60
ATOM     60  CAZ A02 d           8.203   8.775   6.792  0.00  0.00    -0.061 C 
ATOM     61  H26 A02 d           7.108   8.670   6.781  0.00  0.00     0.033 H 
ATOM     62  H27 A02 d           8.550   9.102   5.801  0.00  0.00     0.033 H 
BRANCH  60  63
ATOM     63  CAS A02 d           8.604   9.828   7.847  0.00  0.00    -0.043 C 
ATOM     64  H28 A02 d           9.691   9.990   7.796  0.00  0.00     0.035 H 
ATOM     65  H29 A02 d           8.334   9.455   8.846  0.00  0.00     0.035 H 
BRANCH  63  66
ATOM     66  CAR A02 d           7.885  11.163   7.599  0.00  0.00     0.080 C 
ATOM     67  H30 A02 d           8.576  11.993   7.810  0.00  0.00     0.075 H 
ATOM     68  H31 A02 d           7.011  11.234   8.264  0.00  0.00     0.075 H 
BRANCH  66  69
ATOM     69  NAC A02 d           7.439  11.242   6.197  0.00  0.00    -0.079 N 
ATOM     70  H32 A02 d           7.142  10.330   5.886  0.00  0.00     0.274 HD
ATOM     71  H33 A02 d           8.202  11.562   5.619  0.00  0.00     0.274 HD
ATOM     72  H34 A02 d           6.670  11.890   6.125  0.00  0.00     0.274 HD
ENDBRANCH  66  69
ENDBRANCH  63  66
ENDBRANCH  60  63
ENDBRANCH  57  60
ENDBRANCH   5  57
ENDBRANCH   1   5
BRANCH   3  73
ATOM     73  CBC A02 d          12.608   6.682   5.424  0.00  0.00    -0.005 C 
ATOM     74  H43 A02 d          13.482   6.858   6.069  0.00  0.00     0.064 H 
ATOM     75  H44 A02 d          12.599   5.632   5.098  0.00  0.00     0.064 H 
BRANCH  73  76
ATOM     76  CAV A02 d          12.699   7.591   4.193  0.00  0.00    -0.050 C 
ATOM     77  H41 A02 d          13.627   7.367   3.645  0.00  0.00     0.035 H 
ATOM     78  H42 A02 d          11.834   7.404   3.541  0.00  0.00     0.035 H 
BRANCH  76  79
ATOM     79  CAT A02 d          12.705   9.066   4.613  0.00  0.00    -0.063 C 
ATOM     80  H39 A02 d          12.118   9.645   3.886  0.00  0.00     0.033 H 
ATOM     81  H40 A02 d          12.245   9.154   5.609  0.00  0.00     0.033 H 
BRANCH  79  82
ATOM     82  CAY A02 d          14.125   9.637   4.671  0.00  0.00    -0.057 C 
ATOM     83  H37 A02 d          14.816   8.924   4.196  0.00  0.00     0.033 H 
ATOM     84  H38 A02 d          14.148  10.590   4.122  0.00  0.00     0.033 H 
BRANCH  82  85
ATOM     85  CBH A02 d          14.582   9.884   6.118  0.00  0.00     0.009 C 
ATOM     86  H35 A02 d          13.696   9.933   6.768  0.00  0.00     0.047 H 
ATOM     87  H36 A02 d          15.224   9.050   6.437  0.00  0.00     0.047 H 
BRANCH  85  88
ATOM     88  CCA A02 d          15.369  11.198   6.250  0.00  0.00     0.218 C 
ATOM     89  OAJ A02 d          15.904  11.511   7.318  0.00  0.00    -0.274 OA
ATOM     90  NBT A02 d          15.425  11.937   5.135  0.00  0.00    -0.348 N 
ATOM     91  H46 A02 d          14.968  11.595   4.314  0.00  0.00     0.163 HD
BRANCH  90  92
ATOM     92  CCJ A02 d          16.131  13.239   5.059  0.00  0.00     0.089 C 
ATOM     93  H47 A02 d          16.253  13.619   6.084  0.00  0.00     0.087 H 
BRANCH  92  94
ATOM     94  CBK A02 d          15.307  14.284   4.260  0.00  0.00    -0.036 C 
ATOM     95  H48 A02 d          14.481  13.759   3.759  0.00  0.00     0.036 H 
ATOM     96  H49 A02 d          15.966  14.738   3.506  0.00  0.00     0.036 H 
BRANCH  94  97
ATOM     97  CBB A02 d          14.709  15.413   5.117  0.00  0.00    -0.048 C 
ATOM     98  H50 A02 d          14.985  15.244   6.169  0.00  0.00     0.035 H 
ATOM     99  H51 A02 d          13.614  15.391   5.017  0.00  0.00     0.035 H 
BRANCH  97 100
ATOM    100  CBF A02 d          15.216  16.800   4.690  0.00  0.00     0.009 C 
ATOM    101  H52 A02 d          14.971  17.540   5.466  0.00  0.00     0.064 H 
ATOM    102  H53 A02 d          14.743  17.093   3.742  0.00  0.00     0.064 H 
BRANCH 100 103
ATOM    103  NBP A02 d          16.679  16.724   4.517  0.00  0.00    -0.227 N 
ATOM    104  CBX A02 d          17.567  17.132   5.435  0.00  0.00     0.665 C 
ATOM    105  NAB A02 d          17.196  17.635   6.611  0.00  0.00    -0.235 N 
ATOM    106  NAE A02 d          18.862  17.017   5.159  0.00  0.00    -0.235 N 
ATOM    107  H55 A02 d          17.910  17.937   7.290  0.00  0.00     0.174 HD
ATOM    108  H56 A02 d          16.196  17.723   6.842  0.00  0.00     0.174 HD
ATOM    109  H57 A02 d          19.164  16.629   4.253  0.00  0.00     0.174 HD
ATOM    110  H58 A02 d          19.565  17.315   5.851  0.00  0.00     0.174 HD
ATOM    111  H54 A02 d          17.042  16.334   3.635  0.00  0.00     0.177 HD
ENDBRANCH 100 103
ENDBRANCH  97 100
ENDBRANCH  94  97
ENDBRANCH  92  94
BRANCH  92 112
ATOM    112  CCD A02 d          17.542  13.055   4.448  0.00  0.00     0.241 C 
ATOM    113  OAM A02 d          18.237  14.028   4.155  0.00  0.00    -0.271 OA
ATOM    114  N   A02 d          17.926  11.790   4.268  0.00  0.00    -0.346 N 
ATOM    115  H59 A02 d          17.296  11.060   4.535  0.00  0.00     0.163 HD
BRANCH 114 116
ATOM    116  CA  A02 d          19.237  11.409   3.695  0.00  0.00     0.089 C 
ATOM    117  H60 A02 d          19.765  12.326   3.393  0.00  0.00     0.087 H 
BRANCH 116 118
ATOM    118  CB  A02 d          19.023  10.530   2.456  0.00  0.00    -0.036 C 
ATOM    119  H61 A02 d          19.947   9.969   2.252  0.00  0.00     0.036 H 
ATOM    120  H62 A02 d          18.788  11.175   1.596  0.00  0.00     0.036 H 
BRANCH 118 121
ATOM    121  CG  A02 d          17.875   9.540   2.663  0.00  0.00    -0.048 C 
ATOM    122  H63 A02 d          17.290   9.849   3.543  0.00  0.00     0.035 H 
ATOM    123  H64 A02 d          18.293   8.537   2.835  0.00  0.00     0.035 H 
BRANCH 121 124
ATOM    124  CD  A02 d          16.956   9.495   1.447  0.00  0.00     0.009 C 
ATOM    125  H65 A02 d          16.642   8.459   1.252  0.00  0.00     0.064 H 
ATOM    126  H66 A02 d          17.481   9.891   0.565  0.00  0.00     0.064 H 
BRANCH 124 127
ATOM    127  NE  A02 d          15.791  10.321   1.747  0.00  0.00    -0.227 N 
ATOM    128  CZ  A02 d          15.544  11.519   1.221  0.00  0.00     0.665 C 
ATOM    129  NH1 A02 d          16.334  12.089   0.311  0.00  0.00    -0.235 N 
ATOM    130  NH2 A02 d          14.442  12.137   1.626  0.00  0.00    -0.235 N 
ATOM    131  H68 A02 d          16.098  13.018  -0.066  0.00  0.00     0.174 HD
ATOM    132  H69 A02 d          17.180  11.600  -0.015  0.00  0.00     0.174 HD
ATOM    133  H70 A02 d          13.833  11.695   2.328  0.00  0.00     0.174 HD
ATOM    134  H71 A02 d          14.196  13.059   1.237  0.00  0.00     0.174 HD
ATOM    135  H67 A02 d          15.105   9.948   2.419  0.00  0.00     0.177 HD
ENDBRANCH 124 127
ENDBRANCH 121 124
ENDBRANCH 118 121
ENDBRANCH 116 118
BRANCH 116 136
ATOM    136  C   A02 d          20.111  10.660   4.726  0.00  0.00     0.238 C 
ATOM    137  O   A02 d          19.758  10.525   5.900  0.00  0.00    -0.271 OA
ATOM    138  NAF A02 d          21.245  10.161   4.239  0.00  0.00    -0.368 N 
ATOM    139  H72 A02 d          21.870   9.662   4.838  0.00  0.00     0.159 HD
ATOM    140  H73 A02 d          21.472  10.287   3.273  0.00  0.00     0.159 HD
ENDBRANCH 116 136
ENDBRANCH 114 116
ENDBRANCH  92 112
ENDBRANCH  90  92
ENDBRANCH  85  88
ENDBRANCH  82  85
ENDBRANCH  79  82
ENDBRANCH  76  79
ENDBRANCH  73  76
ENDBRANCH   3  73
TORSDOF 36
ENDMDL
MODEL 6
REMARK VINA RESULT:      -3.8      3.205      8.927
REMARK WARNING: 32 MAX_TORS EXCEEDED!!!
REMARK  36 active torsions:
REMARK  status: ('A' for Active; 'I' for Inactive)
REMARK    1  A    between atoms: C6_6  and  N6_7 
REMARK    2  A    between atoms: CCN_19  and  N9_10 
REMARK    3  A    between atoms: CCK_16  and  OAN_12 
REMARK    4  A    between atoms: CCL_17  and  OAO_13 
REMARK    5  A    between atoms: CCC_15  and  CCM_18 
REMARK       I    between atoms: NBR_27  and  CCC_15 
REMARK    6  A    between atoms: CBZ_20  and  CBG_22 
REMARK       I    between atoms: NBS_28  and  CBZ_20 
REMARK    7  A    between atoms: CBG_22  and  CAX_23 
REMARK    8  A    between atoms: CAX_23  and  CAU_24 
REMARK    9  A    between atoms: CAU_24  and  CAW_25 
REMARK   10  A    between atoms: CAW_25  and  CBD_26 
REMARK   11  A    between atoms: CBD_26  and  NBR_27 
REMARK   12  A    between atoms: CCI_29  and  NBS_28 
REMARK   13  A    between atoms: CCB_30  and  CCI_29 
REMARK   14  A    between atoms: CCI_29  and  CBJ_32 
REMARK       I    between atoms: NBQ_44  and  CCB_30 
REMARK   15  A    between atoms: CBJ_32  and  CAZ_33 
REMARK   16  A    between atoms: CAZ_33  and  CAS_34 
REMARK   17  A    between atoms: CAS_34  and  CAR_35 
REMARK   18  A    between atoms: CAR_35  and  NAC_36 
REMARK   19  A    between atoms: CBH_39  and  CCA_37 
REMARK       I    between atoms: CCA_37  and  NBT_45 
REMARK   20  A    between atoms: CAY_40  and  CBH_39 
REMARK   21  A    between atoms: CAT_41  and  CAY_40 
REMARK   22  A    between atoms: CAV_42  and  CAT_41 
REMARK   23  A    between atoms: CBC_43  and  CAV_42 
REMARK   24  A    between atoms: CBC_43  and  NBQ_44 
REMARK   25  A    between atoms: NBT_45  and  CCJ_46 
REMARK   26  A    between atoms: CCJ_46  and  CBK_47 
REMARK   27  A    between atoms: CCJ_46  and  CCD_54 
REMARK   28  A    between atoms: CBK_47  and  CBB_48 
REMARK   29  A    between atoms: CBB_48  and  CBF_49 
REMARK   30  A    between atoms: CBF_49  and  NBP_50 
REMARK       I    between atoms: NBP_50  and  CBX_51 
REMARK       I    between atoms: CBX_51  and  NAB_52 
REMARK       I    between atoms: CBX_51  and  NAE_53 
REMARK       I    between atoms: CCD_54  and  N_56 
REMARK   31  A    between atoms: N_56  and  CA_57 
REMARK   32  A    between atoms: CA_57  and  CB_58 
REMARK   33  A    between atoms: CA_57  and  C_65 
REMARK   34  A    between atoms: CB_58  and  CG_59 
REMARK   35  A    between atoms: CG_59  and  CD_60 
REMARK   36  A    between atoms: CD_60  and  NE_61 
REMARK       I    between atoms: NE_61  and  CZ_62 
REMARK       I    between atoms: CZ_62  and  NH1_63 
REMARK       I    between atoms: C_65  and  NAF_67 
ROOT
ATOM      1  CCB A02 d          11.561   6.769   7.922  0.00  0.00     0.240 C 
ATOM      2  OAK A02 d          12.187   7.382   7.066  0.00  0.00    -0.271 OA
ATOM      3  NBQ A02 d          10.343   6.265   7.729  0.00  0.00    -0.359 N 
ATOM      4  H45 A02 d           9.895   5.786   8.485  0.00  0.00     0.162 HD
ENDROOT
BRANCH   1   5
ATOM      5  CCI A02 d          12.155   6.568   9.338  0.00  0.00     0.089 C 
ATOM      6  H23 A02 d          12.574   7.536   9.650  0.00  0.00     0.087 H 
BRANCH   5   7
ATOM      7  NBS A02 d          13.275   5.594   9.302  0.00  0.00    -0.348 N 
ATOM      8  CBZ A02 d          13.080   4.302   8.993  0.00  0.00     0.218 C 
ATOM      9  OAI A02 d          11.973   3.801   8.761  0.00  0.00    -0.274 OA
ATOM     10  H22 A02 d          14.200   5.908   9.515  0.00  0.00     0.163 HD
BRANCH   8  11
ATOM     11  CBG A02 d          14.352   3.430   8.994  0.00  0.00     0.009 C 
ATOM     12  H11 A02 d          14.120   2.460   8.531  0.00  0.00     0.047 H 
ATOM     13  H12 A02 d          14.674   3.272  10.035  0.00  0.00     0.047 H 
BRANCH  11  14
ATOM     14  CAX A02 d          15.504   4.093   8.212  0.00  0.00    -0.057 C 
ATOM     15  H13 A02 d          16.447   3.585   8.465  0.00  0.00     0.033 H 
ATOM     16  H14 A02 d          15.569   5.153   8.500  0.00  0.00     0.033 H 
BRANCH  14  17
ATOM     17  CAU A02 d          15.275   3.998   6.700  0.00  0.00    -0.063 C 
ATOM     18  H15 A02 d          14.458   3.286   6.512  0.00  0.00     0.033 H 
ATOM     19  H16 A02 d          16.197   3.631   6.227  0.00  0.00     0.033 H 
BRANCH  17  20
ATOM     20  CAW A02 d          14.905   5.343   6.068  0.00  0.00    -0.050 C 
ATOM     21  H17 A02 d          13.862   5.598   6.310  0.00  0.00     0.035 H 
ATOM     22  H18 A02 d          15.026   5.292   4.976  0.00  0.00     0.035 H 
BRANCH  20  23
ATOM     23  CBD A02 d          15.848   6.400   6.649  0.00  0.00    -0.005 C 
ATOM     24  H19 A02 d          16.710   6.510   5.975  0.00  0.00     0.064 H 
ATOM     25  H20 A02 d          16.195   6.058   7.635  0.00  0.00     0.064 H 
BRANCH  23  26
ATOM     26  NBR A02 d          15.200   7.714   6.807  0.00  0.00    -0.359 N 
ATOM     27  CCC A02 d          15.826   8.818   7.216  0.00  0.00     0.249 C 
ATOM     28  OAL A02 d          17.010   8.860   7.578  0.00  0.00    -0.271 OA
ATOM     29  H21 A02 d          14.225   7.782   6.593  0.00  0.00     0.162 HD
BRANCH  27  30
ATOM     30  CCM A02 d          14.991  10.113   7.227  0.00  0.00     0.144 C 
ATOM     31  OBV A02 d          15.847  11.302   7.290  0.00  0.00    -0.346 OA
ATOM     32  CCN A02 d          15.897  11.923   5.972  0.00  0.00     0.140 C 
ATOM     33  CCL A02 d          15.252  10.897   5.020  0.00  0.00     0.105 C 
ATOM     34  H10 A02 d          15.297  12.845   5.975  0.00  0.00     0.123 H 
ATOM     35  CCK A02 d          14.220  10.231   5.912  0.00  0.00     0.098 C 
ATOM     36  H8  A02 d          15.989  10.177   4.634  0.00  0.00     0.093 H 
ATOM     37  H7  A02 d          13.895   9.255   5.523  0.00  0.00     0.091 H 
ATOM     38  H9  A02 d          14.298  10.096   8.082  0.00  0.00     0.102 H 
BRANCH  32  39
ATOM     39  N9  A02 d          17.324  12.288   5.576  0.00  0.00    -0.294 N 
ATOM     40  C4  A02 d          18.226  11.461   5.057  0.00  0.00     0.167 A 
ATOM     41  N3  A02 d          18.202  10.156   4.744  0.00  0.00    -0.222 NA
ATOM     42  C5  A02 d          19.389  12.193   4.856  0.00  0.00     0.149 A 
ATOM     43  C2  A02 d          19.274   9.568   4.230  0.00  0.00     0.091 A 
ATOM     44  N1  A02 d          20.406  10.252   4.016  0.00  0.00    -0.222 NA
ATOM     45  H1  A02 d          19.233   8.514   3.978  0.00  0.00     0.146 H 
ATOM     46  C6  A02 d          20.496  11.556   4.323  0.00  0.00     0.155 A 
ATOM     47  N7  A02 d          19.167  13.447   5.248  0.00  0.00    -0.236 NA
ATOM     48  C8  A02 d          17.900  13.496   5.674  0.00  0.00     0.071 A 
ATOM     49  H4  A02 d          17.406  14.391   6.048  0.00  0.00     0.144 H 
BRANCH  46  50
ATOM     50  N6  A02 d          21.623  12.231   4.123  0.00  0.00    -0.382 N 
ATOM     51  H2  A02 d          22.126  12.141   3.229  0.00  0.00     0.157 HD
ATOM     52  H3  A02 d          21.994  12.845   4.863  0.00  0.00     0.157 HD
ENDBRANCH  46  50
ENDBRANCH  32  39
BRANCH  33  53
ATOM     53  OAO A02 d          14.599  11.560   3.947  0.00  0.00    -0.388 OA
ATOM     54  H6  A02 d          14.457  10.946   3.236  0.00  0.00     0.210 HD
ENDBRANCH  33  53
BRANCH  35  55
ATOM     55  OAN A02 d          13.096  11.112   6.099  0.00  0.00    -0.390 OA
ATOM     56  H5  A02 d          12.455  10.691   6.661  0.00  0.00     0.210 HD
ENDBRANCH  35  55
ENDBRANCH  27  30
ENDBRANCH  23  26
ENDBRANCH  20  23
ENDBRANCH  17  20
ENDBRANCH  14  17
ENDBRANCH  11  14
ENDBRANCH   8  11
ENDBRANCH   5   7
BRANCH   5  57
ATOM     57  CBJ A02 d          11.092   6.182  10.391  0.00  0.00    -0.038 C 
ATOM     58  H24 A02 d          11.036   5.084  10.430  0.00  0.00     0.036 H 
ATOM     59  H25 A02 d          10.124   6.587  10.062  0.00  0.00     0.036 H 
BRANCH  57  60
ATOM     60  CAZ A02 d          11.361   6.692  11.811  0.00  0.00    -0.061 C 
ATOM     61  H26 A02 d          12.082   7.522  11.768  0.00  0.00     0.033 H 
ATOM     62  H27 A02 d          11.778   5.875  12.418  0.00  0.00     0.033 H 
BRANCH  60  63
ATOM     63  CAS A02 d          10.050   7.189  12.456  0.00  0.00    -0.043 C 
ATOM     64  H28 A02 d          10.286   7.693  13.405  0.00  0.00     0.035 H 
ATOM     65  H29 A02 d           9.396   6.326  12.651  0.00  0.00     0.035 H 
BRANCH  63  66
ATOM     66  CAR A02 d           9.317   8.175  11.534  0.00  0.00     0.080 C 
ATOM     67  H30 A02 d           8.378   7.719  11.186  0.00  0.00     0.075 H 
ATOM     68  H31 A02 d           9.955   8.408  10.668  0.00  0.00     0.075 H 
BRANCH  66  69
ATOM     69  NAC A02 d           9.014   9.419  12.265  0.00  0.00    -0.079 N 
ATOM     70  H32 A02 d           9.387   9.358  13.200  0.00  0.00     0.274 HD
ATOM     71  H33 A02 d           8.015   9.547  12.310  0.00  0.00     0.274 HD
ATOM     72  H34 A02 d           9.432  10.201  11.786  0.00  0.00     0.274 HD
ENDBRANCH  66  69
ENDBRANCH  63  66
ENDBRANCH  60  63
ENDBRANCH  57  60
ENDBRANCH   5  57
ENDBRANCH   1   5
BRANCH   3  73
ATOM     73  CBC A02 d           9.628   6.386   6.438  0.00  0.00    -0.005 C 
ATOM     74  H43 A02 d          10.360   6.532   5.631  0.00  0.00     0.064 H 
ATOM     75  H44 A02 d           9.056   5.465   6.253  0.00  0.00     0.064 H 
BRANCH  73  76
ATOM     76  CAV A02 d           8.665   7.579   6.467  0.00  0.00    -0.050 C 
ATOM     77  H41 A02 d           7.641   7.214   6.631  0.00  0.00     0.035 H 
ATOM     78  H42 A02 d           8.950   8.254   7.287  0.00  0.00     0.035 H 
BRANCH  76  79
ATOM     79  CAT A02 d           8.720   8.346   5.140  0.00  0.00    -0.063 C 
ATOM     80  H39 A02 d           7.876   8.030   4.511  0.00  0.00     0.033 H 
ATOM     81  H40 A02 d           8.640   9.424   5.348  0.00  0.00     0.033 H 
BRANCH  79  82
ATOM     82  CAY A02 d          10.026   8.083   4.383  0.00  0.00    -0.057 C 
ATOM     83  H37 A02 d          10.586   7.291   4.902  0.00  0.00     0.033 H 
ATOM     84  H38 A02 d           9.786   7.754   3.362  0.00  0.00     0.033 H 
BRANCH  82  85
ATOM     85  CBH A02 d          10.904   9.344   4.307  0.00  0.00     0.009 C 
ATOM     86  H35 A02 d          10.253  10.230   4.288  0.00  0.00     0.047 H 
ATOM     87  H36 A02 d          11.550   9.383   5.197  0.00  0.00     0.047 H 
BRANCH  85  88
ATOM     88  CCA A02 d          11.787   9.347   3.048  0.00  0.00     0.218 C 
ATOM     89  OAJ A02 d          11.664  10.229   2.191  0.00  0.00    -0.274 OA
ATOM     90  NBT A02 d          12.674   8.347   2.979  0.00  0.00    -0.348 N 
ATOM     91  H46 A02 d          12.706   7.686   3.728  0.00  0.00     0.163 HD
BRANCH  90  92
ATOM     92  CCJ A02 d          13.612   8.173   1.843  0.00  0.00     0.089 C 
ATOM     93  H47 A02 d          13.703   9.139   1.327  0.00  0.00     0.087 H 
BRANCH  92  94
ATOM     94  CBK A02 d          13.074   7.138   0.819  0.00  0.00    -0.036 C 
ATOM     95  H48 A02 d          13.918   6.789   0.206  0.00  0.00     0.036 H 
ATOM     96  H49 A02 d          12.337   7.640   0.176  0.00  0.00     0.036 H 
BRANCH  94  97
ATOM     97  CBB A02 d          12.400   5.907   1.451  0.00  0.00    -0.048 C 
ATOM     98  H50 A02 d          12.289   6.082   2.531  0.00  0.00     0.035 H 
ATOM     99  H51 A02 d          13.042   5.029   1.286  0.00  0.00     0.035 H 
BRANCH  97 100
ATOM    100  CBF A02 d          11.014   5.628   0.849  0.00  0.00     0.009 C 
ATOM    101  H52 A02 d          10.994   5.951  -0.202  0.00  0.00     0.064 H 
ATOM    102  H53 A02 d          10.246   6.175   1.415  0.00  0.00     0.064 H 
BRANCH 100 103
ATOM    103  NBP A02 d          10.758   4.178   0.931  0.00  0.00    -0.227 N 
ATOM    104  CBX A02 d          10.964   3.320  -0.078  0.00  0.00     0.665 C 
ATOM    105  NAB A02 d          11.441   3.710  -1.259  0.00  0.00    -0.235 N 
ATOM    106  NAE A02 d          10.689   2.034   0.117  0.00  0.00    -0.235 N 
ATOM    107  H55 A02 d          11.585   3.019  -2.010  0.00  0.00     0.174 HD
ATOM    108  H56 A02 d          11.665   4.702  -1.422  0.00  0.00     0.174 HD
ATOM    109  H57 A02 d          10.320   1.718   1.025  0.00  0.00     0.174 HD
ATOM    110  H58 A02 d          10.846   1.353  -0.640  0.00  0.00     0.174 HD
ATOM    111  H54 A02 d          10.398   3.800   1.819  0.00  0.00     0.177 HD
ENDBRANCH 100 103
ENDBRANCH  97 100
ENDBRANCH  94  97
ENDBRANCH  92  94
BRANCH  92 112
ATOM    112  CCD A02 d          15.017   7.772   2.356  0.00  0.00     0.241 C 
ATOM    113  OAM A02 d          15.288   7.814   3.556  0.00  0.00    -0.271 OA
ATOM    114  N   A02 d          15.884   7.394   1.414  0.00  0.00    -0.346 N 
ATOM    115  H59 A02 d          15.577   7.391   0.462  0.00  0.00     0.163 HD
BRANCH 114 116
ATOM    116  CA  A02 d          17.274   6.978   1.706  0.00  0.00     0.089 C 
ATOM    117  H60 A02 d          17.364   6.795   2.786  0.00  0.00     0.087 H 
BRANCH 116 118
ATOM    118  CB  A02 d          18.242   8.100   1.311  0.00  0.00    -0.036 C 
ATOM    119  H61 A02 d          19.271   7.776   1.525  0.00  0.00     0.036 H 
ATOM    120  H62 A02 d          18.010   8.998   1.904  0.00  0.00     0.036 H 
BRANCH 118 121
ATOM    121  CG  A02 d          18.126   8.442  -0.176  0.00  0.00    -0.048 C 
ATOM    122  H63 A02 d          17.582   7.634  -0.688  0.00  0.00     0.035 H 
ATOM    123  H64 A02 d          19.136   8.532  -0.603  0.00  0.00     0.035 H 
BRANCH 121 124
ATOM    124  CD  A02 d          17.379   9.755  -0.386  0.00  0.00     0.009 C 
ATOM    125  H65 A02 d          16.461   9.766   0.219  0.00  0.00     0.064 H 
ATOM    126  H66 A02 d          17.120   9.873  -1.449  0.00  0.00     0.064 H 
BRANCH 124 127
ATOM    127  NE  A02 d          18.266  10.835   0.034  0.00  0.00    -0.227 N 
ATOM    128  CZ  A02 d          18.053  11.645   1.070  0.00  0.00     0.665 C 
ATOM    129  NH1 A02 d          16.999  11.527   1.877  0.00  0.00    -0.235 N 
ATOM    130  NH2 A02 d          18.959  12.587   1.292  0.00  0.00    -0.235 N 
ATOM    131  H68 A02 d          16.879  12.179   2.666  0.00  0.00     0.174 HD
ATOM    132  H69 A02 d          16.305  10.784   1.713  0.00  0.00     0.174 HD
ATOM    133  H70 A02 d          19.772  12.677   0.667  0.00  0.00     0.174 HD
ATOM    134  H71 A02 d          18.849  13.229   2.090  0.00  0.00     0.174 HD
ATOM    135  H67 A02 d          19.126  10.984  -0.514  0.00  0.00     0.177 HD
ENDBRANCH 124 127
ENDBRANCH 121 124
ENDBRANCH 118 121
ENDBRANCH 116 118
BRANCH 116 136
ATOM    136  C   A02 d          17.645   5.677   0.958  0.00  0.00     0.238 C 
ATOM    137  O   A02 d          17.004   5.284  -0.019  0.00  0.00    -0.271 OA
ATOM    138  NAF A02 d          18.711   5.042   1.439  0.00  0.00    -0.368 N 
ATOM    139  H72 A02 d          19.021   4.191   1.014  0.00  0.00     0.159 HD
ATOM    140  H73 A02 d          19.203   5.415   2.226  0.00  0.00     0.159 HD
ENDBRANCH 116 136
ENDBRANCH 114 116
ENDBRANCH  92 112
ENDBRANCH  90  92
ENDBRANCH  85  88
ENDBRANCH  82  85
ENDBRANCH  79  82
ENDBRANCH  76  79
ENDBRANCH  73  76
ENDBRANCH   3  73
TORSDOF 36
ENDMDL
MODEL 7
REMARK VINA RESULT:      -3.8      1.928      3.166
REMARK WARNING: 32 MAX_TORS EXCEEDED!!!
REMARK  36 active torsions:
REMARK  status: ('A' for Active; 'I' for Inactive)
REMARK    1  A    between atoms: C6_6  and  N6_7 
REMARK    2  A    between atoms: CCN_19  and  N9_10 
REMARK    3  A    between atoms: CCK_16  and  OAN_12 
REMARK    4  A    between atoms: CCL_17  and  OAO_13 
REMARK    5  A    between atoms: CCC_15  and  CCM_18 
REMARK       I    between atoms: NBR_27  and  CCC_15 
REMARK    6  A    between atoms: CBZ_20  and  CBG_22 
REMARK       I    between atoms: NBS_28  and  CBZ_20 
REMARK    7  A    between atoms: CBG_22  and  CAX_23 
REMARK    8  A    between atoms: CAX_23  and  CAU_24 
REMARK    9  A    between atoms: CAU_24  and  CAW_25 
REMARK   10  A    between atoms: CAW_25  and  CBD_26 
REMARK   11  A    between atoms: CBD_26  and  NBR_27 
REMARK   12  A    between atoms: CCI_29  and  NBS_28 
REMARK   13  A    between atoms: CCB_30  and  CCI_29 
REMARK   14  A    between atoms: CCI_29  and  CBJ_32 
REMARK       I    between atoms: NBQ_44  and  CCB_30 
REMARK   15  A    between atoms: CBJ_32  and  CAZ_33 
REMARK   16  A    between atoms: CAZ_33  and  CAS_34 
REMARK   17  A    between atoms: CAS_34  and  CAR_35 
REMARK   18  A    between atoms: CAR_35  and  NAC_36 
REMARK   19  A    between atoms: CBH_39  and  CCA_37 
REMARK       I    between atoms: CCA_37  and  NBT_45 
REMARK   20  A    between atoms: CAY_40  and  CBH_39 
REMARK   21  A    between atoms: CAT_41  and  CAY_40 
REMARK   22  A    between atoms: CAV_42  and  CAT_41 
REMARK   23  A    between atoms: CBC_43  and  CAV_42 
REMARK   24  A    between atoms: CBC_43  and  NBQ_44 
REMARK   25  A    between atoms: NBT_45  and  CCJ_46 
REMARK   26  A    between atoms: CCJ_46  and  CBK_47 
REMARK   27  A    between atoms: CCJ_46  and  CCD_54 
REMARK   28  A    between atoms: CBK_47  and  CBB_48 
REMARK   29  A    between atoms: CBB_48  and  CBF_49 
REMARK   30  A    between atoms: CBF_49  and  NBP_50 
REMARK       I    between atoms: NBP_50  and  CBX_51 
REMARK       I    between atoms: CBX_51  and  NAB_52 
REMARK       I    between atoms: CBX_51  and  NAE_53 
REMARK       I    between atoms: CCD_54  and  N_56 
REMARK   31  A    between atoms: N_56  and  CA_57 
REMARK   32  A    between atoms: CA_57  and  CB_58 
REMARK   33  A    between atoms: CA_57  and  C_65 
REMARK   34  A    between atoms: CB_58  and  CG_59 
REMARK   35  A    between atoms: CG_59  and  CD_60 
REMARK   36  A    between atoms: CD_60  and  NE_61 
REMARK       I    between atoms: NE_61  and  CZ_62 
REMARK       I    between atoms: CZ_62  and  NH1_63 
REMARK       I    between atoms: C_65  and  NAF_67 
ROOT
ATOM      1  CCB A02 d          16.011   7.132   4.893  0.00  0.00     0.240 C 
ATOM      2  OAK A02 d          14.923   6.685   4.551  0.00  0.00    -0.271 OA
ATOM      3  NBQ A02 d          16.743   7.952   4.140  0.00  0.00    -0.359 N 
ATOM      4  H45 A02 d          17.628   8.264   4.489  0.00  0.00     0.162 HD
ENDROOT
BRANCH   1   5
ATOM      5  CCI A02 d          16.635   6.729   6.251  0.00  0.00     0.089 C 
ATOM      6  H23 A02 d          16.391   5.670   6.415  0.00  0.00     0.087 H 
BRANCH   5   7
ATOM      7  NBS A02 d          16.017   7.501   7.360  0.00  0.00    -0.348 N 
ATOM      8  CBZ A02 d          16.203   8.824   7.492  0.00  0.00     0.218 C 
ATOM      9  OAI A02 d          16.925   9.502   6.751  0.00  0.00    -0.274 OA
ATOM     10  H22 A02 d          15.448   7.021   8.028  0.00  0.00     0.163 HD
BRANCH   8  11
ATOM     11  CBG A02 d          15.483   9.469   8.694  0.00  0.00     0.009 C 
ATOM     12  H11 A02 d          16.121  10.264   9.105  0.00  0.00     0.047 H 
ATOM     13  H12 A02 d          15.315   8.699   9.462  0.00  0.00     0.047 H 
BRANCH  11  14
ATOM     14  CAX A02 d          14.125  10.076   8.291  0.00  0.00    -0.057 C 
ATOM     15  H13 A02 d          13.996   9.977   7.203  0.00  0.00     0.033 H 
ATOM     16  H14 A02 d          14.113  11.142   8.566  0.00  0.00     0.033 H 
BRANCH  14  17
ATOM     17  CAU A02 d          12.966   9.365   8.999  0.00  0.00    -0.063 C 
ATOM     18  H15 A02 d          12.630   8.529   8.368  0.00  0.00     0.033 H 
ATOM     19  H16 A02 d          12.141  10.081   9.129  0.00  0.00     0.033 H 
BRANCH  17  20
ATOM     20  CAW A02 d          13.356   8.815  10.374  0.00  0.00    -0.050 C 
ATOM     21  H17 A02 d          13.892   9.584  10.949  0.00  0.00     0.035 H 
ATOM     22  H18 A02 d          14.000   7.930  10.255  0.00  0.00     0.035 H 
BRANCH  20  23
ATOM     23  CBD A02 d          12.065   8.427  11.098  0.00  0.00    -0.005 C 
ATOM     24  H19 A02 d          11.211   8.671  10.449  0.00  0.00     0.064 H 
ATOM     25  H20 A02 d          11.996   9.007  12.029  0.00  0.00     0.064 H 
BRANCH  23  26
ATOM     26  NBR A02 d          12.009   6.993  11.431  0.00  0.00    -0.359 N 
ATOM     27  CCC A02 d          11.727   6.026  10.557  0.00  0.00     0.249 C 
ATOM     28  OAL A02 d          11.411   6.220   9.374  0.00  0.00    -0.271 OA
ATOM     29  H21 A02 d          12.196   6.726  12.377  0.00  0.00     0.162 HD
BRANCH  27  30
ATOM     30  CCM A02 d          11.810   4.581  11.085  0.00  0.00     0.144 C 
ATOM     31  OBV A02 d          12.166   3.640  10.018  0.00  0.00    -0.346 OA
ATOM     32  CCN A02 d          13.565   3.257  10.167  0.00  0.00     0.140 C 
ATOM     33  CCL A02 d          14.137   4.228  11.219  0.00  0.00     0.105 C 
ATOM     34  H10 A02 d          13.628   2.228  10.549  0.00  0.00     0.123 H 
ATOM     35  CCK A02 d          12.937   4.480  12.113  0.00  0.00     0.098 C 
ATOM     36  H8  A02 d          14.510   5.156  10.759  0.00  0.00     0.093 H 
ATOM     37  H7  A02 d          13.045   5.395  12.715  0.00  0.00     0.091 H 
ATOM     38  H9  A02 d          10.847   4.299  11.536  0.00  0.00     0.102 H 
BRANCH  32  39
ATOM     39  N9  A02 d          14.309   3.315   8.837  0.00  0.00    -0.294 N 
ATOM     40  C4  A02 d          15.591   3.020   8.645  0.00  0.00     0.167 A 
ATOM     41  N3  A02 d          16.573   2.621   9.469  0.00  0.00    -0.222 NA
ATOM     42  C5  A02 d          15.862   3.215   7.298  0.00  0.00     0.149 A 
ATOM     43  C2  A02 d          17.794   2.396   9.000  0.00  0.00     0.091 A 
ATOM     44  N1  A02 d          18.082   2.566   7.702  0.00  0.00    -0.222 NA
ATOM     45  H1  A02 d          18.573   2.068   9.679  0.00  0.00     0.146 H 
ATOM     46  C6  A02 d          17.145   2.978   6.833  0.00  0.00     0.155 A 
ATOM     47  N7  A02 d          14.742   3.615   6.699  0.00  0.00    -0.236 NA
ATOM     48  C8  A02 d          13.798   3.661   7.645  0.00  0.00     0.071 A 
ATOM     49  H4  A02 d          12.759   3.941   7.473  0.00  0.00     0.144 H 
BRANCH  46  50
ATOM     50  N6  A02 d          17.433   3.160   5.548  0.00  0.00    -0.382 N 
ATOM     51  H2  A02 d          17.127   4.018   5.069  0.00  0.00     0.157 HD
ATOM     52  H3  A02 d          17.961   2.442   5.032  0.00  0.00     0.157 HD
ENDBRANCH  46  50
ENDBRANCH  32  39
BRANCH  33  53
ATOM     53  OAO A02 d          15.167   3.598  11.966  0.00  0.00    -0.388 OA
ATOM     54  H6  A02 d          15.174   2.668  11.772  0.00  0.00     0.210 HD
ENDBRANCH  33  53
BRANCH  35  55
ATOM     55  OAN A02 d          12.708   3.334  12.956  0.00  0.00    -0.390 OA
ATOM     56  H5  A02 d          12.603   2.560  12.414  0.00  0.00     0.210 HD
ENDBRANCH  35  55
ENDBRANCH  27  30
ENDBRANCH  23  26
ENDBRANCH  20  23
ENDBRANCH  17  20
ENDBRANCH  14  17
ENDBRANCH  11  14
ENDBRANCH   8  11
ENDBRANCH   5   7
BRANCH   5  57
ATOM     57  CBJ A02 d          18.177   6.839   6.266  0.00  0.00    -0.038 C 
ATOM     58  H24 A02 d          18.441   7.905   6.333  0.00  0.00     0.036 H 
ATOM     59  H25 A02 d          18.555   6.427   5.319  0.00  0.00     0.036 H 
BRANCH  57  60
ATOM     60  CAZ A02 d          18.874   6.105   7.415  0.00  0.00    -0.061 C 
ATOM     61  H26 A02 d          18.398   5.124   7.563  0.00  0.00     0.033 H 
ATOM     62  H27 A02 d          18.781   6.700   8.336  0.00  0.00     0.033 H 
BRANCH  60  63
ATOM     63  CAS A02 d          20.369   5.901   7.089  0.00  0.00    -0.043 C 
ATOM     64  H28 A02 d          20.912   5.672   8.019  0.00  0.00     0.035 H 
ATOM     65  H29 A02 d          20.769   6.826   6.648  0.00  0.00     0.035 H 
BRANCH  63  66
ATOM     66  CAR A02 d          20.568   4.746   6.096  0.00  0.00     0.080 C 
ATOM     67  H30 A02 d          21.320   5.036   5.346  0.00  0.00     0.075 H 
ATOM     68  H31 A02 d          19.613   4.529   5.593  0.00  0.00     0.075 H 
BRANCH  66  69
ATOM     69  NAC A02 d          21.028   3.541   6.809  0.00  0.00    -0.079 N 
ATOM     70  H32 A02 d          21.228   2.812   6.143  0.00  0.00     0.274 HD
ATOM     71  H33 A02 d          20.307   3.230   7.442  0.00  0.00     0.274 HD
ATOM     72  H34 A02 d          21.862   3.758   7.332  0.00  0.00     0.274 HD
ENDBRANCH  66  69
ENDBRANCH  63  66
ENDBRANCH  60  63
ENDBRANCH  57  60
ENDBRANCH   5  57
ENDBRANCH   1   5
BRANCH   3  73
ATOM     73  CBC A02 d          16.298   8.418   2.807  0.00  0.00    -0.005 C 
ATOM     74  H43 A02 d          15.702   7.627   2.328  0.00  0.00     0.064 H 
ATOM     75  H44 A02 d          15.681   9.320   2.927  0.00  0.00     0.064 H 
BRANCH  73  76
ATOM     76  CAV A02 d          17.505   8.746   1.921  0.00  0.00    -0.050 C 
ATOM     77  H41 A02 d          17.840   9.772   2.131  0.00  0.00     0.035 H 
ATOM     78  H42 A02 d          18.320   8.042   2.145  0.00  0.00     0.035 H 
BRANCH  76  79
ATOM     79  CAT A02 d          17.131   8.630   0.438  0.00  0.00    -0.063 C 
ATOM     80  H39 A02 d          16.852   9.625   0.063  0.00  0.00     0.033 H 
ATOM     81  H40 A02 d          18.003   8.258  -0.121  0.00  0.00     0.033 H 
BRANCH  79  82
ATOM     82  CAY A02 d          15.957   7.670   0.220  0.00  0.00    -0.057 C 
ATOM     83  H37 A02 d          16.319   6.636   0.316  0.00  0.00     0.033 H 
ATOM     84  H38 A02 d          15.191   7.865   0.985  0.00  0.00     0.033 H 
BRANCH  82  85
ATOM     85  CBH A02 d          15.326   7.849  -1.172  0.00  0.00     0.009 C 
ATOM     86  H35 A02 d          16.129   7.931  -1.918  0.00  0.00     0.047 H 
ATOM     87  H36 A02 d          14.704   6.970  -1.397  0.00  0.00     0.047 H 
BRANCH  85  88
ATOM     88  CCA A02 d          14.451   9.111  -1.241  0.00  0.00     0.218 C 
ATOM     89  OAJ A02 d          14.403   9.793  -2.270  0.00  0.00    -0.274 OA
ATOM     90  NBT A02 d          13.764   9.384  -0.125  0.00  0.00    -0.348 N 
ATOM     91  H46 A02 d          13.859   8.766   0.655  0.00  0.00     0.163 HD
BRANCH  90  92
ATOM     92  CCJ A02 d          12.867  10.559   0.009  0.00  0.00     0.089 C 
ATOM     93  H47 A02 d          12.425  10.761  -0.976  0.00  0.00     0.087 H 
BRANCH  92  94
ATOM     94  CBK A02 d          13.654  11.823   0.445  0.00  0.00    -0.036 C 
ATOM     95  H48 A02 d          13.067  12.709   0.161  0.00  0.00     0.036 H 
ATOM     96  H49 A02 d          14.615  11.832  -0.090  0.00  0.00     0.036 H 
BRANCH  94  97
ATOM     97  CBB A02 d          13.945  11.904   1.954  0.00  0.00    -0.048 C 
ATOM     98  H50 A02 d          13.700  10.935   2.414  0.00  0.00     0.035 H 
ATOM     99  H51 A02 d          13.312  12.689   2.395  0.00  0.00     0.035 H 
BRANCH  97 100
ATOM    100  CBF A02 d          15.418  12.232   2.247  0.00  0.00     0.009 C 
ATOM    101  H52 A02 d          15.866  12.737   1.379  0.00  0.00     0.064 H 
ATOM    102  H53 A02 d          15.970  11.305   2.458  0.00  0.00     0.064 H 
BRANCH 100 103
ATOM    103  NBP A02 d          15.468  13.122   3.423  0.00  0.00    -0.227 N 
ATOM    104  CBX A02 d          15.600  12.692   4.685  0.00  0.00     0.665 C 
ATOM    105  NAB A02 d          15.713  11.400   4.990  0.00  0.00    -0.235 N 
ATOM    106  NAE A02 d          15.627  13.593   5.662  0.00  0.00    -0.235 N 
ATOM    107  H55 A02 d          15.813  11.110   5.974  0.00  0.00     0.174 HD
ATOM    108  H56 A02 d          15.702  10.692   4.244  0.00  0.00     0.174 HD
ATOM    109  H57 A02 d          15.540  14.596   5.441  0.00  0.00     0.174 HD
ATOM    110  H58 A02 d          15.735  13.290   6.641  0.00  0.00     0.174 HD
ATOM    111  H54 A02 d          15.398  14.137   3.264  0.00  0.00     0.177 HD
ENDBRANCH 100 103
ENDBRANCH  97 100
ENDBRANCH  94  97
ENDBRANCH  92  94
BRANCH  92 112
ATOM    112  CCD A02 d          11.715  10.250   0.996  0.00  0.00     0.241 C 
ATOM    113  OAM A02 d          10.713  10.964   1.042  0.00  0.00    -0.271 OA
ATOM    114  N   A02 d          11.897   9.179   1.771  0.00  0.00    -0.346 N 
ATOM    115  H59 A02 d          12.743   8.657   1.667  0.00  0.00     0.163 HD
BRANCH 114 116
ATOM    116  CA  A02 d          10.912   8.725   2.778  0.00  0.00     0.089 C 
ATOM    117  H60 A02 d           9.948   9.212   2.568  0.00  0.00     0.087 H 
BRANCH 116 118
ATOM    118  CB  A02 d          11.379   9.135   4.180  0.00  0.00    -0.036 C 
ATOM    119  H61 A02 d          12.474   9.241   4.175  0.00  0.00     0.036 H 
ATOM    120  H62 A02 d          11.090   8.352   4.897  0.00  0.00     0.036 H 
BRANCH 118 121
ATOM    121  CG  A02 d          10.752  10.462   4.613  0.00  0.00    -0.048 C 
ATOM    122  H63 A02 d           9.711  10.283   4.921  0.00  0.00     0.035 H 
ATOM    123  H64 A02 d          10.768  11.161   3.764  0.00  0.00     0.035 H 
BRANCH 121 124
ATOM    124  CD  A02 d          11.515  11.080   5.780  0.00  0.00     0.009 C 
ATOM    125  H65 A02 d          12.296  10.388   6.127  0.00  0.00     0.064 H 
ATOM    126  H66 A02 d          10.824  11.299   6.608  0.00  0.00     0.064 H 
BRANCH 124 127
ATOM    127  NE  A02 d          12.123  12.317   5.299  0.00  0.00    -0.227 N 
ATOM    128  CZ  A02 d          11.644  13.542   5.512  0.00  0.00     0.665 C 
ATOM    129  NH1 A02 d          10.551  13.776   6.238  0.00  0.00    -0.235 N 
ATOM    130  NH2 A02 d          12.319  14.551   4.981  0.00  0.00    -0.235 N 
ATOM    131  H68 A02 d          10.220  14.742   6.373  0.00  0.00     0.174 HD
ATOM    132  H69 A02 d          10.037  12.992   6.664  0.00  0.00     0.174 HD
ATOM    133  H70 A02 d          13.163  14.368   4.420  0.00  0.00     0.174 HD
ATOM    134  H71 A02 d          12.000  15.519   5.130  0.00  0.00     0.174 HD
ATOM    135  H67 A02 d          12.993  12.237   4.752  0.00  0.00     0.177 HD
ENDBRANCH 124 127
ENDBRANCH 121 124
ENDBRANCH 118 121
ENDBRANCH 116 118
BRANCH 116 136
ATOM    136  C   A02 d          10.707   7.194   2.719  0.00  0.00     0.238 C 
ATOM    137  O   A02 d           9.591   6.693   2.563  0.00  0.00    -0.271 OA
ATOM    138  NAF A02 d          11.824   6.478   2.828  0.00  0.00    -0.368 N 
ATOM    139  H72 A02 d          11.783   5.479   2.800  0.00  0.00     0.159 HD
ATOM    140  H73 A02 d          12.705   6.939   2.937  0.00  0.00     0.159 HD
ENDBRANCH 116 136
ENDBRANCH 114 116
ENDBRANCH  92 112
ENDBRANCH  90  92
ENDBRANCH  85  88
ENDBRANCH  82  85
ENDBRANCH  79  82
ENDBRANCH  76  79
ENDBRANCH  73  76
ENDBRANCH   3  73
TORSDOF 36
ENDMDL
MODEL 8
REMARK VINA RESULT:      -3.6      3.257      8.264
REMARK WARNING: 32 MAX_TORS EXCEEDED!!!
REMARK  36 active torsions:
REMARK  status: ('A' for Active; 'I' for Inactive)
REMARK    1  A    between atoms: C6_6  and  N6_7 
REMARK    2  A    between atoms: CCN_19  and  N9_10 
REMARK    3  A    between atoms: CCK_16  and  OAN_12 
REMARK    4  A    between atoms: CCL_17  and  OAO_13 
REMARK    5  A    between atoms: CCC_15  and  CCM_18 
REMARK       I    between atoms: NBR_27  and  CCC_15 
REMARK    6  A    between atoms: CBZ_20  and  CBG_22 
REMARK       I    between atoms: NBS_28  and  CBZ_20 
REMARK    7  A    between atoms: CBG_22  and  CAX_23 
REMARK    8  A    between atoms: CAX_23  and  CAU_24 
REMARK    9  A    between atoms: CAU_24  and  CAW_25 
REMARK   10  A    between atoms: CAW_25  and  CBD_26 
REMARK   11  A    between atoms: CBD_26  and  NBR_27 
REMARK   12  A    between atoms: CCI_29  and  NBS_28 
REMARK   13  A    between atoms: CCB_30  and  CCI_29 
REMARK   14  A    between atoms: CCI_29  and  CBJ_32 
REMARK       I    between atoms: NBQ_44  and  CCB_30 
REMARK   15  A    between atoms: CBJ_32  and  CAZ_33 
REMARK   16  A    between atoms: CAZ_33  and  CAS_34 
REMARK   17  A    between atoms: CAS_34  and  CAR_35 
REMARK   18  A    between atoms: CAR_35  and  NAC_36 
REMARK   19  A    between atoms: CBH_39  and  CCA_37 
REMARK       I    between atoms: CCA_37  and  NBT_45 
REMARK   20  A    between atoms: CAY_40  and  CBH_39 
REMARK   21  A    between atoms: CAT_41  and  CAY_40 
REMARK   22  A    between atoms: CAV_42  and  CAT_41 
REMARK   23  A    between atoms: CBC_43  and  CAV_42 
REMARK   24  A    between atoms: CBC_43  and  NBQ_44 
REMARK   25  A    between atoms: NBT_45  and  CCJ_46 
REMARK   26  A    between atoms: CCJ_46  and  CBK_47 
REMARK   27  A    between atoms: CCJ_46  and  CCD_54 
REMARK   28  A    between atoms: CBK_47  and  CBB_48 
REMARK   29  A    between atoms: CBB_48  and  CBF_49 
REMARK   30  A    between atoms: CBF_49  and  NBP_50 
REMARK       I    between atoms: NBP_50  and  CBX_51 
REMARK       I    between atoms: CBX_51  and  NAB_52 
REMARK       I    between atoms: CBX_51  and  NAE_53 
REMARK       I    between atoms: CCD_54  and  N_56 
REMARK   31  A    between atoms: N_56  and  CA_57 
REMARK   32  A    between atoms: CA_57  and  CB_58 
REMARK   33  A    between atoms: CA_57  and  C_65 
REMARK   34  A    between atoms: CB_58  and  CG_59 
REMARK   35  A    between atoms: CG_59  and  CD_60 
REMARK   36  A    between atoms: CD_60  and  NE_61 
REMARK       I    between atoms: NE_61  and  CZ_62 
REMARK       I    between atoms: CZ_62  and  NH1_63 
REMARK       I    between atoms: C_65  and  NAF_67 
ROOT
ATOM      1  CCB A02 d          11.357   6.853   8.450  0.00  0.00     0.240 C 
ATOM      2  OAK A02 d          11.890   7.305   7.444  0.00  0.00    -0.271 OA
ATOM      3  NBQ A02 d          10.038   6.812   8.634  0.00  0.00    -0.359 N 
ATOM      4  H45 A02 d           9.683   6.436   9.490  0.00  0.00     0.162 HD
ENDROOT
BRANCH   1   5
ATOM      5  CCI A02 d          12.215   6.314   9.620  0.00  0.00     0.089 C 
ATOM      6  H23 A02 d          13.032   7.034   9.776  0.00  0.00     0.087 H 
BRANCH   5   7
ATOM      7  NBS A02 d          12.836   5.014   9.260  0.00  0.00    -0.348 N 
ATOM      8  CBZ A02 d          12.097   3.956   8.887  0.00  0.00     0.218 C 
ATOM      9  OAI A02 d          10.861   3.948   8.855  0.00  0.00    -0.274 OA
ATOM     10  H22 A02 d          13.831   4.923   9.295  0.00  0.00     0.163 HD
BRANCH   8  11
ATOM     11  CBG A02 d          12.902   2.687   8.539  0.00  0.00     0.009 C 
ATOM     12  H11 A02 d          12.424   2.185   7.686  0.00  0.00     0.047 H 
ATOM     13  H12 A02 d          12.899   2.014   9.409  0.00  0.00     0.047 H 
BRANCH  11  14
ATOM     14  CAX A02 d          14.362   3.016   8.169  0.00  0.00    -0.057 C 
ATOM     15  H13 A02 d          14.475   4.108   8.091  0.00  0.00     0.033 H 
ATOM     16  H14 A02 d          14.600   2.553   7.199  0.00  0.00     0.033 H 
BRANCH  14  17
ATOM     17  CAU A02 d          15.336   2.487   9.228  0.00  0.00    -0.063 C 
ATOM     18  H15 A02 d          14.770   1.891   9.959  0.00  0.00     0.033 H 
ATOM     19  H16 A02 d          15.801   3.345   9.736  0.00  0.00     0.033 H 
BRANCH  17  20
ATOM     20  CAW A02 d          16.443   1.612   8.634  0.00  0.00    -0.050 C 
ATOM     21  H17 A02 d          16.307   1.521   7.546  0.00  0.00     0.035 H 
ATOM     22  H18 A02 d          16.417   0.611   9.091  0.00  0.00     0.035 H 
BRANCH  20  23
ATOM     23  CBD A02 d          17.781   2.291   8.938  0.00  0.00    -0.005 C 
ATOM     24  H19 A02 d          18.501   1.522   9.254  0.00  0.00     0.064 H 
ATOM     25  H20 A02 d          17.631   3.012   9.755  0.00  0.00     0.064 H 
BRANCH  23  26
ATOM     26  NBR A02 d          18.333   3.005   7.774  0.00  0.00    -0.359 N 
ATOM     27  CCC A02 d          19.516   3.620   7.758  0.00  0.00     0.249 C 
ATOM     28  OAL A02 d          20.266   3.723   8.740  0.00  0.00    -0.271 OA
ATOM     29  H21 A02 d          17.783   3.031   6.939  0.00  0.00     0.162 HD
BRANCH  27  30
ATOM     30  CCM A02 d          19.952   4.230   6.413  0.00  0.00     0.144 C 
ATOM     31  OBV A02 d          18.821   4.349   5.486  0.00  0.00    -0.346 OA
ATOM     32  CCN A02 d          18.399   5.743   5.426  0.00  0.00     0.140 C 
ATOM     33  CCL A02 d          19.149   6.439   6.579  0.00  0.00     0.105 C 
ATOM     34  H10 A02 d          18.714   6.184   4.469  0.00  0.00     0.123 H 
ATOM     35  CCK A02 d          20.448   5.658   6.640  0.00  0.00     0.098 C 
ATOM     36  H8  A02 d          18.589   6.382   7.525  0.00  0.00     0.093 H 
ATOM     37  H7  A02 d          20.967   5.778   7.602  0.00  0.00     0.091 H 
ATOM     38  H9  A02 d          20.745   3.610   5.968  0.00  0.00     0.102 H 
BRANCH  32  39
ATOM     39  N9  A02 d          16.884   5.878   5.534  0.00  0.00    -0.294 N 
ATOM     40  C4  A02 d          16.028   5.910   4.519  0.00  0.00     0.167 A 
ATOM     41  N3  A02 d          16.182   5.850   3.187  0.00  0.00    -0.222 NA
ATOM     42  C5  A02 d          14.755   6.052   5.056  0.00  0.00     0.149 A 
ATOM     43  C2  A02 d          15.128   5.909   2.384  0.00  0.00     0.091 A 
ATOM     44  N1  A02 d          13.887   6.037   2.875  0.00  0.00    -0.222 NA
ATOM     45  H1  A02 d          15.272   5.854   1.311  0.00  0.00     0.146 H 
ATOM     46  C6  A02 d          13.671   6.117   4.197  0.00  0.00     0.155 A 
ATOM     47  N7  A02 d          14.863   6.096   6.382  0.00  0.00    -0.236 NA
ATOM     48  C8  A02 d          16.166   5.977   6.664  0.00  0.00     0.071 A 
ATOM     49  H4  A02 d          16.584   5.962   7.669  0.00  0.00     0.144 H 
BRANCH  46  50
ATOM     50  N6  A02 d          12.442   6.257   4.684  0.00  0.00    -0.382 N 
ATOM     51  H2  A02 d          12.273   6.887   5.481  0.00  0.00     0.157 HD
ATOM     52  H3  A02 d          11.659   5.734   4.266  0.00  0.00     0.157 HD
ENDBRANCH  46  50
ENDBRANCH  32  39
BRANCH  33  53
ATOM     53  OAO A02 d          19.420   7.793   6.247  0.00  0.00    -0.388 OA
ATOM     54  H6  A02 d          19.651   8.271   7.035  0.00  0.00     0.210 HD
ENDBRANCH  33  53
BRANCH  35  55
ATOM     55  OAN A02 d          21.300   6.043   5.543  0.00  0.00    -0.390 OA
ATOM     56  H5  A02 d          20.779   6.127   4.753  0.00  0.00     0.210 HD
ENDBRANCH  35  55
ENDBRANCH  27  30
ENDBRANCH  23  26
ENDBRANCH  20  23
ENDBRANCH  17  20
ENDBRANCH  14  17
ENDBRANCH  11  14
ENDBRANCH   8  11
ENDBRANCH   5   7
BRANCH   5  57
ATOM     57  CBJ A02 d          11.437   6.228  10.953  0.00  0.00    -0.038 C 
ATOM     58  H24 A02 d          11.274   5.165  11.182  0.00  0.00     0.036 H 
ATOM     59  H25 A02 d          10.467   6.726  10.812  0.00  0.00     0.036 H 
BRANCH  57  60
ATOM     60  CAZ A02 d          12.130   6.872  12.158  0.00  0.00    -0.061 C 
ATOM     61  H26 A02 d          12.183   7.960  12.008  0.00  0.00     0.033 H 
ATOM     62  H27 A02 d          13.147   6.465  12.253  0.00  0.00     0.033 H 
BRANCH  60  63
ATOM     63  CAS A02 d          11.339   6.573  13.450  0.00  0.00    -0.043 C 
ATOM     64  H28 A02 d          10.372   7.096  13.407  0.00  0.00     0.035 H 
ATOM     65  H29 A02 d          11.915   6.935  14.315  0.00  0.00     0.035 H 
BRANCH  63  66
ATOM     66  CAR A02 d          11.087   5.066  13.610  0.00  0.00     0.080 C 
ATOM     67  H30 A02 d          11.836   4.643  14.296  0.00  0.00     0.075 H 
ATOM     68  H31 A02 d          11.170   4.576  12.628  0.00  0.00     0.075 H 
BRANCH  66  69
ATOM     69  NAC A02 d           9.738   4.836  14.157  0.00  0.00    -0.079 N 
ATOM     70  H32 A02 d           9.329   4.028  13.715  0.00  0.00     0.274 HD
ATOM     71  H33 A02 d           9.161   5.644  13.980  0.00  0.00     0.274 HD
ATOM     72  H34 A02 d           9.801   4.680  15.151  0.00  0.00     0.274 HD
ENDBRANCH  66  69
ENDBRANCH  63  66
ENDBRANCH  60  63
ENDBRANCH  57  60
ENDBRANCH   5  57
ENDBRANCH   1   5
BRANCH   3  73
ATOM     73  CBC A02 d           9.078   7.304   7.619  0.00  0.00    -0.005 C 
ATOM     74  H43 A02 d           9.515   7.178   6.617  0.00  0.00     0.064 H 
ATOM     75  H44 A02 d           8.148   6.722   7.689  0.00  0.00     0.064 H 
BRANCH  73  76
ATOM     76  CAV A02 d           8.764   8.787   7.849  0.00  0.00    -0.050 C 
ATOM     77  H41 A02 d           7.766   8.879   8.302  0.00  0.00     0.035 H 
ATOM     78  H42 A02 d           9.516   9.214   8.529  0.00  0.00     0.035 H 
BRANCH  76  79
ATOM     79  CAT A02 d           8.790   9.554   6.522  0.00  0.00    -0.063 C 
ATOM     80  H39 A02 d           8.628   8.844   5.698  0.00  0.00     0.033 H 
ATOM     81  H40 A02 d           7.982  10.301   6.527  0.00  0.00     0.033 H 
BRANCH  79  82
ATOM     82  CAY A02 d          10.126  10.271   6.303  0.00  0.00    -0.057 C 
ATOM     83  H37 A02 d           9.928  11.321   6.040  0.00  0.00     0.033 H 
ATOM     84  H38 A02 d          10.708  10.230   7.235  0.00  0.00     0.033 H 
BRANCH  82  85
ATOM     85  CBH A02 d          10.943   9.620   5.175  0.00  0.00     0.009 C 
ATOM     86  H35 A02 d          11.218   8.599   5.477  0.00  0.00     0.047 H 
ATOM     87  H36 A02 d          10.326   9.580   4.265  0.00  0.00     0.047 H 
BRANCH  85  88
ATOM     88  CCA A02 d          12.226  10.412   4.872  0.00  0.00     0.218 C 
ATOM     89  OAJ A02 d          12.965  10.088   3.937  0.00  0.00    -0.274 OA
ATOM     90  NBT A02 d          12.451  11.453   5.683  0.00  0.00    -0.348 N 
ATOM     91  H46 A02 d          11.789  11.644   6.408  0.00  0.00     0.163 HD
BRANCH  90  92
ATOM     92  CCJ A02 d          13.636  12.338   5.559  0.00  0.00     0.089 C 
ATOM     93  H47 A02 d          13.558  13.118   6.330  0.00  0.00     0.087 H 
BRANCH  92  94
ATOM     94  CBK A02 d          13.674  13.040   4.175  0.00  0.00    -0.036 C 
ATOM     95  H48 A02 d          12.710  13.546   4.020  0.00  0.00     0.036 H 
ATOM     96  H49 A02 d          13.813  12.271   3.403  0.00  0.00     0.036 H 
BRANCH  94  97
ATOM     97  CBB A02 d          14.794  14.084   4.021  0.00  0.00    -0.048 C 
ATOM     98  H50 A02 d          14.701  14.560   3.034  0.00  0.00     0.035 H 
ATOM     99  H51 A02 d          15.766  13.572   4.091  0.00  0.00     0.035 H 
BRANCH  97 100
ATOM    100  CBF A02 d          14.729  15.172   5.104  0.00  0.00     0.009 C 
ATOM    101  H52 A02 d          15.576  15.058   5.797  0.00  0.00     0.064 H 
ATOM    102  H53 A02 d          13.785  15.086   5.662  0.00  0.00     0.064 H 
BRANCH 100 103
ATOM    103  NBP A02 d          14.800  16.489   4.442  0.00  0.00    -0.227 N 
ATOM    104  CBX A02 d          15.567  17.502   4.865  0.00  0.00     0.665 C 
ATOM    105  NAB A02 d          16.358  17.401   5.932  0.00  0.00    -0.235 N 
ATOM    106  NAE A02 d          15.541  18.645   4.185  0.00  0.00    -0.235 N 
ATOM    107  H55 A02 d          16.933  18.204   6.226  0.00  0.00     0.174 HD
ATOM    108  H56 A02 d          16.395  16.520   6.464  0.00  0.00     0.174 HD
ATOM    109  H57 A02 d          14.934  18.738   3.358  0.00  0.00     0.174 HD
ATOM    110  H58 A02 d          16.127  19.437   4.485  0.00  0.00     0.174 HD
ATOM    111  H54 A02 d          14.224  16.638   3.602  0.00  0.00     0.177 HD
ENDBRANCH 100 103
ENDBRANCH  97 100
ENDBRANCH  94  97
ENDBRANCH  92  94
BRANCH  92 112
ATOM    112  CCD A02 d          14.937  11.540   5.817  0.00  0.00     0.241 C 
ATOM    113  OAM A02 d          15.254  11.196   6.955  0.00  0.00    -0.271 OA
ATOM    114  N   A02 d          15.667  11.270   4.732  0.00  0.00    -0.346 N 
ATOM    115  H59 A02 d          15.333  11.590   3.845  0.00  0.00     0.163 HD
BRANCH 114 116
ATOM    116  CA  A02 d          16.943  10.522   4.773  0.00  0.00     0.089 C 
ATOM    117  H60 A02 d          17.045  10.061   5.766  0.00  0.00     0.087 H 
BRANCH 116 118
ATOM    118  CB  A02 d          18.115  11.487   4.553  0.00  0.00    -0.036 C 
ATOM    119  H61 A02 d          19.050  10.910   4.511  0.00  0.00     0.036 H 
ATOM    120  H62 A02 d          18.158  12.195   5.394  0.00  0.00     0.036 H 
BRANCH 118 121
ATOM    121  CG  A02 d          17.956  12.272   3.250  0.00  0.00    -0.048 C 
ATOM    122  H63 A02 d          17.373  13.184   3.449  0.00  0.00     0.035 H 
ATOM    123  H64 A02 d          17.422  11.648   2.518  0.00  0.00     0.035 H 
BRANCH 121 124
ATOM    124  CD  A02 d          19.311  12.666   2.671  0.00  0.00     0.009 C 
ATOM    125  H65 A02 d          19.782  13.431   3.305  0.00  0.00     0.064 H 
ATOM    126  H66 A02 d          19.184  13.061   1.652  0.00  0.00     0.064 H 
BRANCH 124 127
ATOM    127  NE  A02 d          20.140  11.465   2.641  0.00  0.00    -0.227 N 
ATOM    128  CZ  A02 d          21.445  11.440   2.372  0.00  0.00     0.665 C 
ATOM    129  NH1 A02 d          22.158  12.540   2.134  0.00  0.00    -0.235 N 
ATOM    130  NH2 A02 d          22.033  10.252   2.369  0.00  0.00    -0.235 N 
ATOM    131  H68 A02 d          23.165  12.467   1.931  0.00  0.00     0.174 HD
ATOM    132  H69 A02 d          21.702  13.464   2.154  0.00  0.00     0.174 HD
ATOM    133  H70 A02 d          21.481   9.402   2.553  0.00  0.00     0.174 HD
ATOM    134  H71 A02 d          23.044  10.178   2.183  0.00  0.00     0.174 HD
ATOM    135  H67 A02 d          19.680  10.566   2.844  0.00  0.00     0.177 HD
ENDBRANCH 124 127
ENDBRANCH 121 124
ENDBRANCH 118 121
ENDBRANCH 116 118
BRANCH 116 136
ATOM    136  C   A02 d          16.978   9.402   3.709  0.00  0.00     0.238 C 
ATOM    137  O   A02 d          16.027   9.195   2.952  0.00  0.00    -0.271 OA
ATOM    138  NAF A02 d          18.113   8.707   3.667  0.00  0.00    -0.368 N 
ATOM    139  H72 A02 d          18.221   7.964   3.007  0.00  0.00     0.159 HD
ATOM    140  H73 A02 d          18.859   8.930   4.296  0.00  0.00     0.159 HD
ENDBRANCH 116 136
ENDBRANCH 114 116
ENDBRANCH  92 112
ENDBRANCH  90  92
ENDBRANCH  85  88
ENDBRANCH  82  85
ENDBRANCH  79  82
ENDBRANCH  76  79
ENDBRANCH  73  76
ENDBRANCH   3  73
TORSDOF 36
ENDMDL
MODEL 9
REMARK VINA RESULT:      -3.6      3.947      8.373
REMARK WARNING: 32 MAX_TORS EXCEEDED!!!
REMARK  36 active torsions:
REMARK  status: ('A' for Active; 'I' for Inactive)
REMARK    1  A    between atoms: C6_6  and  N6_7 
REMARK    2  A    between atoms: CCN_19  and  N9_10 
REMARK    3  A    between atoms: CCK_16  and  OAN_12 
REMARK    4  A    between atoms: CCL_17  and  OAO_13 
REMARK    5  A    between atoms: CCC_15  and  CCM_18 
REMARK       I    between atoms: NBR_27  and  CCC_15 
REMARK    6  A    between atoms: CBZ_20  and  CBG_22 
REMARK       I    between atoms: NBS_28  and  CBZ_20 
REMARK    7  A    between atoms: CBG_22  and  CAX_23 
REMARK    8  A    between atoms: CAX_23  and  CAU_24 
REMARK    9  A    between atoms: CAU_24  and  CAW_25 
REMARK   10  A    between atoms: CAW_25  and  CBD_26 
REMARK   11  A    between atoms: CBD_26  and  NBR_27 
REMARK   12  A    between atoms: CCI_29  and  NBS_28 
REMARK   13  A    between atoms: CCB_30  and  CCI_29 
REMARK   14  A    between atoms: CCI_29  and  CBJ_32 
REMARK       I    between atoms: NBQ_44  and  CCB_30 
REMARK   15  A    between atoms: CBJ_32  and  CAZ_33 
REMARK   16  A    between atoms: CAZ_33  and  CAS_34 
REMARK   17  A    between atoms: CAS_34  and  CAR_35 
REMARK   18  A    between atoms: CAR_35  and  NAC_36 
REMARK   19  A    between atoms: CBH_39  and  CCA_37 
REMARK       I    between atoms: CCA_37  and  NBT_45 
REMARK   20  A    between atoms: CAY_40  and  CBH_39 
REMARK   21  A    between atoms: CAT_41  and  CAY_40 
REMARK   22  A    between atoms: CAV_42  and  CAT_41 
REMARK   23  A    between atoms: CBC_43  and  CAV_42 
REMARK   24  A    between atoms: CBC_43  and  NBQ_44 
REMARK   25  A    between atoms: NBT_45  and  CCJ_46 
REMARK   26  A    between atoms: CCJ_46  and  CBK_47 
REMARK   27  A    between atoms: CCJ_46  and  CCD_54 
REMARK   28  A    between atoms: CBK_47  and  CBB_48 
REMARK   29  A    between atoms: CBB_48  and  CBF_49 
REMARK   30  A    between atoms: CBF_49  and  NBP_50 
REMARK       I    between atoms: NBP_50  and  CBX_51 
REMARK       I    between atoms: CBX_51  and  NAB_52 
REMARK       I    between atoms: CBX_51  and  NAE_53 
REMARK       I    between atoms: CCD_54  and  N_56 
REMARK   31  A    between atoms: N_56  and  CA_57 
REMARK   32  A    between atoms: CA_57  and  CB_58 
REMARK   33  A    between atoms: CA_57  and  C_65 
REMARK   34  A    between atoms: CB_58  and  CG_59 
REMARK   35  A    between atoms: CG_59  and  CD_60 
REMARK   36  A    between atoms: CD_60  and  NE_61 
REMARK       I    between atoms: NE_61  and  CZ_62 
REMARK       I    between atoms: CZ_62  and  NH1_63 
REMARK       I    between atoms: C_65  and  NAF_67 
ROOT
ATOM      1  CCB A02 d          12.603   7.652   8.352  0.00  0.00     0.240 C 
ATOM      2  OAK A02 d          12.690   7.828   9.561  0.00  0.00    -0.271 OA
ATOM      3  NBQ A02 d          13.626   7.787   7.509  0.00  0.00    -0.359 N 
ATOM      4  H45 A02 d          13.468   7.635   6.532  0.00  0.00     0.162 HD
ENDROOT
BRANCH   1   5
ATOM      5  CCI A02 d          11.245   7.284   7.706  0.00  0.00     0.089 C 
ATOM      6  H23 A02 d          10.606   8.177   7.771  0.00  0.00     0.087 H 
BRANCH   5   7
ATOM      7  NBS A02 d          10.574   6.206   8.477  0.00  0.00    -0.348 N 
ATOM      8  CBZ A02 d           9.617   6.472   9.381  0.00  0.00     0.218 C 
ATOM      9  OAI A02 d           9.245   7.612   9.685  0.00  0.00    -0.274 OA
ATOM     10  H22 A02 d          10.842   5.256   8.319  0.00  0.00     0.163 HD
BRANCH   8  11
ATOM     11  CBG A02 d           9.020   5.236  10.085  0.00  0.00     0.009 C 
ATOM     12  H11 A02 d           8.508   4.613   9.337  0.00  0.00     0.047 H 
ATOM     13  H12 A02 d           8.295   5.573  10.841  0.00  0.00     0.047 H 
BRANCH  11  14
ATOM     14  CAX A02 d          10.107   4.390  10.778  0.00  0.00    -0.057 C 
ATOM     15  H13 A02 d          11.041   4.464  10.201  0.00  0.00     0.033 H 
ATOM     16  H14 A02 d           9.778   3.340  10.810  0.00  0.00     0.033 H 
BRANCH  14  17
ATOM     17  CAU A02 d          10.362   4.878  12.208  0.00  0.00    -0.063 C 
ATOM     18  H15 A02 d          10.700   4.024  12.815  0.00  0.00     0.033 H 
ATOM     19  H16 A02 d           9.420   5.269  12.620  0.00  0.00     0.033 H 
BRANCH  17  20
ATOM     20  CAW A02 d          11.422   5.980  12.282  0.00  0.00    -0.050 C 
ATOM     21  H17 A02 d          11.430   6.428  13.286  0.00  0.00     0.035 H 
ATOM     22  H18 A02 d          11.207   6.758  11.534  0.00  0.00     0.035 H 
BRANCH  20  23
ATOM     23  CBD A02 d          12.779   5.334  11.988  0.00  0.00    -0.005 C 
ATOM     24  H19 A02 d          12.809   4.346  12.469  0.00  0.00     0.064 H 
ATOM     25  H20 A02 d          13.570   5.971  12.409  0.00  0.00     0.064 H 
BRANCH  23  26
ATOM     26  NBR A02 d          13.027   5.166  10.546  0.00  0.00    -0.359 N 
ATOM     27  CCC A02 d          13.995   4.406  10.031  0.00  0.00     0.249 C 
ATOM     28  OAL A02 d          14.846   3.805  10.703  0.00  0.00    -0.271 OA
ATOM     29  H21 A02 d          12.429   5.653   9.910  0.00  0.00     0.162 HD
BRANCH  27  30
ATOM     30  CCM A02 d          14.030   4.290   8.496  0.00  0.00     0.144 C 
ATOM     31  OBV A02 d          15.402   4.368   7.983  0.00  0.00    -0.346 OA
ATOM     32  CCN A02 d          15.846   3.031   7.607  0.00  0.00     0.140 C 
ATOM     33  CCL A02 d          14.778   2.078   8.176  0.00  0.00     0.105 C 
ATOM     34  H10 A02 d          15.867   2.943   6.511  0.00  0.00     0.123 H 
ATOM     35  CCK A02 d          13.513   2.912   8.079  0.00  0.00     0.098 C 
ATOM     36  H8  A02 d          15.000   1.786   9.214  0.00  0.00     0.093 H 
ATOM     37  H7  A02 d          12.714   2.543   8.737  0.00  0.00     0.091 H 
ATOM     38  H9  A02 d          13.412   5.085   8.053  0.00  0.00     0.102 H 
BRANCH  32  39
ATOM     39  N9  A02 d          17.247   2.736   8.132  0.00  0.00    -0.294 N 
ATOM     40  C4  A02 d          18.374   3.306   7.716  0.00  0.00     0.167 A 
ATOM     41  N3  A02 d          18.643   4.233   6.784  0.00  0.00    -0.222 NA
ATOM     42  C5  A02 d          19.413   2.744   8.446  0.00  0.00     0.149 A 
ATOM     43  C2  A02 d          19.891   4.627   6.568  0.00  0.00     0.091 A 
ATOM     44  N1  A02 d          20.913   4.109   7.263  0.00  0.00    -0.222 NA
ATOM     45  H1  A02 d          20.088   5.381   5.814  0.00  0.00     0.146 H 
ATOM     46  C6  A02 d          20.708   3.168   8.199  0.00  0.00     0.155 A 
ATOM     47  N7  A02 d          18.898   1.854   9.292  0.00  0.00    -0.236 NA
ATOM     48  C8  A02 d          17.575   1.866   9.100  0.00  0.00     0.071 A 
ATOM     49  H4  A02 d          16.862   1.254   9.652  0.00  0.00     0.144 H 
BRANCH  46  50
ATOM     50  N6  A02 d          21.723   2.645   8.879  0.00  0.00    -0.382 N 
ATOM     51  H2  A02 d          21.679   1.667   9.197  0.00  0.00     0.157 HD
ATOM     52  H3  A02 d          22.552   3.218   9.089  0.00  0.00     0.157 HD
ENDBRANCH  46  50
ENDBRANCH  32  39
BRANCH  33  53
ATOM     53  OAO A02 d          14.654   0.926   7.355  0.00  0.00    -0.388 OA
ATOM     54  H6  A02 d          14.163   0.258   7.820  0.00  0.00     0.210 HD
ENDBRANCH  33  53
BRANCH  35  55
ATOM     55  OAN A02 d          13.069   2.967   6.710  0.00  0.00    -0.390 OA
ATOM     56  H5  A02 d          13.815   2.854   6.132  0.00  0.00     0.210 HD
ENDBRANCH  35  55
ENDBRANCH  27  30
ENDBRANCH  23  26
ENDBRANCH  20  23
ENDBRANCH  17  20
ENDBRANCH  14  17
ENDBRANCH  11  14
ENDBRANCH   8  11
ENDBRANCH   5   7
BRANCH   5  57
ATOM     57  CBJ A02 d          11.362   6.928   6.207  0.00  0.00    -0.038 C 
ATOM     58  H24 A02 d          11.297   5.834   6.112  0.00  0.00     0.036 H 
ATOM     59  H25 A02 d          12.347   7.268   5.854  0.00  0.00     0.036 H 
BRANCH  57  60
ATOM     60  CAZ A02 d          10.294   7.547   5.301  0.00  0.00    -0.061 C 
ATOM     61  H26 A02 d           9.502   7.990   5.923  0.00  0.00     0.033 H 
ATOM     62  H27 A02 d           9.862   6.764   4.660  0.00  0.00     0.033 H 
BRANCH  60  63
ATOM     63  CAS A02 d          10.918   8.644   4.413  0.00  0.00    -0.043 C 
ATOM     64  H28 A02 d          12.004   8.672   4.587  0.00  0.00     0.035 H 
ATOM     65  H29 A02 d          10.478   9.616   4.681  0.00  0.00     0.035 H 
BRANCH  63  66
ATOM     66  CAR A02 d          10.656   8.370   2.924  0.00  0.00     0.080 C 
ATOM     67  H30 A02 d          11.547   8.647   2.341  0.00  0.00     0.075 H 
ATOM     68  H31 A02 d           9.796   8.968   2.589  0.00  0.00     0.075 H 
BRANCH  66  69
ATOM     69  NAC A02 d          10.364   6.939   2.720  0.00  0.00    -0.079 N 
ATOM     70  H32 A02 d           9.971   6.805   1.801  0.00  0.00     0.274 HD
ATOM     71  H33 A02 d           9.705   6.628   3.417  0.00  0.00     0.274 HD
ATOM     72  H34 A02 d          11.217   6.408   2.802  0.00  0.00     0.274 HD
ENDBRANCH  66  69
ENDBRANCH  63  66
ENDBRANCH  60  63
ENDBRANCH  57  60
ENDBRANCH   5  57
ENDBRANCH   1   5
BRANCH   3  73
ATOM     73  CBC A02 d          14.987   8.152   7.962  0.00  0.00    -0.005 C 
ATOM     74  H43 A02 d          15.021   8.128   9.062  0.00  0.00     0.064 H 
ATOM     75  H44 A02 d          15.710   7.429   7.557  0.00  0.00     0.064 H 
BRANCH  73  76
ATOM     76  CAV A02 d          15.356   9.559   7.478  0.00  0.00    -0.050 C 
ATOM     77  H41 A02 d          15.297  10.260   8.324  0.00  0.00     0.035 H 
ATOM     78  H42 A02 d          16.382   9.548   7.083  0.00  0.00     0.035 H 
BRANCH  76  79
ATOM     79  CAT A02 d          14.394  10.018   6.375  0.00  0.00    -0.063 C 
ATOM     80  H39 A02 d          14.975  10.495   5.573  0.00  0.00     0.033 H 
ATOM     81  H40 A02 d          13.868   9.138   5.974  0.00  0.00     0.033 H 
BRANCH  79  82
ATOM     82  CAY A02 d          13.359  11.018   6.900  0.00  0.00    -0.057 C 
ATOM     83  H37 A02 d          12.580  10.468   7.451  0.00  0.00     0.033 H 
ATOM     84  H38 A02 d          13.859  11.724   7.579  0.00  0.00     0.033 H 
BRANCH  82  85
ATOM     85  CBH A02 d          12.698  11.806   5.757  0.00  0.00     0.009 C 
ATOM     86  H35 A02 d          12.992  11.357   4.798  0.00  0.00     0.047 H 
ATOM     87  H36 A02 d          11.605  11.749   5.870  0.00  0.00     0.047 H 
BRANCH  85  88
ATOM     88  CCA A02 d          13.123  13.284   5.766  0.00  0.00     0.218 C 
ATOM     89  OAJ A02 d          12.584  14.093   6.527  0.00  0.00    -0.274 OA
ATOM     90  NBT A02 d          14.104  13.594   4.910  0.00  0.00    -0.348 N 
ATOM     91  H46 A02 d          14.487  12.867   4.340  0.00  0.00     0.163 HD
BRANCH  90  92
ATOM     92  CCJ A02 d          14.651  14.966   4.764  0.00  0.00     0.089 C 
ATOM     93  H47 A02 d          14.368  15.540   5.658  0.00  0.00     0.087 H 
BRANCH  92  94
ATOM     94  CBK A02 d          14.049  15.686   3.528  0.00  0.00    -0.036 C 
ATOM     95  H48 A02 d          14.123  15.008   2.665  0.00  0.00     0.036 H 
ATOM     96  H49 A02 d          14.642  16.591   3.335  0.00  0.00     0.036 H 
BRANCH  94  97
ATOM     97  CBB A02 d          12.576  16.101   3.687  0.00  0.00    -0.048 C 
ATOM     98  H50 A02 d          12.306  16.046   4.752  0.00  0.00     0.035 H 
ATOM     99  H51 A02 d          11.949  15.404   3.112  0.00  0.00     0.035 H 
BRANCH  97 100
ATOM    100  CBF A02 d          12.316  17.531   3.185  0.00  0.00     0.009 C 
ATOM    101  H52 A02 d          13.170  17.874   2.582  0.00  0.00     0.064 H 
ATOM    102  H53 A02 d          12.178  18.206   4.041  0.00  0.00     0.064 H 
BRANCH 100 103
ATOM    103  NBP A02 d          11.095  17.515   2.358  0.00  0.00    -0.227 N 
ATOM    104  CBX A02 d          10.021  18.282   2.590  0.00  0.00     0.665 C 
ATOM    105  NAB A02 d           9.970  19.151   3.599  0.00  0.00    -0.235 N 
ATOM    106  NAE A02 d           8.976  18.174   1.775  0.00  0.00    -0.235 N 
ATOM    107  H55 A02 d           9.125  19.723   3.744  0.00  0.00     0.174 HD
ATOM    108  H56 A02 d          10.775  19.252   4.234  0.00  0.00     0.174 HD
ATOM    109  H57 A02 d           9.001  17.507   0.991  0.00  0.00     0.174 HD
ATOM    110  H58 A02 d           8.141  18.758   1.927  0.00  0.00     0.174 HD
ATOM    111  H54 A02 d          11.066  16.876   1.551  0.00  0.00     0.177 HD
ENDBRANCH 100 103
ENDBRANCH  97 100
ENDBRANCH  94  97
ENDBRANCH  92  94
BRANCH  92 112
ATOM    112  CCD A02 d          16.197  14.928   4.691  0.00  0.00     0.241 C 
ATOM    113  OAM A02 d          16.859  15.965   4.741  0.00  0.00    -0.271 OA
ATOM    114  N   A02 d          16.734  13.712   4.569  0.00  0.00    -0.346 N 
ATOM    115  H59 A02 d          16.119  12.923   4.536  0.00  0.00     0.163 HD
BRANCH 114 116
ATOM    116  CA  A02 d          18.191  13.470   4.481  0.00  0.00     0.089 C 
ATOM    117  H60 A02 d          18.660  13.815   5.414  0.00  0.00     0.087 H 
BRANCH 116 118
ATOM    118  CB  A02 d          18.777  14.267   3.309  0.00  0.00    -0.036 C 
ATOM    119  H61 A02 d          18.133  15.136   3.110  0.00  0.00     0.036 H 
ATOM    120  H62 A02 d          18.808  13.623   2.417  0.00  0.00     0.036 H 
BRANCH 118 121
ATOM    121  CG  A02 d          20.193  14.757   3.617  0.00  0.00    -0.048 C 
ATOM    122  H63 A02 d          20.917  14.005   3.269  0.00  0.00     0.035 H 
ATOM    123  H64 A02 d          20.298  14.890   4.704  0.00  0.00     0.035 H 
BRANCH 121 124
ATOM    124  CD  A02 d          20.483  16.084   2.924  0.00  0.00     0.009 C 
ATOM    125  H65 A02 d          20.496  15.944   1.834  0.00  0.00     0.064 H 
ATOM    126  H66 A02 d          21.457  16.476   3.255  0.00  0.00     0.064 H 
BRANCH 124 127
ATOM    127  NE  A02 d          19.420  17.013   3.295  0.00  0.00    -0.227 N 
ATOM    128  CZ  A02 d          19.071  18.096   2.601  0.00  0.00     0.665 C 
ATOM    129  NH1 A02 d          19.643  18.433   1.445  0.00  0.00    -0.235 N 
ATOM    130  NH2 A02 d          18.092  18.838   3.100  0.00  0.00    -0.235 N 
ATOM    131  H68 A02 d          19.336  19.280   0.947  0.00  0.00     0.174 HD
ATOM    132  H69 A02 d          20.391  17.845   1.051  0.00  0.00     0.174 HD
ATOM    133  H70 A02 d          17.651  18.576   3.993  0.00  0.00     0.174 HD
ATOM    134  H71 A02 d          17.772  19.677   2.594  0.00  0.00     0.174 HD
ATOM    135  H67 A02 d          18.899  16.817   4.161  0.00  0.00     0.177 HD
ENDBRANCH 124 127
ENDBRANCH 121 124
ENDBRANCH 118 121
ENDBRANCH 116 118
BRANCH 116 136
ATOM    136  C   A02 d          18.506  11.967   4.303  0.00  0.00     0.238 C 
ATOM    137  O   A02 d          19.541  11.463   4.744  0.00  0.00    -0.271 OA
ATOM    138  NAF A02 d          17.567  11.272   3.664  0.00  0.00    -0.368 N 
ATOM    139  H72 A02 d          17.690  10.292   3.505  0.00  0.00     0.159 HD
ATOM    140  H73 A02 d          16.738  11.730   3.342  0.00  0.00     0.159 HD
ENDBRANCH 116 136
ENDBRANCH 114 116
ENDBRANCH  92 112
ENDBRANCH  90  92
ENDBRANCH  85  88
ENDBRANCH  82  85
ENDBRANCH  79  82
ENDBRANCH  76  79
ENDBRANCH  73  76
ENDBRANCH   3  73
TORSDOF 36
ENDMDL
MODEL 10
REMARK VINA RESULT:      -3.6      3.146      4.866
REMARK WARNING: 32 MAX_TORS EXCEEDED!!!
REMARK  36 active torsions:
REMARK  status: ('A' for Active; 'I' for Inactive)
REMARK    1  A    between atoms: C6_6  and  N6_7 
REMARK    2  A    between atoms: CCN_19  and  N9_10 
REMARK    3  A    between atoms: CCK_16  and  OAN_12 
REMARK    4  A    between atoms: CCL_17  and  OAO_13 
REMARK    5  A    between atoms: CCC_15  and  CCM_18 
REMARK       I    between atoms: NBR_27  and  CCC_15 
REMARK    6  A    between atoms: CBZ_20  and  CBG_22 
REMARK       I    between atoms: NBS_28  and  CBZ_20 
REMARK    7  A    between atoms: CBG_22  and  CAX_23 
REMARK    8  A    between atoms: CAX_23  and  CAU_24 
REMARK    9  A    between atoms: CAU_24  and  CAW_25 
REMARK   10  A    between atoms: CAW_25  and  CBD_26 
REMARK   11  A    between atoms: CBD_26  and  NBR_27 
REMARK   12  A    between atoms: CCI_29  and  NBS_28 
REMARK   13  A    between atoms: CCB_30  and  CCI_29 
REMARK   14  A    between atoms: CCI_29  and  CBJ_32 
REMARK       I    between atoms: NBQ_44  and  CCB_30 
REMARK   15  A    between atoms: CBJ_32  and  CAZ_33 
REMARK   16  A    between atoms: CAZ_33  and  CAS_34 
REMARK   17  A    between atoms: CAS_34  and  CAR_35 
REMARK   18  A    between atoms: CAR_35  and  NAC_36 
REMARK   19  A    between atoms: CBH_39  and  CCA_37 
REMARK       I    between atoms: CCA_37  and  NBT_45 
REMARK   20  A    between atoms: CAY_40  and  CBH_39 
REMARK   21  A    between atoms: CAT_41  and  CAY_40 
REMARK   22  A    between atoms: CAV_42  and  CAT_41 
REMARK   23  A    between atoms: CBC_43  and  CAV_42 
REMARK   24  A    between atoms: CBC_43  and  NBQ_44 
REMARK   25  A    between atoms: NBT_45  and  CCJ_46 
REMARK   26  A    between atoms: CCJ_46  and  CBK_47 
REMARK   27  A    between atoms: CCJ_46  and  CCD_54 
REMARK   28  A    between atoms: CBK_47  and  CBB_48 
REMARK   29  A    between atoms: CBB_48  and  CBF_49 
REMARK   30  A    between atoms: CBF_49  and  NBP_50 
REMARK       I    between atoms: NBP_50  and  CBX_51 
REMARK       I    between atoms: CBX_51  and  NAB_52 
REMARK       I    between atoms: CBX_51  and  NAE_53 
REMARK       I    between atoms: CCD_54  and  N_56 
REMARK   31  A    between atoms: N_56  and  CA_57 
REMARK   32  A    between atoms: CA_57  and  CB_58 
REMARK   33  A    between atoms: CA_57  and  C_65 
REMARK   34  A    between atoms: CB_58  and  CG_59 
REMARK   35  A    between atoms: CG_59  and  CD_60 
REMARK   36  A    between atoms: CD_60  and  NE_61 
REMARK       I    between atoms: NE_61  and  CZ_62 
REMARK       I    between atoms: CZ_62  and  NH1_63 
REMARK       I    between atoms: C_65  and  NAF_67 
ROOT
ATOM      1  CCB A02 d          19.105   6.632   4.931  0.00  0.00     0.240 C 
ATOM      2  OAK A02 d          19.750   5.872   4.219  0.00  0.00    -0.271 OA
ATOM      3  NBQ A02 d          18.105   7.392   4.487  0.00  0.00    -0.359 N 
ATOM      4  H45 A02 d          17.635   7.995   5.132  0.00  0.00     0.162 HD
ENDROOT
BRANCH   1   5
ATOM      5  CCI A02 d          19.449   6.784   6.432  0.00  0.00     0.089 C 
ATOM      6  H23 A02 d          20.074   5.922   6.707  0.00  0.00     0.087 H 
BRANCH   5   7
ATOM      7  NBS A02 d          18.218   6.718   7.261  0.00  0.00    -0.348 N 
ATOM      8  CBZ A02 d          17.391   7.768   7.385  0.00  0.00     0.218 C 
ATOM      9  OAI A02 d          17.592   8.876   6.875  0.00  0.00    -0.274 OA
ATOM     10  H22 A02 d          18.000   5.868   7.740  0.00  0.00     0.163 HD
BRANCH   8  11
ATOM     11  CBG A02 d          16.155   7.525   8.276  0.00  0.00     0.009 C 
ATOM     12  H11 A02 d          16.400   6.755   9.022  0.00  0.00     0.047 H 
ATOM     13  H12 A02 d          15.325   7.173   7.645  0.00  0.00     0.047 H 
BRANCH  11  14
ATOM     14  CAX A02 d          15.714   8.807   9.009  0.00  0.00    -0.057 C 
ATOM     15  H13 A02 d          16.539   9.536   8.982  0.00  0.00     0.033 H 
ATOM     16  H14 A02 d          15.477   8.559  10.054  0.00  0.00     0.033 H 
BRANCH  14  17
ATOM     17  CAU A02 d          14.478   9.427   8.349  0.00  0.00    -0.063 C 
ATOM     18  H15 A02 d          14.656   9.498   7.265  0.00  0.00     0.033 H 
ATOM     19  H16 A02 d          14.327  10.436   8.762  0.00  0.00     0.033 H 
BRANCH  17  20
ATOM     20  CAW A02 d          13.205   8.609   8.582  0.00  0.00    -0.050 C 
ATOM     21  H17 A02 d          13.410   7.540   8.419  0.00  0.00     0.035 H 
ATOM     22  H18 A02 d          12.414   8.939   7.892  0.00  0.00     0.035 H 
BRANCH  20  23
ATOM     23  CBD A02 d          12.766   8.842  10.029  0.00  0.00    -0.005 C 
ATOM     24  H19 A02 d          12.163   9.761  10.071  0.00  0.00     0.064 H 
ATOM     25  H20 A02 d          13.663   8.963  10.654  0.00  0.00     0.064 H 
BRANCH  23  26
ATOM     26  NBR A02 d          11.965   7.728  10.566  0.00  0.00    -0.359 N 
ATOM     27  CCC A02 d          11.173   7.816  11.636  0.00  0.00     0.249 C 
ATOM     28  OAL A02 d          11.067   8.824  12.349  0.00  0.00    -0.271 OA
ATOM     29  H21 A02 d          12.018   6.847  10.097  0.00  0.00     0.162 HD
BRANCH  27  30
ATOM     30  CCM A02 d          10.349   6.561  11.981  0.00  0.00     0.144 C 
ATOM     31  OBV A02 d          10.902   5.363  11.341  0.00  0.00    -0.346 OA
ATOM     32  CCN A02 d          11.612   4.574  12.341  0.00  0.00     0.140 C 
ATOM     33  CCL A02 d          11.709   5.488  13.578  0.00  0.00     0.105 C 
ATOM     34  H10 A02 d          11.023   3.680  12.593  0.00  0.00     0.123 H 
ATOM     35  CCK A02 d          10.429   6.298  13.485  0.00  0.00     0.098 C 
ATOM     36  H8  A02 d          12.604   6.127  13.545  0.00  0.00     0.093 H 
ATOM     37  H7  A02 d          10.473   7.225  14.075  0.00  0.00     0.091 H 
ATOM     38  H9  A02 d           9.304   6.711  11.669  0.00  0.00     0.102 H 
BRANCH  32  39
ATOM     39  N9  A02 d          12.974   4.115  11.832  0.00  0.00    -0.294 N 
ATOM     40  C4  A02 d          13.433   4.255  10.593  0.00  0.00     0.167 A 
ATOM     41  N3  A02 d          12.910   4.784   9.475  0.00  0.00    -0.222 NA
ATOM     42  C5  A02 d          14.703   3.694  10.557  0.00  0.00     0.149 A 
ATOM     43  C2  A02 d          13.604   4.788   8.345  0.00  0.00     0.091 A 
ATOM     44  N1  A02 d          14.835   4.262   8.283  0.00  0.00    -0.222 NA
ATOM     45  H1  A02 d          13.167   5.225   7.454  0.00  0.00     0.146 H 
ATOM     46  C6  A02 d          15.406   3.706   9.364  0.00  0.00     0.155 A 
ATOM     47  N7  A02 d          14.992   3.234  11.773  0.00  0.00    -0.236 NA
ATOM     48  C8  A02 d          13.935   3.507  12.546  0.00  0.00     0.071 A 
ATOM     49  H4  A02 d          13.863   3.268  13.606  0.00  0.00     0.144 H 
BRANCH  46  50
ATOM     50  N6  A02 d          16.621   3.173   9.301  0.00  0.00    -0.382 N 
ATOM     51  H2  A02 d          17.392   3.581   9.849  0.00  0.00     0.157 HD
ATOM     52  H3  A02 d          16.794   2.353   8.703  0.00  0.00     0.157 HD
ENDBRANCH  46  50
ENDBRANCH  32  39
BRANCH  33  53
ATOM     53  OAO A02 d          11.699   4.713  14.768  0.00  0.00    -0.388 OA
ATOM     54  H6  A02 d          11.043   5.058  15.364  0.00  0.00     0.210 HD
ENDBRANCH  33  53
BRANCH  35  55
ATOM     55  OAN A02 d           9.308   5.486  13.884  0.00  0.00    -0.390 OA
ATOM     56  H5  A02 d           9.431   5.198  14.781  0.00  0.00     0.210 HD
ENDBRANCH  35  55
ENDBRANCH  27  30
ENDBRANCH  23  26
ENDBRANCH  20  23
ENDBRANCH  17  20
ENDBRANCH  14  17
ENDBRANCH  11  14
ENDBRANCH   8  11
ENDBRANCH   5   7
BRANCH   5  57
ATOM     57  CBJ A02 d          20.278   8.052   6.739  0.00  0.00    -0.038 C 
ATOM     58  H24 A02 d          21.005   7.801   7.525  0.00  0.00     0.036 H 
ATOM     59  H25 A02 d          19.590   8.826   7.109  0.00  0.00     0.036 H 
BRANCH  57  60
ATOM     60  CAZ A02 d          21.049   8.634   5.549  0.00  0.00    -0.061 C 
ATOM     61  H26 A02 d          20.348   8.836   4.726  0.00  0.00     0.033 H 
ATOM     62  H27 A02 d          21.805   7.908   5.217  0.00  0.00     0.033 H 
BRANCH  60  63
ATOM     63  CAS A02 d          21.747   9.948   5.957  0.00  0.00    -0.043 C 
ATOM     64  H28 A02 d          22.818   9.750   6.118  0.00  0.00     0.035 H 
ATOM     65  H29 A02 d          21.298  10.318   6.891  0.00  0.00     0.035 H 
BRANCH  63  66
ATOM     66  CAR A02 d          21.593  11.020   4.868  0.00  0.00     0.080 C 
ATOM     67  H30 A02 d          22.282  10.798   4.039  0.00  0.00     0.075 H 
ATOM     68  H31 A02 d          21.834  12.007   5.292  0.00  0.00     0.075 H 
BRANCH  66  69
ATOM     69  NAC A02 d          20.208  11.031   4.364  0.00  0.00    -0.079 N 
ATOM     70  H32 A02 d          19.598  11.420   5.066  0.00  0.00     0.274 HD
ATOM     71  H33 A02 d          19.920  10.087   4.154  0.00  0.00     0.274 HD
ATOM     72  H34 A02 d          20.160  11.591   3.527  0.00  0.00     0.274 HD
ENDBRANCH  66  69
ENDBRANCH  63  66
ENDBRANCH  60  63
ENDBRANCH  57  60
ENDBRANCH   5  57
ENDBRANCH   1   5
BRANCH   3  73
ATOM     73  CBC A02 d          17.663   7.378   3.073  0.00  0.00    -0.005 C 
ATOM     74  H43 A02 d          18.076   8.257   2.557  0.00  0.00     0.064 H 
ATOM     75  H44 A02 d          18.030   6.462   2.588  0.00  0.00     0.064 H 
BRANCH  73  76
ATOM     76  CAV A02 d          16.133   7.415   2.988  0.00  0.00    -0.050 C 
ATOM     77  H41 A02 d          15.773   6.479   2.536  0.00  0.00     0.035 H 
ATOM     78  H42 A02 d          15.717   7.516   4.001  0.00  0.00     0.035 H 
BRANCH  76  79
ATOM     79  CAT A02 d          15.671   8.600   2.131  0.00  0.00    -0.063 C 
ATOM     80  H39 A02 d          16.546   9.211   1.869  0.00  0.00     0.033 H 
ATOM     81  H40 A02 d          15.204   8.214   1.212  0.00  0.00     0.033 H 
BRANCH  79  82
ATOM     82  CAY A02 d          14.656   9.477   2.871  0.00  0.00    -0.057 C 
ATOM     83  H37 A02 d          14.517  10.412   2.308  0.00  0.00     0.033 H 
ATOM     84  H38 A02 d          13.699   8.939   2.933  0.00  0.00     0.033 H 
BRANCH  82  85
ATOM     85  CBH A02 d          15.129   9.818   4.294  0.00  0.00     0.009 C 
ATOM     86  H35 A02 d          14.437   9.363   5.018  0.00  0.00     0.047 H 
ATOM     87  H36 A02 d          16.138   9.407   4.443  0.00  0.00     0.047 H 
BRANCH  85  88
ATOM     88  CCA A02 d          15.169  11.337   4.531  0.00  0.00     0.218 C 
ATOM     89  OAJ A02 d          15.163  11.799   5.677  0.00  0.00    -0.274 OA
ATOM     90  NBT A02 d          15.220  12.080   3.419  0.00  0.00    -0.348 N 
ATOM     91  H46 A02 d          15.232  11.614   2.535  0.00  0.00     0.163 HD
BRANCH  90  92
ATOM     92  CCJ A02 d          15.260  13.564   3.436  0.00  0.00     0.089 C 
ATOM     93  H47 A02 d          15.719  13.901   2.495  0.00  0.00     0.087 H 
BRANCH  92  94
ATOM     94  CBK A02 d          16.133  14.093   4.605  0.00  0.00    -0.036 C 
ATOM     95  H48 A02 d          17.190  13.929   4.347  0.00  0.00     0.036 H 
ATOM     96  H49 A02 d          15.883  13.518   5.508  0.00  0.00     0.036 H 
BRANCH  94  97
ATOM     97  CBB A02 d          15.941  15.587   4.919  0.00  0.00    -0.048 C 
ATOM     98  H50 A02 d          15.298  15.682   5.806  0.00  0.00     0.035 H 
ATOM     99  H51 A02 d          15.453  16.068   4.058  0.00  0.00     0.035 H 
BRANCH  97 100
ATOM    100  CBF A02 d          17.274  16.301   5.194  0.00  0.00     0.009 C 
ATOM    101  H52 A02 d          17.819  16.448   4.250  0.00  0.00     0.064 H 
ATOM    102  H53 A02 d          17.885  15.695   5.880  0.00  0.00     0.064 H 
BRANCH 100 103
ATOM    103  NBP A02 d          16.979  17.609   5.810  0.00  0.00    -0.227 N 
ATOM    104  CBX A02 d          17.658  18.121   6.845  0.00  0.00     0.665 C 
ATOM    105  NAB A02 d          18.686  17.488   7.408  0.00  0.00    -0.235 N 
ATOM    106  NAE A02 d          17.293  19.310   7.316  0.00  0.00    -0.235 N 
ATOM    107  H55 A02 d          19.182  17.916   8.204  0.00  0.00     0.174 HD
ATOM    108  H56 A02 d          18.985  16.570   7.049  0.00  0.00     0.174 HD
ATOM    109  H57 A02 d          16.501  19.812   6.891  0.00  0.00     0.174 HD
ATOM    110  H58 A02 d          17.804  19.730   8.107  0.00  0.00     0.174 HD
ATOM    111  H54 A02 d          16.204  18.162   5.420  0.00  0.00     0.177 HD
ENDBRANCH 100 103
ENDBRANCH  97 100
ENDBRANCH  94  97
ENDBRANCH  92  94
BRANCH  92 112
ATOM    112  CCD A02 d          13.827  14.144   3.502  0.00  0.00     0.241 C 
ATOM    113  OAM A02 d          13.443  14.981   2.685  0.00  0.00    -0.271 OA
ATOM    114  N   A02 d          13.066  13.676   4.495  0.00  0.00    -0.346 N 
ATOM    115  H59 A02 d          13.460  12.997   5.114  0.00  0.00     0.163 HD
BRANCH 114 116
ATOM    116  CA  A02 d          11.670  14.110   4.726  0.00  0.00     0.089 C 
ATOM    117  H60 A02 d          11.613  15.197   4.571  0.00  0.00     0.087 H 
BRANCH 116 118
ATOM    118  CB  A02 d          11.264  13.794   6.171  0.00  0.00    -0.036 C 
ATOM    119  H61 A02 d          10.246  14.173   6.347  0.00  0.00     0.036 H 
ATOM    120  H62 A02 d          11.965  14.293   6.857  0.00  0.00     0.036 H 
BRANCH 118 121
ATOM    121  CG  A02 d          11.287  12.289   6.443  0.00  0.00    -0.048 C 
ATOM    122  H63 A02 d          11.832  12.102   7.380  0.00  0.00     0.035 H 
ATOM    123  H64 A02 d          11.802  11.782   5.613  0.00  0.00     0.035 H 
BRANCH 121 124
ATOM    124  CD  A02 d           9.875  11.726   6.568  0.00  0.00     0.009 C 
ATOM    125  H65 A02 d           9.680  11.017   5.751  0.00  0.00     0.064 H 
ATOM    126  H66 A02 d           9.140  12.544   6.529  0.00  0.00     0.064 H 
BRANCH 124 127
ATOM    127  NE  A02 d           9.790  11.041   7.854  0.00  0.00    -0.227 N 
ATOM    128  CZ  A02 d           9.022   9.983   8.111  0.00  0.00     0.665 C 
ATOM    129  NH1 A02 d           8.259   9.399   7.187  0.00  0.00    -0.235 N 
ATOM    130  NH2 A02 d           9.056   9.502   9.346  0.00  0.00    -0.235 N 
ATOM    131  H68 A02 d           7.683   8.583   7.436  0.00  0.00     0.174 HD
ATOM    132  H69 A02 d           8.247   9.764   6.224  0.00  0.00     0.174 HD
ATOM    133  H70 A02 d           9.646   9.954  10.059  0.00  0.00     0.174 HD
ATOM    134  H71 A02 d           8.493   8.675   9.592  0.00  0.00     0.174 HD
ATOM    135  H67 A02 d          10.370  11.403   8.625  0.00  0.00     0.177 HD
ENDBRANCH 124 127
ENDBRANCH 121 124
ENDBRANCH 118 121
ENDBRANCH 116 118
BRANCH 116 136
ATOM    136  C   A02 d          10.693  13.424   3.744  0.00  0.00     0.238 C 
ATOM    137  O   A02 d           9.504  13.742   3.683  0.00  0.00    -0.271 OA
ATOM    138  NAF A02 d          11.245  12.494   2.967  0.00  0.00    -0.368 N 
ATOM    139  H72 A02 d          10.684  12.000   2.303  0.00  0.00     0.159 HD
ATOM    140  H73 A02 d          12.221  12.288   3.049  0.00  0.00     0.159 HD
ENDBRANCH 116 136
ENDBRANCH 114 116
ENDBRANCH  92 112
ENDBRANCH  90  92
ENDBRANCH  85  88
ENDBRANCH  82  85
ENDBRANCH  79  82
ENDBRANCH  76  79
ENDBRANCH  73  76
ENDBRANCH   3  73
TORSDOF 36
ENDMDL
