MODEL 1
REMARK VINA RESULT:      -8.0      0.000      0.000
REMARK  16 active torsions:
REMARK  status: ('A' for Active; 'I' for Inactive)
REMARK    1  A    between atoms: C2_1  and  O2_7 
REMARK    2  A    between atoms: C3_2  and  O3_8 
REMARK    3  A    between atoms: C4_3  and  O4_9 
REMARK    4  A    between atoms: C5_4  and  C6_5 
REMARK    5  A    between atoms: C6_5  and  O6_11 
REMARK    6  A    between atoms: O4_20  and  C1_6 
REMARK    7  A    between atoms: C2_12  and  O2_18 
REMARK    8  A    between atoms: C3_13  and  O3_19 
REMARK    9  A    between atoms: C4_14  and  O4_20 
REMARK   10  A    between atoms: C5_15  and  C6_16 
REMARK   11  A    between atoms: C6_16  and  O6_22 
REMARK   12  A    between atoms: O4_30  and  C1_17 
REMARK   13  A    between atoms: C5_24  and  C6_23 
REMARK   14  A    between atoms: C6_23  and  O6_28 
REMARK   15  A    between atoms: C4_25  and  O4_30 
REMARK   16  A    between atoms: C3_26  and  O3_31 
ROOT
ATOM      1  C2  MOL d          61.623  47.676  36.361  0.00  0.00     0.110 C 
ATOM      2  C3  MOL d          60.923  48.652  37.299  0.00  0.00     0.092 C 
ATOM      3  C4  MOL d          59.420  48.434  37.210  0.00  0.00     0.096 C 
ATOM      4  C5  MOL d          59.142  46.975  37.568  0.00  0.00     0.089 C 
ATOM      5  C1  MOL d          61.197  46.247  36.673  0.00  0.00     0.159 C 
ATOM      6  O5  MOL d          59.786  46.141  36.614  0.00  0.00    -0.348 OA
ATOM      7  H12 MOL d          61.332  47.918  35.328  0.00  0.00     0.094 H 
ATOM      8  H13 MOL d          61.257  48.471  38.332  0.00  0.00     0.091 H 
ATOM      9  H14 MOL d          59.071  48.637  36.188  0.00  0.00     0.091 H 
ATOM     10  H15 MOL d          59.561  46.785  38.567  0.00  0.00     0.090 H 
ATOM     11  H18 MOL d          61.566  45.944  37.664  0.00  0.00     0.133 H 
ENDROOT
BRANCH   3  12
ATOM     12  O4  MOL d          58.763  49.311  38.118  0.00  0.00    -0.348 OA
BRANCH  12  13
ATOM     13  C1  MOL d          57.730  50.118  37.557  0.00  0.00     0.159 C 
ATOM     14  C2  MOL d          56.892  50.619  38.718  0.00  0.00     0.110 C 
ATOM     15  C3  MOL d          55.866  51.625  38.232  0.00  0.00     0.092 C 
ATOM     16  H1  MOL d          57.553  51.120  39.440  0.00  0.00     0.094 H 
ATOM     17  C4  MOL d          56.495  52.708  37.377  0.00  0.00     0.090 C 
ATOM     18  H2  MOL d          55.122  51.098  37.616  0.00  0.00     0.091 H 
ATOM     19  C5  MOL d          57.362  52.075  36.306  0.00  0.00     0.089 C 
ATOM     20  H3  MOL d          57.123  53.349  38.015  0.00  0.00     0.091 H 
ATOM     21  O5  MOL d          58.324  51.202  36.879  0.00  0.00    -0.348 OA
ATOM     22  H4  MOL d          56.703  51.489  35.648  0.00  0.00     0.090 H 
ATOM     23  H7  MOL d          57.111  49.532  36.861  0.00  0.00     0.133 H 
BRANCH  14  24
ATOM     24  O2  MOL d          56.273  49.516  39.364  0.00  0.00    -0.388 OA
ATOM     25  H8  MOL d          55.933  48.917  38.709  0.00  0.00     0.210 HD
ENDBRANCH  14  24
BRANCH  15  26
ATOM     26  O3  MOL d          55.215  52.171  39.359  0.00  0.00    -0.390 OA
ATOM     27  H9  MOL d          54.325  52.410  39.124  0.00  0.00     0.210 HD
ENDBRANCH  15  26
BRANCH  17  28
ATOM     28  O4  MOL d          55.488  53.496  36.784  0.00  0.00    -0.390 OA
ATOM     29  H10 MOL d          54.719  52.959  36.627  0.00  0.00     0.210 HD
ENDBRANCH  17  28
BRANCH  19  30
ATOM     30  C6  MOL d          58.094  53.088  35.460  0.00  0.00     0.043 C 
ATOM     31  H5  MOL d          57.438  53.430  34.646  0.00  0.00     0.078 H 
ATOM     32  H6  MOL d          58.997  52.627  35.034  0.00  0.00     0.078 H 
BRANCH  30  33
ATOM     33  O6  MOL d          58.460  54.189  36.264  0.00  0.00    -0.398 OA
ATOM     34  H11 MOL d          57.810  54.311  36.946  0.00  0.00     0.209 HD
ENDBRANCH  30  33
ENDBRANCH  19  30
ENDBRANCH  12  13
ENDBRANCH   3  12
BRANCH   2  35
ATOM     35  O3  MOL d          61.241  49.983  36.933  0.00  0.00    -0.390 OA
ATOM     36  H20 MOL d          62.172  50.046  36.751  0.00  0.00     0.210 HD
ENDBRANCH   2  35
BRANCH   4  37
ATOM     37  C6  MOL d          57.690  46.585  37.581  0.00  0.00     0.043 C 
ATOM     38  H16 MOL d          57.597  45.509  37.374  0.00  0.00     0.078 H 
ATOM     39  H17 MOL d          57.150  47.155  36.810  0.00  0.00     0.078 H 
BRANCH  37  40
ATOM     40  O6  MOL d          57.134  46.870  38.856  0.00  0.00    -0.398 OA
ATOM     41  H21 MOL d          56.468  46.224  39.061  0.00  0.00     0.209 HD
ENDBRANCH  37  40
ENDBRANCH   4  37
BRANCH   1  42
ATOM     42  O2  MOL d          63.028  47.773  36.469  0.00  0.00    -0.388 OA
ATOM     43  H19 MOL d          63.292  48.678  36.349  0.00  0.00     0.210 HD
ENDBRANCH   1  42
BRANCH   5  44
ATOM     44  O4  MOL d          61.708  45.433  35.685  0.00  0.00    -0.348 OA
BRANCH  44  45
ATOM     45  C4  MOL d          61.553  44.042  35.854  0.00  0.00     0.097 C 
ATOM     46  C5  MOL d          62.922  43.371  35.967  0.00  0.00     0.119 C 
ATOM     47  O5  MOL d          62.756  41.959  36.081  0.00  0.00    -0.195 OA
ATOM     48  H24 MOL d          63.509  43.619  35.070  0.00  0.00     0.094 H 
ATOM     49  N1  MOL d          62.178  41.435  34.878  0.00  0.00     0.042 N 
ATOM     50  C2  MOL d          60.824  41.939  34.724  0.00  0.00     0.135 C 
ATOM     51  H31 MOL d          62.734  41.722  34.087  0.00  0.00     0.315 HD
ATOM     52  H32 MOL d          62.157  40.429  34.927  0.00  0.00     0.315 HD
ATOM     53  C3  MOL d          60.855  43.468  34.620  0.00  0.00     0.088 C 
ATOM     54  H27 MOL d          60.377  41.518  33.811  0.00  0.00     0.084 H 
ATOM     55  H28 MOL d          60.221  41.643  35.596  0.00  0.00     0.084 H 
ATOM     56  H26 MOL d          61.398  43.782  33.717  0.00  0.00     0.089 H 
ATOM     57  H25 MOL d          60.959  43.840  36.758  0.00  0.00     0.091 H 
BRANCH  46  58
ATOM     58  C6  MOL d          63.696  43.765  37.210  0.00  0.00     0.045 C 
ATOM     59  H22 MOL d          64.367  42.942  37.494  0.00  0.00     0.078 H 
ATOM     60  H23 MOL d          62.989  43.961  38.029  0.00  0.00     0.078 H 
BRANCH  58  61
ATOM     61  O6  MOL d          64.471  44.942  36.967  0.00  0.00    -0.398 OA
ATOM     62  H29 MOL d          64.877  45.225  37.777  0.00  0.00     0.209 HD
ENDBRANCH  58  61
ENDBRANCH  46  58
BRANCH  53  63
ATOM     63  O3  MOL d          59.496  43.883  34.537  0.00  0.00    -0.391 OA
ATOM     64  H30 MOL d          59.160  44.041  35.412  0.00  0.00     0.210 HD
ENDBRANCH  53  63
ENDBRANCH  44  45
ENDBRANCH   5  44
TORSDOF 16
ENDMDL
MODEL 2
REMARK VINA RESULT:      -5.6      2.953      8.791
REMARK  16 active torsions:
REMARK  status: ('A' for Active; 'I' for Inactive)
REMARK    1  A    between atoms: C2_1  and  O2_7 
REMARK    2  A    between atoms: C3_2  and  O3_8 
REMARK    3  A    between atoms: C4_3  and  O4_9 
REMARK    4  A    between atoms: C5_4  and  C6_5 
REMARK    5  A    between atoms: C6_5  and  O6_11 
REMARK    6  A    between atoms: O4_20  and  C1_6 
REMARK    7  A    between atoms: C2_12  and  O2_18 
REMARK    8  A    between atoms: C3_13  and  O3_19 
REMARK    9  A    between atoms: C4_14  and  O4_20 
REMARK   10  A    between atoms: C5_15  and  C6_16 
REMARK   11  A    between atoms: C6_16  and  O6_22 
REMARK   12  A    between atoms: O4_30  and  C1_17 
REMARK   13  A    between atoms: C5_24  and  C6_23 
REMARK   14  A    between atoms: C6_23  and  O6_28 
REMARK   15  A    between atoms: C4_25  and  O4_30 
REMARK   16  A    between atoms: C3_26  and  O3_31 
ROOT
ATOM      1  C2  MOL d          57.410  47.077  38.750  0.00  0.00     0.110 C 
ATOM      2  C3  MOL d          58.500  46.194  39.347  0.00  0.00     0.092 C 
ATOM      3  C4  MOL d          59.776  46.366  38.537  0.00  0.00     0.096 C 
ATOM      4  C5  MOL d          60.144  47.847  38.562  0.00  0.00     0.089 C 
ATOM      5  C1  MOL d          57.889  48.521  38.668  0.00  0.00     0.159 C 
ATOM      6  O5  MOL d          59.102  48.587  37.940  0.00  0.00    -0.348 OA
ATOM      7  H12 MOL d          57.188  46.716  37.734  0.00  0.00     0.094 H 
ATOM      8  H13 MOL d          58.685  46.495  40.389  0.00  0.00     0.091 H 
ATOM      9  H14 MOL d          59.608  46.043  37.499  0.00  0.00     0.091 H 
ATOM     10  H15 MOL d          60.240  48.156  39.613  0.00  0.00     0.090 H 
ATOM     11  H18 MOL d          58.021  48.940  39.676  0.00  0.00     0.133 H 
ENDROOT
BRANCH   3  12
ATOM     12  O4  MOL d          60.810  45.578  39.116  0.00  0.00    -0.348 OA
BRANCH  12  13
ATOM     13  C1  MOL d          61.473  44.680  38.228  0.00  0.00     0.159 C 
ATOM     14  C2  MOL d          61.250  43.284  38.777  0.00  0.00     0.110 C 
ATOM     15  C3  MOL d          61.777  42.245  37.804  0.00  0.00     0.092 C 
ATOM     16  H1  MOL d          60.170  43.122  38.904  0.00  0.00     0.094 H 
ATOM     17  C4  MOL d          61.261  42.474  36.397  0.00  0.00     0.090 C 
ATOM     18  H2  MOL d          62.874  42.315  37.777  0.00  0.00     0.091 H 
ATOM     19  C5  MOL d          61.477  43.922  36.002  0.00  0.00     0.089 C 
ATOM     20  H3  MOL d          60.184  42.251  36.369  0.00  0.00     0.091 H 
ATOM     21  O5  MOL d          60.891  44.802  36.949  0.00  0.00    -0.348 OA
ATOM     22  H4  MOL d          62.562  44.102  35.979  0.00  0.00     0.090 H 
ATOM     23  H7  MOL d          62.548  44.906  38.175  0.00  0.00     0.133 H 
BRANCH  14  24
ATOM     24  O2  MOL d          61.875  43.171  40.047  0.00  0.00    -0.388 OA
ATOM     25  H8  MOL d          62.649  42.624  39.971  0.00  0.00     0.210 HD
ENDBRANCH  14  24
BRANCH  15  26
ATOM     26  O3  MOL d          61.417  40.968  38.284  0.00  0.00    -0.390 OA
ATOM     27  H9  MOL d          60.672  40.643  37.790  0.00  0.00     0.210 HD
ENDBRANCH  15  26
BRANCH  17  28
ATOM     28  O4  MOL d          61.930  41.620  35.497  0.00  0.00    -0.390 OA
ATOM     29  H10 MOL d          61.462  41.603  34.670  0.00  0.00     0.210 HD
ENDBRANCH  17  28
BRANCH  19  30
ATOM     30  C6  MOL d          60.915  44.256  34.642  0.00  0.00     0.043 C 
ATOM     31  H5  MOL d          61.653  44.003  33.867  0.00  0.00     0.078 H 
ATOM     32  H6  MOL d          60.684  45.331  34.593  0.00  0.00     0.078 H 
BRANCH  30  33
ATOM     33  O6  MOL d          59.735  43.511  34.430  0.00  0.00    -0.398 OA
ATOM     34  H11 MOL d          58.980  44.079  34.533  0.00  0.00     0.209 HD
ENDBRANCH  30  33
ENDBRANCH  19  30
ENDBRANCH  12  13
ENDBRANCH   3  12
BRANCH   2  35
ATOM     35  O3  MOL d          58.088  44.839  39.320  0.00  0.00    -0.390 OA
ATOM     36  H20 MOL d          57.208  44.783  38.965  0.00  0.00     0.210 HD
ENDBRANCH   2  35
BRANCH   4  37
ATOM     37  C6  MOL d          61.419  48.202  37.846  0.00  0.00     0.043 C 
ATOM     38  H16 MOL d          61.702  47.381  37.171  0.00  0.00     0.078 H 
ATOM     39  H17 MOL d          62.220  48.365  38.582  0.00  0.00     0.078 H 
BRANCH  37  40
ATOM     40  O6  MOL d          61.223  49.388  37.091  0.00  0.00    -0.398 OA
ATOM     41  H21 MOL d          62.065  49.723  36.805  0.00  0.00     0.209 HD
ENDBRANCH  37  40
ENDBRANCH   4  37
BRANCH   1  42
ATOM     42  O2  MOL d          56.226  47.026  39.518  0.00  0.00    -0.388 OA
ATOM     43  H19 MOL d          56.371  46.489  40.288  0.00  0.00     0.210 HD
ENDBRANCH   1  42
BRANCH   5  44
ATOM     44  O4  MOL d          56.947  49.233  37.956  0.00  0.00    -0.348 OA
BRANCH  44  45
ATOM     45  C4  MOL d          56.934  50.633  38.129  0.00  0.00     0.097 C 
ATOM     46  C5  MOL d          55.528  51.104  38.498  0.00  0.00     0.119 C 
ATOM     47  O5  MOL d          55.513  52.525  38.616  0.00  0.00    -0.195 OA
ATOM     48  H24 MOL d          54.831  50.775  37.713  0.00  0.00     0.094 H 
ATOM     49  N1  MOL d          55.789  53.124  37.342  0.00  0.00     0.042 N 
ATOM     50  C2  MOL d          57.151  52.818  36.940  0.00  0.00     0.135 C 
ATOM     51  H31 MOL d          55.147  52.761  36.655  0.00  0.00     0.315 HD
ATOM     52  H32 MOL d          55.677  54.124  37.412  0.00  0.00     0.315 HD
ATOM     53  C3  MOL d          57.315  51.299  36.806  0.00  0.00     0.088 C 
ATOM     54  H27 MOL d          57.365  53.296  35.973  0.00  0.00     0.084 H 
ATOM     55  H28 MOL d          57.852  53.196  37.699  0.00  0.00     0.084 H 
ATOM     56  H26 MOL d          56.669  50.911  36.005  0.00  0.00     0.089 H 
ATOM     57  H25 MOL d          57.646  50.918  38.919  0.00  0.00     0.091 H 
BRANCH  46  58
ATOM     58  C6  MOL d          55.050  50.605  39.848  0.00  0.00     0.045 C 
ATOM     59  H22 MOL d          54.178  51.196  40.163  0.00  0.00     0.078 H 
ATOM     60  H23 MOL d          55.858  50.722  40.584  0.00  0.00     0.078 H 
BRANCH  58  61
ATOM     61  O6  MOL d          54.681  49.226  39.772  0.00  0.00    -0.398 OA
ATOM     62  H29 MOL d          54.940  48.786  40.572  0.00  0.00     0.209 HD
ENDBRANCH  58  61
ENDBRANCH  46  58
BRANCH  53  63
ATOM     63  O3  MOL d          58.682  51.081  36.475  0.00  0.00    -0.391 OA
ATOM     64  H30 MOL d          59.183  51.865  36.669  0.00  0.00     0.210 HD
ENDBRANCH  53  63
ENDBRANCH  44  45
ENDBRANCH   5  44
TORSDOF 16
ENDMDL
MODEL 3
REMARK VINA RESULT:      -5.0      2.889      8.582
REMARK  16 active torsions:
REMARK  status: ('A' for Active; 'I' for Inactive)
REMARK    1  A    between atoms: C2_1  and  O2_7 
REMARK    2  A    between atoms: C3_2  and  O3_8 
REMARK    3  A    between atoms: C4_3  and  O4_9 
REMARK    4  A    between atoms: C5_4  and  C6_5 
REMARK    5  A    between atoms: C6_5  and  O6_11 
REMARK    6  A    between atoms: O4_20  and  C1_6 
REMARK    7  A    between atoms: C2_12  and  O2_18 
REMARK    8  A    between atoms: C3_13  and  O3_19 
REMARK    9  A    between atoms: C4_14  and  O4_20 
REMARK   10  A    between atoms: C5_15  and  C6_16 
REMARK   11  A    between atoms: C6_16  and  O6_22 
REMARK   12  A    between atoms: O4_30  and  C1_17 
REMARK   13  A    between atoms: C5_24  and  C6_23 
REMARK   14  A    between atoms: C6_23  and  O6_28 
REMARK   15  A    between atoms: C4_25  and  O4_30 
REMARK   16  A    between atoms: C3_26  and  O3_31 
ROOT
ATOM      1  C2  MOL d          60.705  49.024  37.182  0.00  0.00     0.110 C 
ATOM      2  C3  MOL d          61.105  47.832  36.321  0.00  0.00     0.092 C 
ATOM      3  C4  MOL d          60.370  46.596  36.815  0.00  0.00     0.096 C 
ATOM      4  C5  MOL d          58.873  46.890  36.749  0.00  0.00     0.089 C 
ATOM      5  C1  MOL d          59.190  49.182  37.194  0.00  0.00     0.159 C 
ATOM      6  O5  MOL d          58.582  47.975  37.620  0.00  0.00    -0.348 OA
ATOM      7  H12 MOL d          61.053  48.843  38.210  0.00  0.00     0.094 H 
ATOM      8  H13 MOL d          60.828  48.027  35.274  0.00  0.00     0.091 H 
ATOM      9  H14 MOL d          60.659  46.376  37.853  0.00  0.00     0.091 H 
ATOM     10  H15 MOL d          58.626  47.170  35.715  0.00  0.00     0.090 H 
ATOM     11  H18 MOL d          58.826  49.465  36.195  0.00  0.00     0.133 H 
ENDROOT
BRANCH   3  12
ATOM     12  O4  MOL d          60.704  45.488  35.987  0.00  0.00    -0.348 OA
BRANCH  12  13
ATOM     13  C1  MOL d          60.716  44.216  36.633  0.00  0.00     0.159 C 
ATOM     14  C2  MOL d          61.719  43.359  35.884  0.00  0.00     0.110 C 
ATOM     15  C3  MOL d          61.926  42.039  36.604  0.00  0.00     0.092 C 
ATOM     16  H1  MOL d          62.682  43.889  35.850  0.00  0.00     0.094 H 
ATOM     17  C4  MOL d          62.223  42.238  38.077  0.00  0.00     0.090 C 
ATOM     18  H2  MOL d          61.003  41.447  36.521  0.00  0.00     0.091 H 
ATOM     19  C5  MOL d          61.193  43.170  38.685  0.00  0.00     0.089 C 
ATOM     20  H3  MOL d          63.222  42.687  38.185  0.00  0.00     0.091 H 
ATOM     21  O5  MOL d          61.129  44.395  37.970  0.00  0.00    -0.348 OA
ATOM     22  H4  MOL d          60.214  42.673  38.619  0.00  0.00     0.090 H 
ATOM     23  H7  MOL d          59.718  43.754  36.606  0.00  0.00     0.133 H 
BRANCH  14  24
ATOM     24  O2  MOL d          61.267  43.160  34.552  0.00  0.00    -0.388 OA
ATOM     25  H8  MOL d          60.430  43.594  34.434  0.00  0.00     0.210 HD
ENDBRANCH  14  24
BRANCH  15  26
ATOM     26  O3  MOL d          62.969  41.343  35.957  0.00  0.00    -0.390 OA
ATOM     27  H9  MOL d          62.643  40.508  35.642  0.00  0.00     0.210 HD
ENDBRANCH  15  26
BRANCH  17  28
ATOM     28  O4  MOL d          62.204  40.995  38.741  0.00  0.00    -0.390 OA
ATOM     29  H10 MOL d          62.550  40.324  38.164  0.00  0.00     0.210 HD
ENDBRANCH  17  28
BRANCH  19  30
ATOM     30  C6  MOL d          61.464  43.489  40.135  0.00  0.00     0.043 C 
ATOM     31  H5  MOL d          62.538  43.374  40.342  0.00  0.00     0.078 H 
ATOM     32  H6  MOL d          60.891  42.802  40.775  0.00  0.00     0.078 H 
BRANCH  30  33
ATOM     33  O6  MOL d          61.073  44.819  40.401  0.00  0.00    -0.398 OA
ATOM     34  H11 MOL d          60.382  44.820  41.054  0.00  0.00     0.209 HD
ENDBRANCH  30  33
ENDBRANCH  19  30
ENDBRANCH  12  13
ENDBRANCH   3  12
BRANCH   2  35
ATOM     35  O3  MOL d          62.504  47.628  36.403  0.00  0.00    -0.390 OA
ATOM     36  H20 MOL d          62.691  46.989  37.081  0.00  0.00     0.210 HD
ENDBRANCH   2  35
BRANCH   4  37
ATOM     37  C6  MOL d          57.978  45.751  37.158  0.00  0.00     0.043 C 
ATOM     38  H16 MOL d          58.593  44.885  37.440  0.00  0.00     0.078 H 
ATOM     39  H17 MOL d          57.324  45.479  36.316  0.00  0.00     0.078 H 
BRANCH  37  40
ATOM     40  O6  MOL d          57.183  46.148  38.265  0.00  0.00    -0.398 OA
ATOM     41  H21 MOL d          56.579  46.828  37.992  0.00  0.00     0.209 HD
ENDBRANCH  37  40
ENDBRANCH   4  37
BRANCH   1  42
ATOM     42  O2  MOL d          61.290  50.221  36.711  0.00  0.00    -0.388 OA
ATOM     43  H19 MOL d          62.009  50.012  36.126  0.00  0.00     0.210 HD
ENDBRANCH   1  42
BRANCH   5  44
ATOM     44  O4  MOL d          58.877  50.147  38.126  0.00  0.00    -0.348 OA
BRANCH  44  45
ATOM     45  C4  MOL d          57.523  50.258  38.508  0.00  0.00     0.097 C 
ATOM     46  C5  MOL d          57.021  51.678  38.254  0.00  0.00     0.119 C 
ATOM     47  O5  MOL d          55.669  51.795  38.695  0.00  0.00    -0.195 OA
ATOM     48  H24 MOL d          57.666  52.382  38.800  0.00  0.00     0.094 H 
ATOM     49  N1  MOL d          55.602  51.620  40.117  0.00  0.00     0.042 N 
ATOM     50  C2  MOL d          55.970  50.257  40.462  0.00  0.00     0.135 C 
ATOM     51  H31 MOL d          56.238  52.262  40.564  0.00  0.00     0.315 HD
ATOM     52  H32 MOL d          54.662  51.803  40.432  0.00  0.00     0.315 HD
ATOM     53  C3  MOL d          57.409  49.985  40.009  0.00  0.00     0.088 C 
ATOM     54  H27 MOL d          55.896  50.122  41.551  0.00  0.00     0.084 H 
ATOM     55  H28 MOL d          55.288  49.555  39.959  0.00  0.00     0.084 H 
ATOM     56  H26 MOL d          58.112  50.635  40.551  0.00  0.00     0.089 H 
ATOM     57  H25 MOL d          56.916  49.536  37.941  0.00  0.00     0.091 H 
BRANCH  46  58
ATOM     58  C6  MOL d          56.977  52.059  36.787  0.00  0.00     0.045 C 
ATOM     59  H22 MOL d          56.442  53.014  36.677  0.00  0.00     0.078 H 
ATOM     60  H23 MOL d          56.446  51.275  36.226  0.00  0.00     0.078 H 
BRANCH  58  61
ATOM     61  O6  MOL d          58.299  52.197  36.264  0.00  0.00    -0.398 OA
ATOM     62  H29 MOL d          58.754  52.886  36.734  0.00  0.00     0.209 HD
ENDBRANCH  58  61
ENDBRANCH  46  58
BRANCH  53  63
ATOM     63  O3  MOL d          57.668  48.622  40.323  0.00  0.00    -0.391 OA
ATOM     64  H30 MOL d          57.422  48.454  41.226  0.00  0.00     0.210 HD
ENDBRANCH  53  63
ENDBRANCH  44  45
ENDBRANCH   5  44
TORSDOF 16
ENDMDL
