MODEL 1
REMARK VINA RESULT:      -8.8      0.000      0.000
REMARK  17 active torsions:
REMARK  status: ('A' for Active; 'I' for Inactive)
REMARK    1  A    between atoms: C24_4  and  C22_7 
REMARK    2  A    between atoms: C22_7  and  O23_8 
REMARK    3  A    between atoms: O23_8  and  C21_9 
REMARK       I    between atoms: C21_9  and  N20_11 
REMARK    4  A    between atoms: N20_11  and  C19_12 
REMARK    5  A    between atoms: C19_12  and  C32_13 
REMARK    6  A    between atoms: C19_12  and  C17_20 
REMARK    7  A    between atoms: C32_13  and  C38_14 
REMARK    8  A    between atoms: C17_20  and  O18_21 
REMARK    9  A    between atoms: C17_20  and  C16_22 
REMARK   10  A    between atoms: C16_22  and  N11_23 
REMARK   11  A    between atoms: N11_23  and  C12_24 
REMARK   12  A    between atoms: N11_23  and  S8_29 
REMARK   13  A    between atoms: C12_24  and  C13_25 
REMARK   14  A    between atoms: C13_25  and  C14_26 
REMARK   15  A    between atoms: C13_25  and  C15_27 
REMARK   16  A    between atoms: C15_27  and  C18_28 
REMARK   17  A    between atoms: S8_29  and  C5_32 
ROOT
ATOM      1  C17 MOL d          20.078  29.241  15.153  0.00  0.00     0.067 C 
ATOM      2  H18 MOL d          21.106  29.623  15.077  0.00  0.00     0.088 H 
ENDROOT
BRANCH   1   3
ATOM      3  C19 MOL d          19.657  28.753  13.765  0.00  0.00     0.044 C 
ATOM      4  H10 MOL d          19.635  29.626  13.096  0.00  0.00     0.077 H 
BRANCH   3   5
ATOM      5  N20 MOL d          20.638  27.803  13.265  0.00  0.00    -0.329 N 
ATOM      6  C21 MOL d          21.571  28.053  12.352  0.00  0.00     0.361 C 
ATOM      7  O22 MOL d          21.789  29.135  11.831  0.00  0.00    -0.239 OA
ATOM      8  H9  MOL d          20.607  26.878  13.643  0.00  0.00     0.165 HD
BRANCH   6   9
ATOM      9  O23 MOL d          22.361  26.910  11.930  0.00  0.00    -0.302 OA
BRANCH   9  10
ATOM     10  C22 MOL d          22.250  26.426  10.590  0.00  0.00     0.049 C 
ATOM     11  H7  MOL d          21.278  26.712  10.162  0.00  0.00     0.078 H 
ATOM     12  H8  MOL d          23.060  26.836   9.970  0.00  0.00     0.078 H 
BRANCH  10  13
ATOM     13  C24 MOL d          22.364  24.913  10.669  0.00  0.00     0.034 C 
ATOM     14  N29 MOL d          21.359  24.398  11.560  0.00  0.00    -0.354 N 
ATOM     15  C27 MOL d          20.408  23.706  10.957  0.00  0.00     0.218 C 
ATOM     16  H1  MOL d          21.379  24.550  12.548  0.00  0.00     0.162 HD
ATOM     17  O28 MOL d          19.456  23.195  11.498  0.00  0.00    -0.274 OA
ATOM     18  C26 MOL d          20.676  23.605   9.477  0.00  0.00     0.011 C 
ATOM     19  C25 MOL d          22.057  24.227   9.338  0.00  0.00    -0.036 C 
ATOM     20  H5  MOL d          19.928  24.169   8.899  0.00  0.00     0.047 H 
ATOM     21  H6  MOL d          20.679  22.556   9.145  0.00  0.00     0.047 H 
ATOM     22  H3  MOL d          22.805  23.447   9.132  0.00  0.00     0.036 H 
ATOM     23  H4  MOL d          22.061  24.964   8.521  0.00  0.00     0.036 H 
ATOM     24  H2  MOL d          23.372  24.644  11.014  0.00  0.00     0.075 H 
ENDBRANCH  10  13
ENDBRANCH   9  10
ENDBRANCH   6   9
ENDBRANCH   3   5
BRANCH   3  25
ATOM     25  C32 MOL d          18.276  28.090  13.721  0.00  0.00    -0.020 C 
ATOM     26  H11 MOL d          17.527  28.799  14.103  0.00  0.00     0.043 H 
ATOM     27  H12 MOL d          18.290  27.192  14.355  0.00  0.00     0.043 H 
BRANCH  25  28
ATOM     28  C38 MOL d          17.900  27.689  12.302  0.00  0.00    -0.056 A 
ATOM     29  C37 MOL d          17.573  28.672  11.375  0.00  0.00    -0.077 A 
ATOM     30  C36 MOL d          17.231  28.319  10.071  0.00  0.00    -0.082 A 
ATOM     31  H13 MOL d          17.584  29.715  11.668  0.00  0.00     0.084 H 
ATOM     32  C35 MOL d          17.222  26.984   9.687  0.00  0.00    -0.083 A 
ATOM     33  H14 MOL d          16.972  29.089   9.354  0.00  0.00     0.083 H 
ATOM     34  C34 MOL d          17.552  26.000  10.612  0.00  0.00    -0.082 A 
ATOM     35  H15 MOL d          16.959  26.711   8.671  0.00  0.00     0.083 H 
ATOM     36  C33 MOL d          17.896  26.358  11.912  0.00  0.00    -0.077 A 
ATOM     37  H16 MOL d          17.540  24.956  10.321  0.00  0.00     0.083 H 
ATOM     38  H17 MOL d          18.165  25.588  12.627  0.00  0.00     0.084 H 
ENDBRANCH  25  28
ENDBRANCH   3  25
ENDBRANCH   1   3
BRANCH   1  39
ATOM     39  O18 MOL d          20.055  28.155  16.083  0.00  0.00    -0.392 OA
ATOM     40  H19 MOL d          20.656  28.337  16.796  0.00  0.00     0.210 HD
ENDBRANCH   1  39
BRANCH   1  41
ATOM     41  C16 MOL d          19.189  30.366  15.704  0.00  0.00     0.019 C 
ATOM     42  H20 MOL d          19.380  30.495  16.780  0.00  0.00     0.061 H 
ATOM     43  H21 MOL d          18.131  30.112  15.548  0.00  0.00     0.061 H 
BRANCH  41  44
ATOM     44  N11 MOL d          19.511  31.627  14.985  0.00  0.00    -0.204 NA
BRANCH  44  45
ATOM     45  C12 MOL d          20.387  32.515  15.784  0.00  0.00    -0.004 C 
ATOM     46  H22 MOL d          20.208  32.325  16.852  0.00  0.00     0.058 H 
ATOM     47  H23 MOL d          20.140  33.562  15.551  0.00  0.00     0.058 H 
BRANCH  45  48
ATOM     48  C13 MOL d          21.876  32.275  15.478  0.00  0.00    -0.046 C 
ATOM     49  H24 MOL d          22.140  31.282  15.869  0.00  0.00     0.041 H 
BRANCH  48  50
ATOM     50  C14 MOL d          22.221  32.286  13.988  0.00  0.00    -0.072 C 
ATOM     51  H25 MOL d          21.488  32.901  13.447  0.00  0.00     0.028 H 
ATOM     52  H26 MOL d          22.196  31.258  13.598  0.00  0.00     0.028 H 
ATOM     53  H27 MOL d          23.228  32.708  13.848  0.00  0.00     0.028 H 
ENDBRANCH  48  50
BRANCH  48  54
ATOM     54  C15 MOL d          22.712  33.325  16.219  0.00  0.00    -0.064 C 
ATOM     55  H28 MOL d          23.016  34.099  15.499  0.00  0.00     0.033 H 
ATOM     56  H29 MOL d          23.607  32.832  16.628  0.00  0.00     0.033 H 
BRANCH  54  57
ATOM     57  C18 MOL d          21.971  33.999  17.363  0.00  0.00    -0.076 C 
ATOM     58  H30 MOL d          21.036  34.439  16.985  0.00  0.00     0.027 H 
ATOM     59  H31 MOL d          22.602  34.792  17.792  0.00  0.00     0.027 H 
ATOM     60  H32 MOL d          21.739  33.255  18.139  0.00  0.00     0.027 H 
ENDBRANCH  54  57
ENDBRANCH  48  54
ENDBRANCH  45  48
ENDBRANCH  44  45
BRANCH  44  61
ATOM     61  S8  MOL d          18.226  32.388  14.334  0.00  0.00     0.243 S 
ATOM     62  O10 MOL d          17.422  31.388  13.700  0.00  0.00    -0.206 OA
ATOM     63  O9  MOL d          18.772  33.376  13.432  0.00  0.00    -0.206 OA
BRANCH  61  64
ATOM     64  C5  MOL d          17.355  33.177  15.483  0.00  0.00     0.076 A 
ATOM     65  C6  MOL d          16.201  32.560  15.970  0.00  0.00    -0.059 A 
ATOM     66  C7  MOL d          15.442  33.137  16.987  0.00  0.00    -0.052 A 
ATOM     67  H33 MOL d          15.888  31.612  15.548  0.00  0.00     0.086 H 
ATOM     68  C2  MOL d          15.801  34.352  17.536  0.00  0.00     0.074 A 
ATOM     69  H34 MOL d          14.558  32.626  17.352  0.00  0.00     0.087 H 
ATOM     70  C3  MOL d          16.940  35.006  17.063  0.00  0.00     0.036 A 
ATOM     71  N1  MOL d          15.204  35.074  18.513  0.00  0.00    -0.253 NA
ATOM     72  C4  MOL d          17.706  34.415  16.045  0.00  0.00    -0.042 A 
ATOM     73  S1  MOL d          17.275  36.507  17.816  0.00  0.00    -0.081 SA
ATOM     74  H35 MOL d          18.591  34.927  15.684  0.00  0.00     0.088 H 
ATOM     75  C1  MOL d          15.852  36.221  18.770  0.00  0.00     0.041 A 
ATOM     76  H36 MOL d          15.509  36.926  19.526  0.00  0.00     0.126 H 
ENDBRANCH  61  64
ENDBRANCH  44  61
ENDBRANCH  41  44
ENDBRANCH   1  41
TORSDOF 17
ENDMDL
MODEL 2
REMARK VINA RESULT:      -8.5      2.570      6.735
REMARK  17 active torsions:
REMARK  status: ('A' for Active; 'I' for Inactive)
REMARK    1  A    between atoms: C24_4  and  C22_7 
REMARK    2  A    between atoms: C22_7  and  O23_8 
REMARK    3  A    between atoms: O23_8  and  C21_9 
REMARK       I    between atoms: C21_9  and  N20_11 
REMARK    4  A    between atoms: N20_11  and  C19_12 
REMARK    5  A    between atoms: C19_12  and  C32_13 
REMARK    6  A    between atoms: C19_12  and  C17_20 
REMARK    7  A    between atoms: C32_13  and  C38_14 
REMARK    8  A    between atoms: C17_20  and  O18_21 
REMARK    9  A    between atoms: C17_20  and  C16_22 
REMARK   10  A    between atoms: C16_22  and  N11_23 
REMARK   11  A    between atoms: N11_23  and  C12_24 
REMARK   12  A    between atoms: N11_23  and  S8_29 
REMARK   13  A    between atoms: C12_24  and  C13_25 
REMARK   14  A    between atoms: C13_25  and  C14_26 
REMARK   15  A    between atoms: C13_25  and  C15_27 
REMARK   16  A    between atoms: C15_27  and  C18_28 
REMARK   17  A    between atoms: S8_29  and  C5_32 
ROOT
ATOM      1  C17 MOL d          18.986  31.113  15.563  0.00  0.00     0.067 C 
ATOM      2  H18 MOL d          19.451  30.260  15.049  0.00  0.00     0.088 H 
ENDROOT
BRANCH   1   3
ATOM      3  C19 MOL d          17.676  31.436  14.842  0.00  0.00     0.044 C 
ATOM      4  H10 MOL d          17.802  32.405  14.337  0.00  0.00     0.077 H 
BRANCH   3   5
ATOM      5  N20 MOL d          17.408  30.416  13.840  0.00  0.00    -0.329 N 
ATOM      6  C21 MOL d          17.984  30.326  12.646  0.00  0.00     0.361 C 
ATOM      7  O22 MOL d          18.869  31.051  12.222  0.00  0.00    -0.239 OA
ATOM      8  H9  MOL d          16.729  29.719  14.072  0.00  0.00     0.165 HD
BRANCH   6   9
ATOM      9  O23 MOL d          17.466  29.287  11.773  0.00  0.00    -0.302 OA
BRANCH   9  10
ATOM     10  C22 MOL d          18.239  28.110  11.534  0.00  0.00     0.049 C 
ATOM     11  H7  MOL d          19.280  28.268  11.851  0.00  0.00     0.078 H 
ATOM     12  H8  MOL d          17.813  27.257  12.083  0.00  0.00     0.078 H 
BRANCH  10  13
ATOM     13  C24 MOL d          18.179  27.853  10.038  0.00  0.00     0.034 C 
ATOM     14  N29 MOL d          19.362  27.150   9.619  0.00  0.00    -0.354 N 
ATOM     15  C27 MOL d          19.143  25.901   9.247  0.00  0.00     0.218 C 
ATOM     16  H1  MOL d          20.270  27.570   9.611  0.00  0.00     0.162 HD
ATOM     17  O28 MOL d          19.985  25.117   8.876  0.00  0.00    -0.274 OA
ATOM     18  C26 MOL d          17.674  25.571   9.318  0.00  0.00     0.011 C 
ATOM     19  C25 MOL d          17.039  26.913   9.643  0.00  0.00    -0.036 C 
ATOM     20  H5  MOL d          17.471  24.835  10.110  0.00  0.00     0.047 H 
ATOM     21  H6  MOL d          17.308  25.183   8.356  0.00  0.00     0.047 H 
ATOM     22  H3  MOL d          16.511  27.307   8.762  0.00  0.00     0.036 H 
ATOM     23  H4  MOL d          16.330  26.805  10.478  0.00  0.00     0.036 H 
ATOM     24  H2  MOL d          18.083  28.813   9.510  0.00  0.00     0.075 H 
ENDBRANCH  10  13
ENDBRANCH   9  10
ENDBRANCH   6   9
ENDBRANCH   3   5
BRANCH   3  25
ATOM     25  C32 MOL d          16.456  31.540  15.763  0.00  0.00    -0.020 C 
ATOM     26  H11 MOL d          16.671  31.009  16.702  0.00  0.00     0.043 H 
ATOM     27  H12 MOL d          15.592  31.074  15.268  0.00  0.00     0.043 H 
BRANCH  25  28
ATOM     28  C38 MOL d          16.123  32.990  16.078  0.00  0.00    -0.056 A 
ATOM     29  C37 MOL d          16.508  33.991  15.194  0.00  0.00    -0.077 A 
ATOM     30  C36 MOL d          16.206  35.323  15.468  0.00  0.00    -0.082 A 
ATOM     31  H13 MOL d          17.046  33.733  14.288  0.00  0.00     0.084 H 
ATOM     32  C35 MOL d          15.511  35.660  16.623  0.00  0.00    -0.083 A 
ATOM     33  H14 MOL d          16.513  36.100  14.777  0.00  0.00     0.083 H 
ATOM     34  C34 MOL d          15.123  34.661  17.507  0.00  0.00    -0.082 A 
ATOM     35  H15 MOL d          15.273  36.697  16.834  0.00  0.00     0.083 H 
ATOM     36  C33 MOL d          15.424  33.330  17.227  0.00  0.00    -0.077 A 
ATOM     37  H16 MOL d          14.586  34.916  18.414  0.00  0.00     0.083 H 
ATOM     38  H17 MOL d          15.108  32.553  17.913  0.00  0.00     0.084 H 
ENDBRANCH  25  28
ENDBRANCH   3  25
ENDBRANCH   1   3
BRANCH   1  39
ATOM     39  O18 MOL d          18.721  30.746  16.921  0.00  0.00    -0.392 OA
ATOM     40  H19 MOL d          18.233  29.932  16.938  0.00  0.00     0.210 HD
ENDBRANCH   1  39
BRANCH   1  41
ATOM     41  C16 MOL d          19.989  32.275  15.565  0.00  0.00     0.019 C 
ATOM     42  H20 MOL d          19.787  32.936  16.421  0.00  0.00     0.061 H 
ATOM     43  H21 MOL d          19.894  32.847  14.631  0.00  0.00     0.061 H 
BRANCH  41  44
ATOM     44  N11 MOL d          21.365  31.722  15.674  0.00  0.00    -0.204 NA
BRANCH  44  45
ATOM     45  C12 MOL d          22.143  32.373  16.753  0.00  0.00    -0.004 C 
ATOM     46  H22 MOL d          23.201  32.412  16.456  0.00  0.00     0.058 H 
ATOM     47  H23 MOL d          22.042  31.779  17.673  0.00  0.00     0.058 H 
BRANCH  45  48
ATOM     48  C13 MOL d          21.650  33.805  17.028  0.00  0.00    -0.046 C 
ATOM     49  H24 MOL d          20.585  33.848  16.759  0.00  0.00     0.041 H 
BRANCH  48  50
ATOM     50  C14 MOL d          21.770  34.240  18.490  0.00  0.00    -0.072 C 
ATOM     51  H25 MOL d          20.828  34.022  19.015  0.00  0.00     0.028 H 
ATOM     52  H26 MOL d          21.973  35.321  18.535  0.00  0.00     0.028 H 
ATOM     53  H27 MOL d          22.593  33.692  18.970  0.00  0.00     0.028 H 
ENDBRANCH  48  50
BRANCH  48  54
ATOM     54  C15 MOL d          22.419  34.778  16.126  0.00  0.00    -0.064 C 
ATOM     55  H28 MOL d          22.469  34.347  15.115  0.00  0.00     0.033 H 
ATOM     56  H29 MOL d          23.437  34.893  16.527  0.00  0.00     0.033 H 
BRANCH  54  57
ATOM     57  C18 MOL d          21.782  36.155  16.030  0.00  0.00    -0.076 C 
ATOM     58  H30 MOL d          22.538  36.924  16.249  0.00  0.00     0.027 H 
ATOM     59  H31 MOL d          20.961  36.231  16.758  0.00  0.00     0.027 H 
ATOM     60  H32 MOL d          21.387  36.307  15.015  0.00  0.00     0.027 H 
ENDBRANCH  54  57
ENDBRANCH  48  54
ENDBRANCH  45  48
ENDBRANCH  44  45
BRANCH  44  61
ATOM     61  S8  MOL d          22.169  31.609  14.262  0.00  0.00     0.243 S 
ATOM     62  O10 MOL d          23.537  31.932  14.531  0.00  0.00    -0.206 OA
ATOM     63  O9  MOL d          21.507  32.523  13.360  0.00  0.00    -0.206 OA
BRANCH  61  64
ATOM     64  C5  MOL d          22.053  30.096  13.628  0.00  0.00     0.076 A 
ATOM     65  C6  MOL d          21.118  29.222  14.186  0.00  0.00    -0.059 A 
ATOM     66  C7  MOL d          20.918  27.944  13.666  0.00  0.00    -0.052 A 
ATOM     67  H33 MOL d          20.536  29.544  15.042  0.00  0.00     0.086 H 
ATOM     68  C2  MOL d          21.654  27.495  12.588  0.00  0.00     0.074 A 
ATOM     69  H34 MOL d          20.175  27.294  14.114  0.00  0.00     0.087 H 
ATOM     70  C3  MOL d          22.610  28.336  12.015  0.00  0.00     0.036 A 
ATOM     71  N1  MOL d          21.618  26.303  11.948  0.00  0.00    -0.253 NA
ATOM     72  C4  MOL d          22.800  29.627  12.537  0.00  0.00    -0.042 A 
ATOM     73  S1  MOL d          23.463  27.663  10.691  0.00  0.00    -0.081 SA
ATOM     74  H35 MOL d          23.542  30.275  12.085  0.00  0.00     0.088 H 
ATOM     75  C1  MOL d          22.501  26.238  10.939  0.00  0.00     0.041 A 
ATOM     76  H36 MOL d          22.607  25.351  10.316  0.00  0.00     0.126 H 
ENDBRANCH  61  64
ENDBRANCH  44  61
ENDBRANCH  41  44
ENDBRANCH   1  41
TORSDOF 17
ENDMDL
MODEL 3
REMARK VINA RESULT:      -7.8      2.577      9.480
REMARK  17 active torsions:
REMARK  status: ('A' for Active; 'I' for Inactive)
REMARK    1  A    between atoms: C24_4  and  C22_7 
REMARK    2  A    between atoms: C22_7  and  O23_8 
REMARK    3  A    between atoms: O23_8  and  C21_9 
REMARK       I    between atoms: C21_9  and  N20_11 
REMARK    4  A    between atoms: N20_11  and  C19_12 
REMARK    5  A    between atoms: C19_12  and  C32_13 
REMARK    6  A    between atoms: C19_12  and  C17_20 
REMARK    7  A    between atoms: C32_13  and  C38_14 
REMARK    8  A    between atoms: C17_20  and  O18_21 
REMARK    9  A    between atoms: C17_20  and  C16_22 
REMARK   10  A    between atoms: C16_22  and  N11_23 
REMARK   11  A    between atoms: N11_23  and  C12_24 
REMARK   12  A    between atoms: N11_23  and  S8_29 
REMARK   13  A    between atoms: C12_24  and  C13_25 
REMARK   14  A    between atoms: C13_25  and  C14_26 
REMARK   15  A    between atoms: C13_25  and  C15_27 
REMARK   16  A    between atoms: C15_27  and  C18_28 
REMARK   17  A    between atoms: S8_29  and  C5_32 
ROOT
ATOM      1  C17 MOL d          18.432  31.328  14.671  0.00  0.00     0.067 C 
ATOM      2  H18 MOL d          19.426  31.691  14.970  0.00  0.00     0.088 H 
ENDROOT
BRANCH   1   3
ATOM      3  C19 MOL d          17.478  31.556  15.846  0.00  0.00     0.044 C 
ATOM      4  H10 MOL d          17.333  30.590  16.351  0.00  0.00     0.077 H 
BRANCH   3   5
ATOM      5  N20 MOL d          18.078  32.491  16.785  0.00  0.00    -0.329 N 
ATOM      6  C21 MOL d          19.010  33.394  16.498  0.00  0.00     0.361 C 
ATOM      7  O22 MOL d          19.468  33.622  15.390  0.00  0.00    -0.239 OA
ATOM      8  H9  MOL d          17.761  32.450  17.732  0.00  0.00     0.165 HD
BRANCH   6   9
ATOM      9  O23 MOL d          19.538  34.136  17.630  0.00  0.00    -0.302 OA
BRANCH   9  10
ATOM     10  C22 MOL d          20.212  35.377  17.415  0.00  0.00     0.049 C 
ATOM     11  H7  MOL d          20.037  35.731  16.388  0.00  0.00     0.078 H 
ATOM     12  H8  MOL d          19.854  36.132  18.129  0.00  0.00     0.078 H 
BRANCH  10  13
ATOM     13  C24 MOL d          21.690  35.107  17.633  0.00  0.00     0.034 C 
ATOM     14  N29 MOL d          21.921  33.688  17.684  0.00  0.00    -0.354 N 
ATOM     15  C27 MOL d          22.590  33.214  16.648  0.00  0.00     0.218 C 
ATOM     16  H1  MOL d          21.604  33.112  18.437  0.00  0.00     0.162 HD
ATOM     17  O28 MOL d          22.884  32.055  16.467  0.00  0.00    -0.274 OA
ATOM     18  C26 MOL d          22.977  34.326  15.705  0.00  0.00     0.011 C 
ATOM     19  C25 MOL d          22.556  35.575  16.463  0.00  0.00    -0.036 C 
ATOM     20  H5  MOL d          22.437  34.241  14.751  0.00  0.00     0.047 H 
ATOM     21  H6  MOL d          24.061  34.325  15.515  0.00  0.00     0.047 H 
ATOM     22  H3  MOL d          23.443  36.109  16.837  0.00  0.00     0.036 H 
ATOM     23  H4  MOL d          21.978  36.241  15.805  0.00  0.00     0.036 H 
ATOM     24  H2  MOL d          22.012  35.593  18.565  0.00  0.00     0.075 H 
ENDBRANCH  10  13
ENDBRANCH   9  10
ENDBRANCH   6   9
ENDBRANCH   3   5
BRANCH   3  25
ATOM     25  C32 MOL d          16.100  32.091  15.447  0.00  0.00    -0.020 C 
ATOM     26  H11 MOL d          15.328  31.390  15.797  0.00  0.00     0.043 H 
ATOM     27  H12 MOL d          16.051  32.173  14.351  0.00  0.00     0.043 H 
BRANCH  25  28
ATOM     28  C38 MOL d          15.839  33.460  16.057  0.00  0.00    -0.056 A 
ATOM     29  C37 MOL d          16.192  34.604  15.352  0.00  0.00    -0.077 A 
ATOM     30  C36 MOL d          15.955  35.865  15.896  0.00  0.00    -0.082 A 
ATOM     31  H13 MOL d          16.654  34.516  14.375  0.00  0.00     0.084 H 
ATOM     32  C35 MOL d          15.357  35.986  17.145  0.00  0.00    -0.083 A 
ATOM     33  H14 MOL d          16.237  36.754  15.344  0.00  0.00     0.083 H 
ATOM     34  C34 MOL d          15.000  34.843  17.850  0.00  0.00    -0.082 A 
ATOM     35  H15 MOL d          15.169  36.968  17.567  0.00  0.00     0.083 H 
ATOM     36  C33 MOL d          15.236  33.586  17.300  0.00  0.00    -0.077 A 
ATOM     37  H16 MOL d          14.539  34.930  18.828  0.00  0.00     0.083 H 
ATOM     38  H17 MOL d          14.945  32.697  17.848  0.00  0.00     0.084 H 
ENDBRANCH  25  28
ENDBRANCH   3  25
ENDBRANCH   1   3
BRANCH   1  39
ATOM     39  O18 MOL d          17.992  32.072  13.531  0.00  0.00    -0.392 OA
ATOM     40  H19 MOL d          18.723  32.204  12.939  0.00  0.00     0.210 HD
ENDBRANCH   1  39
BRANCH   1  41
ATOM     41  C16 MOL d          18.563  29.854  14.263  0.00  0.00     0.019 C 
ATOM     42  H20 MOL d          17.594  29.485  13.895  0.00  0.00     0.061 H 
ATOM     43  H21 MOL d          18.877  29.256  15.131  0.00  0.00     0.061 H 
BRANCH  41  44
ATOM     44  N11 MOL d          19.582  29.743  13.186  0.00  0.00    -0.204 NA
BRANCH  44  45
ATOM     45  C12 MOL d          19.024  29.141  11.952  0.00  0.00    -0.004 C 
ATOM     46  H22 MOL d          19.670  28.308  11.639  0.00  0.00     0.058 H 
ATOM     47  H23 MOL d          19.004  29.906  11.162  0.00  0.00     0.058 H 
BRANCH  45  48
ATOM     48  C13 MOL d          17.596  28.611  12.170  0.00  0.00    -0.046 C 
ATOM     49  H24 MOL d          17.263  28.950  13.161  0.00  0.00     0.041 H 
BRANCH  48  50
ATOM     50  C14 MOL d          16.576  29.115  11.148  0.00  0.00    -0.072 C 
ATOM     51  H25 MOL d          15.566  28.807  11.456  0.00  0.00     0.028 H 
ATOM     52  H26 MOL d          16.805  28.688  10.160  0.00  0.00     0.028 H 
ATOM     53  H27 MOL d          16.623  30.213  11.094  0.00  0.00     0.028 H 
ENDBRANCH  48  50
BRANCH  48  54
ATOM     54  C15 MOL d          17.629  27.078  12.167  0.00  0.00    -0.064 C 
ATOM     55  H28 MOL d          16.686  26.710  12.595  0.00  0.00     0.033 H 
ATOM     56  H29 MOL d          18.471  26.748  12.794  0.00  0.00     0.033 H 
BRANCH  54  57
ATOM     57  C18 MOL d          17.796  26.473  10.782  0.00  0.00    -0.076 C 
ATOM     58  H30 MOL d          17.631  25.387  10.834  0.00  0.00     0.027 H 
ATOM     59  H31 MOL d          18.815  26.672  10.415  0.00  0.00     0.027 H 
ATOM     60  H32 MOL d          17.065  26.923  10.094  0.00  0.00     0.027 H 
ENDBRANCH  54  57
ENDBRANCH  48  54
ENDBRANCH  45  48
ENDBRANCH  44  45
BRANCH  44  61
ATOM     61  S8  MOL d          20.999  29.088  13.652  0.00  0.00     0.243 S 
ATOM     62  O10 MOL d          20.746  28.347  14.850  0.00  0.00    -0.206 OA
ATOM     63  O9  MOL d          21.908  30.198  13.816  0.00  0.00    -0.206 OA
BRANCH  61  64
ATOM     64  C5  MOL d          21.610  28.100  12.488  0.00  0.00     0.076 A 
ATOM     65  C6  MOL d          22.663  28.579  11.707  0.00  0.00    -0.059 A 
ATOM     66  C7  MOL d          23.274  27.781  10.741  0.00  0.00    -0.052 A 
ATOM     67  H33 MOL d          23.014  29.594  11.855  0.00  0.00     0.086 H 
ATOM     68  C2  MOL d          22.843  26.489  10.514  0.00  0.00     0.074 A 
ATOM     69  H34 MOL d          24.098  28.179  10.161  0.00  0.00     0.087 H 
ATOM     70  C3  MOL d          21.781  25.981  11.265  0.00  0.00     0.036 A 
ATOM     71  N1  MOL d          23.290  25.566   9.631  0.00  0.00    -0.253 NA
ATOM     72  C4  MOL d          21.176  26.787  12.244  0.00  0.00    -0.042 A 
ATOM     73  S1  MOL d          21.332  24.373  10.885  0.00  0.00    -0.081 SA
ATOM     74  H35 MOL d          20.353  26.386  12.824  0.00  0.00     0.088 H 
ATOM     75  C1  MOL d          22.604  24.415   9.703  0.00  0.00     0.041 A 
ATOM     76  H36 MOL d          22.831  23.563   9.063  0.00  0.00     0.126 H 
ENDBRANCH  61  64
ENDBRANCH  44  61
ENDBRANCH  41  44
ENDBRANCH   1  41
TORSDOF 17
ENDMDL
MODEL 4
REMARK VINA RESULT:      -7.7      2.810      9.573
REMARK  17 active torsions:
REMARK  status: ('A' for Active; 'I' for Inactive)
REMARK    1  A    between atoms: C24_4  and  C22_7 
REMARK    2  A    between atoms: C22_7  and  O23_8 
REMARK    3  A    between atoms: O23_8  and  C21_9 
REMARK       I    between atoms: C21_9  and  N20_11 
REMARK    4  A    between atoms: N20_11  and  C19_12 
REMARK    5  A    between atoms: C19_12  and  C32_13 
REMARK    6  A    between atoms: C19_12  and  C17_20 
REMARK    7  A    between atoms: C32_13  and  C38_14 
REMARK    8  A    between atoms: C17_20  and  O18_21 
REMARK    9  A    between atoms: C17_20  and  C16_22 
REMARK   10  A    between atoms: C16_22  and  N11_23 
REMARK   11  A    between atoms: N11_23  and  C12_24 
REMARK   12  A    between atoms: N11_23  and  S8_29 
REMARK   13  A    between atoms: C12_24  and  C13_25 
REMARK   14  A    between atoms: C13_25  and  C14_26 
REMARK   15  A    between atoms: C13_25  and  C15_27 
REMARK   16  A    between atoms: C15_27  and  C18_28 
REMARK   17  A    between atoms: S8_29  and  C5_32 
ROOT
ATOM      1  C17 MOL d          18.074  30.848  14.401  0.00  0.00     0.067 C 
ATOM      2  H18 MOL d          18.963  31.409  14.079  0.00  0.00     0.088 H 
ENDROOT
BRANCH   1   3
ATOM      3  C19 MOL d          17.598  31.448  15.726  0.00  0.00     0.044 C 
ATOM      4  H10 MOL d          17.714  30.678  16.503  0.00  0.00     0.077 H 
BRANCH   3   5
ATOM      5  N20 MOL d          18.429  32.591  16.069  0.00  0.00    -0.329 N 
ATOM      6  C21 MOL d          19.702  32.543  16.447  0.00  0.00     0.361 C 
ATOM      7  O22 MOL d          20.392  31.539  16.510  0.00  0.00    -0.239 OA
ATOM      8  H9  MOL d          18.003  33.494  16.016  0.00  0.00     0.165 HD
BRANCH   6   9
ATOM      9  O23 MOL d          20.287  33.810  16.851  0.00  0.00    -0.302 OA
BRANCH   9  10
ATOM     10  C22 MOL d          21.204  34.478  15.983  0.00  0.00     0.049 C 
ATOM     11  H7  MOL d          22.146  33.914  15.919  0.00  0.00     0.078 H 
ATOM     12  H8  MOL d          20.769  34.583  14.978  0.00  0.00     0.078 H 
BRANCH  10  13
ATOM     13  C24 MOL d          21.454  35.847  16.592  0.00  0.00     0.034 C 
ATOM     14  N29 MOL d          20.206  36.550  16.731  0.00  0.00    -0.354 N 
ATOM     15  C27 MOL d          19.817  36.714  17.983  0.00  0.00     0.218 C 
ATOM     16  H1  MOL d          19.680  36.884  15.949  0.00  0.00     0.162 HD
ATOM     17  O28 MOL d          18.798  37.257  18.340  0.00  0.00    -0.274 OA
ATOM     18  C26 MOL d          20.837  36.151  18.940  0.00  0.00     0.011 C 
ATOM     19  C25 MOL d          21.989  35.770  18.023  0.00  0.00    -0.036 C 
ATOM     20  H5  MOL d          20.443  35.269  19.466  0.00  0.00     0.047 H 
ATOM     21  H6  MOL d          21.151  36.907  19.675  0.00  0.00     0.047 H 
ATOM     22  H3  MOL d          22.826  36.472  18.153  0.00  0.00     0.036 H 
ATOM     23  H4  MOL d          22.329  34.747  18.246  0.00  0.00     0.036 H 
ATOM     24  H2  MOL d          22.152  36.406  15.953  0.00  0.00     0.075 H 
ENDBRANCH  10  13
ENDBRANCH   9  10
ENDBRANCH   6   9
ENDBRANCH   3   5
BRANCH   3  25
ATOM     25  C32 MOL d          16.134  31.898  15.726  0.00  0.00    -0.020 C 
ATOM     26  H11 MOL d          15.561  31.254  16.409  0.00  0.00     0.043 H 
ATOM     27  H12 MOL d          15.730  31.804  14.707  0.00  0.00     0.043 H 
BRANCH  25  28
ATOM     28  C38 MOL d          15.999  33.345  16.179  0.00  0.00    -0.056 A 
ATOM     29  C37 MOL d          16.316  34.372  15.298  0.00  0.00    -0.077 A 
ATOM     30  C36 MOL d          16.193  35.701  15.698  0.00  0.00    -0.082 A 
ATOM     31  H13 MOL d          16.660  34.138  14.297  0.00  0.00     0.084 H 
ATOM     32  C35 MOL d          15.746  36.008  16.977  0.00  0.00    -0.083 A 
ATOM     33  H14 MOL d          16.446  36.498  15.008  0.00  0.00     0.083 H 
ATOM     34  C34 MOL d          15.426  34.982  17.859  0.00  0.00    -0.082 A 
ATOM     35  H15 MOL d          15.647  37.043  17.286  0.00  0.00     0.083 H 
ATOM     36  C33 MOL d          15.547  33.656  17.453  0.00  0.00    -0.077 A 
ATOM     37  H16 MOL d          15.083  35.215  18.860  0.00  0.00     0.083 H 
ATOM     38  H17 MOL d          15.285  32.859  18.139  0.00  0.00     0.084 H 
ENDBRANCH  25  28
ENDBRANCH   3  25
ENDBRANCH   1   3
BRANCH   1  39
ATOM     39  O18 MOL d          17.055  30.986  13.406  0.00  0.00    -0.392 OA
ATOM     40  H19 MOL d          17.314  30.516  12.622  0.00  0.00     0.210 HD
ENDBRANCH   1  39
BRANCH   1  41
ATOM     41  C16 MOL d          18.454  29.364  14.500  0.00  0.00     0.019 C 
ATOM     42  H20 MOL d          17.544  28.756  14.615  0.00  0.00     0.061 H 
ATOM     43  H21 MOL d          19.111  29.207  15.368  0.00  0.00     0.061 H 
BRANCH  41  44
ATOM     44  N11 MOL d          19.166  28.967  13.256  0.00  0.00    -0.204 NA
BRANCH  44  45
ATOM     45  C12 MOL d          20.073  30.032  12.771  0.00  0.00    -0.004 C 
ATOM     46  H22 MOL d          19.608  31.011  12.961  0.00  0.00     0.058 H 
ATOM     47  H23 MOL d          20.227  29.903  11.689  0.00  0.00     0.058 H 
BRANCH  45  48
ATOM     48  C13 MOL d          21.440  29.985  13.477  0.00  0.00    -0.046 C 
ATOM     49  H24 MOL d          21.262  29.715  14.528  0.00  0.00     0.041 H 
BRANCH  48  50
ATOM     50  C14 MOL d          22.411  28.955  12.898  0.00  0.00    -0.072 C 
ATOM     51  H25 MOL d          22.025  28.587  11.936  0.00  0.00     0.028 H 
ATOM     52  H26 MOL d          22.512  28.113  13.599  0.00  0.00     0.028 H 
ATOM     53  H27 MOL d          23.394  29.424  12.743  0.00  0.00     0.028 H 
ENDBRANCH  48  50
BRANCH  48  54
ATOM     54  C15 MOL d          22.070  31.382  13.435  0.00  0.00    -0.064 C 
ATOM     55  H28 MOL d          21.268  32.128  13.535  0.00  0.00     0.033 H 
ATOM     56  H29 MOL d          22.570  31.509  12.464  0.00  0.00     0.033 H 
BRANCH  54  57
ATOM     57  C18 MOL d          23.091  31.625  14.536  0.00  0.00    -0.076 C 
ATOM     58  H30 MOL d          23.935  32.202  14.131  0.00  0.00     0.027 H 
ATOM     59  H31 MOL d          23.456  30.660  14.918  0.00  0.00     0.027 H 
ATOM     60  H32 MOL d          22.620  32.189  15.355  0.00  0.00     0.027 H 
ENDBRANCH  54  57
ENDBRANCH  48  54
ENDBRANCH  45  48
ENDBRANCH  44  45
BRANCH  44  61
ATOM     61  S8  MOL d          18.212  28.339  12.095  0.00  0.00     0.243 S 
ATOM     62  O10 MOL d          18.114  29.319  11.056  0.00  0.00    -0.206 OA
ATOM     63  O9  MOL d          16.959  28.027  12.742  0.00  0.00    -0.206 OA
BRANCH  61  64
ATOM     64  C5  MOL d          18.839  26.939  11.501  0.00  0.00     0.076 A 
ATOM     65  C6  MOL d          18.073  25.777  11.616  0.00  0.00    -0.059 A 
ATOM     66  C7  MOL d          18.509  24.564  11.084  0.00  0.00    -0.052 A 
ATOM     67  H33 MOL d          17.119  25.819  12.129  0.00  0.00     0.086 H 
ATOM     68  C2  MOL d          19.725  24.470  10.440  0.00  0.00     0.074 A 
ATOM     69  H34 MOL d          17.884  23.684  11.179  0.00  0.00     0.087 H 
ATOM     70  C3  MOL d          20.526  25.608  10.320  0.00  0.00     0.036 A 
ATOM     71  N1  MOL d          20.326  23.400   9.868  0.00  0.00    -0.253 NA
ATOM     72  C4  MOL d          20.077  26.830  10.849  0.00  0.00    -0.042 A 
ATOM     73  S1  MOL d          22.014  25.363   9.509  0.00  0.00    -0.081 SA
ATOM     74  H35 MOL d          20.702  27.710  10.751  0.00  0.00     0.088 H 
ATOM     75  C1  MOL d          21.522  23.705   9.342  0.00  0.00     0.041 A 
ATOM     76  H36 MOL d          22.144  22.963   8.843  0.00  0.00     0.126 H 
ENDBRANCH  61  64
ENDBRANCH  44  61
ENDBRANCH  41  44
ENDBRANCH   1  41
TORSDOF 17
ENDMDL
MODEL 5
REMARK VINA RESULT:      -7.7      2.786      8.538
REMARK  17 active torsions:
REMARK  status: ('A' for Active; 'I' for Inactive)
REMARK    1  A    between atoms: C24_4  and  C22_7 
REMARK    2  A    between atoms: C22_7  and  O23_8 
REMARK    3  A    between atoms: O23_8  and  C21_9 
REMARK       I    between atoms: C21_9  and  N20_11 
REMARK    4  A    between atoms: N20_11  and  C19_12 
REMARK    5  A    between atoms: C19_12  and  C32_13 
REMARK    6  A    between atoms: C19_12  and  C17_20 
REMARK    7  A    between atoms: C32_13  and  C38_14 
REMARK    8  A    between atoms: C17_20  and  O18_21 
REMARK    9  A    between atoms: C17_20  and  C16_22 
REMARK   10  A    between atoms: C16_22  and  N11_23 
REMARK   11  A    between atoms: N11_23  and  C12_24 
REMARK   12  A    between atoms: N11_23  and  S8_29 
REMARK   13  A    between atoms: C12_24  and  C13_25 
REMARK   14  A    between atoms: C13_25  and  C14_26 
REMARK   15  A    between atoms: C13_25  and  C15_27 
REMARK   16  A    between atoms: C15_27  and  C18_28 
REMARK   17  A    between atoms: S8_29  and  C5_32 
ROOT
ATOM      1  C17 MOL d          19.132  30.486  15.764  0.00  0.00     0.067 C 
ATOM      2  H18 MOL d          19.731  29.579  15.596  0.00  0.00     0.088 H 
ENDROOT
BRANCH   1   3
ATOM      3  C19 MOL d          17.778  30.285  15.079  0.00  0.00     0.044 C 
ATOM      4  H10 MOL d          17.488  29.232  15.214  0.00  0.00     0.077 H 
BRANCH   3   5
ATOM      5  N20 MOL d          16.781  31.132  15.714  0.00  0.00    -0.329 N 
ATOM      6  C21 MOL d          16.522  32.398  15.402  0.00  0.00     0.361 C 
ATOM      7  O22 MOL d          17.038  33.032  14.496  0.00  0.00    -0.239 OA
ATOM      8  H9  MOL d          16.243  30.725  16.451  0.00  0.00     0.165 HD
BRANCH   6   9
ATOM      9  O23 MOL d          15.561  33.073  16.257  0.00  0.00    -0.302 OA
BRANCH   9  10
ATOM     10  C22 MOL d          15.518  34.500  16.291  0.00  0.00     0.049 C 
ATOM     11  H7  MOL d          16.280  34.919  15.616  0.00  0.00     0.078 H 
ATOM     12  H8  MOL d          14.523  34.858  15.988  0.00  0.00     0.078 H 
BRANCH  10  13
ATOM     13  C24 MOL d          15.808  34.906  17.725  0.00  0.00     0.034 C 
ATOM     14  N29 MOL d          17.229  35.014  17.921  0.00  0.00    -0.354 N 
ATOM     15  C27 MOL d          17.654  36.251  18.106  0.00  0.00     0.218 C 
ATOM     16  H1  MOL d          17.840  34.223  17.917  0.00  0.00     0.162 HD
ATOM     17  O28 MOL d          18.804  36.585  18.272  0.00  0.00    -0.274 OA
ATOM     18  C26 MOL d          16.499  37.220  18.111  0.00  0.00     0.011 C 
ATOM     19  C25 MOL d          15.286  36.303  18.062  0.00  0.00    -0.036 C 
ATOM     20  H5  MOL d          16.531  37.880  17.232  0.00  0.00     0.047 H 
ATOM     21  H6  MOL d          16.497  37.829  19.028  0.00  0.00     0.047 H 
ATOM     22  H3  MOL d          14.778  36.293  19.038  0.00  0.00     0.036 H 
ATOM     23  H4  MOL d          14.585  36.644  17.286  0.00  0.00     0.036 H 
ATOM     24  H2  MOL d          15.372  34.161  18.406  0.00  0.00     0.075 H 
ENDBRANCH  10  13
ENDBRANCH   9  10
ENDBRANCH   6   9
ENDBRANCH   3   5
BRANCH   3  25
ATOM     25  C32 MOL d          17.780  30.583  13.577  0.00  0.00    -0.020 C 
ATOM     26  H11 MOL d          18.663  31.193  13.334  0.00  0.00     0.043 H 
ATOM     27  H12 MOL d          16.867  31.141  13.321  0.00  0.00     0.043 H 
BRANCH  25  28
ATOM     28  C38 MOL d          17.822  29.302  12.757  0.00  0.00    -0.056 A 
ATOM     29  C37 MOL d          17.511  28.090  13.363  0.00  0.00    -0.077 A 
ATOM     30  C36 MOL d          17.540  26.909  12.624  0.00  0.00    -0.082 A 
ATOM     31  H13 MOL d          17.244  28.064  14.413  0.00  0.00     0.084 H 
ATOM     32  C35 MOL d          17.874  26.936  11.275  0.00  0.00    -0.083 A 
ATOM     33  H14 MOL d          17.301  25.967  13.102  0.00  0.00     0.083 H 
ATOM     34  C34 MOL d          18.183  28.147  10.667  0.00  0.00    -0.082 A 
ATOM     35  H15 MOL d          17.894  26.017  10.700  0.00  0.00     0.083 H 
ATOM     36  C33 MOL d          18.148  29.325  11.409  0.00  0.00    -0.077 A 
ATOM     37  H16 MOL d          18.451  28.175   9.617  0.00  0.00     0.083 H 
ATOM     38  H17 MOL d          18.378  30.269  10.929  0.00  0.00     0.084 H 
ENDBRANCH  25  28
ENDBRANCH   3  25
ENDBRANCH   1   3
BRANCH   1  39
ATOM     39  O18 MOL d          18.948  30.664  17.171  0.00  0.00    -0.392 OA
ATOM     40  H19 MOL d          19.025  31.586  17.385  0.00  0.00     0.210 HD
ENDBRANCH   1  39
BRANCH   1  41
ATOM     41  C16 MOL d          19.921  31.687  15.224  0.00  0.00     0.019 C 
ATOM     42  H20 MOL d          19.694  32.579  15.827  0.00  0.00     0.061 H 
ATOM     43  H21 MOL d          19.642  31.872  14.177  0.00  0.00     0.061 H 
BRANCH  41  44
ATOM     44  N11 MOL d          21.374  31.384  15.308  0.00  0.00    -0.204 NA
BRANCH  44  45
ATOM     45  C12 MOL d          22.060  32.224  16.317  0.00  0.00    -0.004 C 
ATOM     46  H22 MOL d          23.097  32.396  15.991  0.00  0.00     0.058 H 
ATOM     47  H23 MOL d          22.062  31.693  17.280  0.00  0.00     0.058 H 
BRANCH  45  48
ATOM     48  C13 MOL d          21.363  33.584  16.499  0.00  0.00    -0.046 C 
ATOM     49  H24 MOL d          20.326  33.475  16.150  0.00  0.00     0.041 H 
BRANCH  48  50
ATOM     50  C14 MOL d          21.310  34.074  17.946  0.00  0.00    -0.072 C 
ATOM     51  H25 MOL d          22.096  33.576  18.531  0.00  0.00     0.028 H 
ATOM     52  H26 MOL d          20.326  33.837  18.377  0.00  0.00     0.028 H 
ATOM     53  H27 MOL d          21.468  35.163  17.971  0.00  0.00     0.028 H 
ENDBRANCH  48  50
BRANCH  48  54
ATOM     54  C15 MOL d          22.064  34.624  15.617  0.00  0.00    -0.064 C 
ATOM     55  H28 MOL d          21.736  34.476  14.578  0.00  0.00     0.033 H 
ATOM     56  H29 MOL d          23.150  34.462  15.686  0.00  0.00     0.033 H 
BRANCH  54  57
ATOM     57  C18 MOL d          21.767  36.061  16.014  0.00  0.00    -0.076 C 
ATOM     58  H30 MOL d          22.343  36.319  16.915  0.00  0.00     0.027 H 
ATOM     59  H31 MOL d          20.692  36.170  16.222  0.00  0.00     0.027 H 
ATOM     60  H32 MOL d          22.051  36.735  15.192  0.00  0.00     0.027 H 
ENDBRANCH  54  57
ENDBRANCH  48  54
ENDBRANCH  45  48
ENDBRANCH  44  45
BRANCH  44  61
ATOM     61  S8  MOL d          22.143  31.323  13.874  0.00  0.00     0.243 S 
ATOM     62  O10 MOL d          23.495  31.730  14.104  0.00  0.00    -0.206 OA
ATOM     63  O9  MOL d          21.399  32.194  12.993  0.00  0.00    -0.206 OA
BRANCH  61  64
ATOM     64  C5  MOL d          22.103  29.806  13.240  0.00  0.00     0.076 A 
ATOM     65  C6  MOL d          21.170  28.904  13.756  0.00  0.00    -0.059 A 
ATOM     66  C7  MOL d          21.034  27.620  13.231  0.00  0.00    -0.052 A 
ATOM     67  H33 MOL d          20.538  29.209  14.581  0.00  0.00     0.086 H 
ATOM     68  C2  MOL d          21.833  27.192  12.190  0.00  0.00     0.074 A 
ATOM     69  H34 MOL d          20.291  26.949  13.645  0.00  0.00     0.087 H 
ATOM     70  C3  MOL d          22.789  28.061  11.659  0.00  0.00     0.036 A 
ATOM     71  N1  MOL d          21.864  25.999  11.552  0.00  0.00    -0.253 NA
ATOM     72  C4  MOL d          22.915  29.358  12.186  0.00  0.00    -0.042 A 
ATOM     73  S1  MOL d          23.724  27.412  10.380  0.00  0.00    -0.081 SA
ATOM     74  H35 MOL d          23.657  30.028  11.768  0.00  0.00     0.088 H 
ATOM     75  C1  MOL d          22.796  25.959  10.586  0.00  0.00     0.041 A 
ATOM     76  H36 MOL d          22.959  25.074   9.972  0.00  0.00     0.126 H 
ENDBRANCH  61  64
ENDBRANCH  44  61
ENDBRANCH  41  44
ENDBRANCH   1  41
TORSDOF 17
ENDMDL
MODEL 6
REMARK VINA RESULT:      -7.6      2.793      8.625
REMARK  17 active torsions:
REMARK  status: ('A' for Active; 'I' for Inactive)
REMARK    1  A    between atoms: C24_4  and  C22_7 
REMARK    2  A    between atoms: C22_7  and  O23_8 
REMARK    3  A    between atoms: O23_8  and  C21_9 
REMARK       I    between atoms: C21_9  and  N20_11 
REMARK    4  A    between atoms: N20_11  and  C19_12 
REMARK    5  A    between atoms: C19_12  and  C32_13 
REMARK    6  A    between atoms: C19_12  and  C17_20 
REMARK    7  A    between atoms: C32_13  and  C38_14 
REMARK    8  A    between atoms: C17_20  and  O18_21 
REMARK    9  A    between atoms: C17_20  and  C16_22 
REMARK   10  A    between atoms: C16_22  and  N11_23 
REMARK   11  A    between atoms: N11_23  and  C12_24 
REMARK   12  A    between atoms: N11_23  and  S8_29 
REMARK   13  A    between atoms: C12_24  and  C13_25 
REMARK   14  A    between atoms: C13_25  and  C14_26 
REMARK   15  A    between atoms: C13_25  and  C15_27 
REMARK   16  A    between atoms: C15_27  and  C18_28 
REMARK   17  A    between atoms: S8_29  and  C5_32 
ROOT
ATOM      1  C17 MOL d          19.092  29.807  15.209  0.00  0.00     0.067 C 
ATOM      2  H18 MOL d          18.423  28.935  15.172  0.00  0.00     0.088 H 
ENDROOT
BRANCH   1   3
ATOM      3  C19 MOL d          18.293  30.987  15.767  0.00  0.00     0.044 C 
ATOM      4  H10 MOL d          17.495  30.578  16.406  0.00  0.00     0.077 H 
BRANCH   3   5
ATOM      5  N20 MOL d          19.163  31.822  16.579  0.00  0.00    -0.329 N 
ATOM      6  C21 MOL d          19.914  32.825  16.138  0.00  0.00     0.361 C 
ATOM      7  O22 MOL d          19.950  33.241  14.991  0.00  0.00    -0.239 OA
ATOM      8  H9  MOL d          19.198  31.624  17.559  0.00  0.00     0.165 HD
BRANCH   6   9
ATOM      9  O23 MOL d          20.789  33.438  17.122  0.00  0.00    -0.302 OA
BRANCH   9  10
ATOM     10  C22 MOL d          21.848  34.297  16.696  0.00  0.00     0.049 C 
ATOM     11  H7  MOL d          21.583  34.783  15.746  0.00  0.00     0.078 H 
ATOM     12  H8  MOL d          22.045  35.064  17.459  0.00  0.00     0.078 H 
BRANCH  10  13
ATOM     13  C24 MOL d          23.070  33.414  16.511  0.00  0.00     0.034 C 
ATOM     14  N29 MOL d          22.655  32.058  16.271  0.00  0.00    -0.354 N 
ATOM     15  C27 MOL d          22.891  31.633  15.042  0.00  0.00     0.218 C 
ATOM     16  H1  MOL d          22.227  31.487  16.971  0.00  0.00     0.162 HD
ATOM     17  O28 MOL d          22.614  30.539  14.607  0.00  0.00    -0.274 OA
ATOM     18  C26 MOL d          23.590  32.695  14.232  0.00  0.00     0.011 C 
ATOM     19  C25 MOL d          23.877  33.775  15.264  0.00  0.00    -0.036 C 
ATOM     20  H5  MOL d          22.939  33.076  13.431  0.00  0.00     0.047 H 
ATOM     21  H6  MOL d          24.523  32.310  13.793  0.00  0.00     0.047 H 
ATOM     22  H3  MOL d          24.951  33.798  15.500  0.00  0.00     0.036 H 
ATOM     23  H4  MOL d          23.565  34.758  14.881  0.00  0.00     0.036 H 
ATOM     24  H2  MOL d          23.702  33.480  17.408  0.00  0.00     0.075 H 
ENDBRANCH  10  13
ENDBRANCH   9  10
ENDBRANCH   6   9
ENDBRANCH   3   5
BRANCH   3  25
ATOM     25  C32 MOL d          17.636  31.867  14.700  0.00  0.00    -0.020 C 
ATOM     26  H11 MOL d          17.038  31.232  14.030  0.00  0.00     0.043 H 
ATOM     27  H12 MOL d          18.422  32.373  14.120  0.00  0.00     0.043 H 
BRANCH  25  28
ATOM     28  C38 MOL d          16.731  32.917  15.327  0.00  0.00    -0.056 A 
ATOM     29  C37 MOL d          15.809  32.537  16.295  0.00  0.00    -0.077 A 
ATOM     30  C36 MOL d          14.977  33.488  16.882  0.00  0.00    -0.082 A 
ATOM     31  H13 MOL d          15.737  31.497  16.594  0.00  0.00     0.084 H 
ATOM     32  C35 MOL d          15.068  34.824  16.509  0.00  0.00    -0.083 A 
ATOM     33  H14 MOL d          14.256  33.185  17.632  0.00  0.00     0.083 H 
ATOM     34  C34 MOL d          15.992  35.206  15.543  0.00  0.00    -0.082 A 
ATOM     35  H15 MOL d          14.422  35.563  16.968  0.00  0.00     0.083 H 
ATOM     36  C33 MOL d          16.824  34.252  14.963  0.00  0.00    -0.077 A 
ATOM     37  H16 MOL d          16.065  36.245  15.242  0.00  0.00     0.083 H 
ATOM     38  H17 MOL d          17.552  34.556  14.219  0.00  0.00     0.084 H 
ENDBRANCH  25  28
ENDBRANCH   3  25
ENDBRANCH   1   3
BRANCH   1  39
ATOM     39  O18 MOL d          20.194  29.508  16.071  0.00  0.00    -0.392 OA
ATOM     40  H19 MOL d          21.008  29.694  15.618  0.00  0.00     0.210 HD
ENDBRANCH   1  39
BRANCH   1  41
ATOM     41  C16 MOL d          19.638  30.050  13.794  0.00  0.00     0.019 C 
ATOM     42  H20 MOL d          20.708  30.301  13.849  0.00  0.00     0.061 H 
ATOM     43  H21 MOL d          19.091  30.880  13.324  0.00  0.00     0.061 H 
BRANCH  41  44
ATOM     44  N11 MOL d          19.455  28.813  12.990  0.00  0.00    -0.204 NA
BRANCH  44  45
ATOM     45  C12 MOL d          20.522  28.645  11.976  0.00  0.00    -0.004 C 
ATOM     46  H22 MOL d          21.072  29.592  11.878  0.00  0.00     0.058 H 
ATOM     47  H23 MOL d          20.059  28.389  11.012  0.00  0.00     0.058 H 
BRANCH  45  48
ATOM     48  C13 MOL d          21.511  27.532  12.365  0.00  0.00    -0.046 C 
ATOM     49  H24 MOL d          21.382  27.332  13.438  0.00  0.00     0.041 H 
BRANCH  48  50
ATOM     50  C14 MOL d          21.295  26.212  11.624  0.00  0.00    -0.072 C 
ATOM     51  H25 MOL d          21.608  26.324  10.576  0.00  0.00     0.028 H 
ATOM     52  H26 MOL d          20.229  25.941  11.662  0.00  0.00     0.028 H 
ATOM     53  H27 MOL d          21.892  25.421  12.102  0.00  0.00     0.028 H 
ENDBRANCH  48  50
BRANCH  48  54
ATOM     54  C15 MOL d          22.941  28.036  12.135  0.00  0.00    -0.064 C 
ATOM     55  H28 MOL d          23.395  28.251  13.114  0.00  0.00     0.033 H 
ATOM     56  H29 MOL d          22.893  28.961  11.541  0.00  0.00     0.033 H 
BRANCH  54  57
ATOM     57  C18 MOL d          23.829  27.042  11.402  0.00  0.00    -0.076 C 
ATOM     58  H30 MOL d          23.212  26.218  11.012  0.00  0.00     0.027 H 
ATOM     59  H31 MOL d          24.580  26.639  12.098  0.00  0.00     0.027 H 
ATOM     60  H32 MOL d          24.335  27.548  10.568  0.00  0.00     0.027 H 
ENDBRANCH  54  57
ENDBRANCH  48  54
ENDBRANCH  45  48
ENDBRANCH  44  45
BRANCH  44  61
ATOM     61  S8  MOL d          17.952  28.597  12.401  0.00  0.00     0.243 S 
ATOM     62  O10 MOL d          17.584  29.809  11.735  0.00  0.00    -0.206 OA
ATOM     63  O9  MOL d          17.128  28.269  13.541  0.00  0.00    -0.206 OA
BRANCH  61  64
ATOM     64  C5  MOL d          17.897  27.330  11.354  0.00  0.00     0.076 A 
ATOM     65  C6  MOL d          17.968  27.606   9.987  0.00  0.00    -0.059 A 
ATOM     66  C7  MOL d          17.988  26.583   9.040  0.00  0.00    -0.052 A 
ATOM     67  H33 MOL d          18.007  28.637   9.655  0.00  0.00     0.086 H 
ATOM     68  C2  MOL d          17.922  25.260   9.426  0.00  0.00     0.074 A 
ATOM     69  H34 MOL d          18.057  26.830   7.987  0.00  0.00     0.087 H 
ATOM     70  C3  MOL d          17.835  24.946  10.784  0.00  0.00     0.036 A 
ATOM     71  N1  MOL d          17.921  24.134   8.673  0.00  0.00    -0.253 NA
ATOM     72  C4  MOL d          17.824  25.981  11.734  0.00  0.00    -0.042 A 
ATOM     73  S1  MOL d          17.750  23.272  11.135  0.00  0.00    -0.081 SA
ATOM     74  H35 MOL d          17.758  25.731  12.787  0.00  0.00     0.088 H 
ATOM     75  C1  MOL d          17.836  23.021   9.418  0.00  0.00     0.041 A 
ATOM     76  H36 MOL d          17.821  22.025   8.976  0.00  0.00     0.126 H 
ENDBRANCH  61  64
ENDBRANCH  44  61
ENDBRANCH  41  44
ENDBRANCH   1  41
TORSDOF 17
ENDMDL
MODEL 7
REMARK VINA RESULT:      -7.6      2.747      9.921
REMARK  17 active torsions:
REMARK  status: ('A' for Active; 'I' for Inactive)
REMARK    1  A    between atoms: C24_4  and  C22_7 
REMARK    2  A    between atoms: C22_7  and  O23_8 
REMARK    3  A    between atoms: O23_8  and  C21_9 
REMARK       I    between atoms: C21_9  and  N20_11 
REMARK    4  A    between atoms: N20_11  and  C19_12 
REMARK    5  A    between atoms: C19_12  and  C32_13 
REMARK    6  A    between atoms: C19_12  and  C17_20 
REMARK    7  A    between atoms: C32_13  and  C38_14 
REMARK    8  A    between atoms: C17_20  and  O18_21 
REMARK    9  A    between atoms: C17_20  and  C16_22 
REMARK   10  A    between atoms: C16_22  and  N11_23 
REMARK   11  A    between atoms: N11_23  and  C12_24 
REMARK   12  A    between atoms: N11_23  and  S8_29 
REMARK   13  A    between atoms: C12_24  and  C13_25 
REMARK   14  A    between atoms: C13_25  and  C14_26 
REMARK   15  A    between atoms: C13_25  and  C15_27 
REMARK   16  A    between atoms: C15_27  and  C18_28 
REMARK   17  A    between atoms: S8_29  and  C5_32 
ROOT
ATOM      1  C17 MOL d          21.572  31.401  15.368  0.00  0.00     0.067 C 
ATOM      2  H18 MOL d          21.027  30.527  15.752  0.00  0.00     0.088 H 
ENDROOT
BRANCH   1   3
ATOM      3  C19 MOL d          21.085  32.631  16.137  0.00  0.00     0.044 C 
ATOM      4  H10 MOL d          21.115  33.489  15.449  0.00  0.00     0.077 H 
BRANCH   3   5
ATOM      5  N20 MOL d          19.712  32.422  16.569  0.00  0.00    -0.329 N 
ATOM      6  C21 MOL d          18.623  32.854  15.940  0.00  0.00     0.361 C 
ATOM      7  O22 MOL d          18.601  33.443  14.872  0.00  0.00    -0.239 OA
ATOM      8  H9  MOL d          19.575  31.907  17.415  0.00  0.00     0.165 HD
BRANCH   6   9
ATOM      9  O23 MOL d          17.365  32.622  16.629  0.00  0.00    -0.302 OA
BRANCH   9  10
ATOM     10  C22 MOL d          16.152  32.531  15.880  0.00  0.00     0.049 C 
ATOM     11  H7  MOL d          16.368  32.562  14.802  0.00  0.00     0.078 H 
ATOM     12  H8  MOL d          15.624  31.598  16.123  0.00  0.00     0.078 H 
BRANCH  10  13
ATOM     13  C24 MOL d          15.309  33.730  16.281  0.00  0.00     0.034 C 
ATOM     14  N29 MOL d          15.606  34.098  17.639  0.00  0.00    -0.354 N 
ATOM     15  C27 MOL d          16.243  35.250  17.758  0.00  0.00     0.218 C 
ATOM     16  H1  MOL d          15.353  33.533  18.424  0.00  0.00     0.162 HD
ATOM     17  O28 MOL d          16.610  35.751  18.795  0.00  0.00    -0.274 OA
ATOM     18  C26 MOL d          16.440  35.895  16.409  0.00  0.00     0.011 C 
ATOM     19  C25 MOL d          15.649  34.987  15.480  0.00  0.00    -0.036 C 
ATOM     20  H5  MOL d          17.504  35.915  16.131  0.00  0.00     0.047 H 
ATOM     21  H6  MOL d          16.039  36.919  16.397  0.00  0.00     0.047 H 
ATOM     22  H3  MOL d          14.727  35.490  15.153  0.00  0.00     0.036 H 
ATOM     23  H4  MOL d          16.256  34.724  14.600  0.00  0.00     0.036 H 
ATOM     24  H2  MOL d          14.245  33.478  16.165  0.00  0.00     0.075 H 
ENDBRANCH  10  13
ENDBRANCH   9  10
ENDBRANCH   6   9
ENDBRANCH   3   5
BRANCH   3  25
ATOM     25  C32 MOL d          21.929  32.983  17.366  0.00  0.00    -0.020 C 
ATOM     26  H11 MOL d          22.947  32.590  17.225  0.00  0.00     0.043 H 
ATOM     27  H12 MOL d          21.477  32.521  18.256  0.00  0.00     0.043 H 
BRANCH  25  28
ATOM     28  C38 MOL d          22.004  34.488  17.574  0.00  0.00    -0.056 A 
ATOM     29  C37 MOL d          21.858  35.339  16.485  0.00  0.00    -0.077 A 
ATOM     30  C36 MOL d          21.920  36.720  16.661  0.00  0.00    -0.082 A 
ATOM     31  H13 MOL d          21.696  34.927  15.496  0.00  0.00     0.084 H 
ATOM     32  C35 MOL d          22.121  37.256  17.927  0.00  0.00    -0.083 A 
ATOM     33  H14 MOL d          21.810  37.379  15.807  0.00  0.00     0.083 H 
ATOM     34  C34 MOL d          22.264  36.406  19.018  0.00  0.00    -0.082 A 
ATOM     35  H15 MOL d          22.165  38.330  18.064  0.00  0.00     0.083 H 
ATOM     36  C33 MOL d          22.198  35.027  18.838  0.00  0.00    -0.077 A 
ATOM     37  H16 MOL d          22.427  36.817  20.008  0.00  0.00     0.083 H 
ATOM     38  H17 MOL d          22.298  34.369  19.692  0.00  0.00     0.084 H 
ENDBRANCH  25  28
ENDBRANCH   3  25
ENDBRANCH   1   3
BRANCH   1  39
ATOM     39  O18 MOL d          22.973  31.207  15.589  0.00  0.00    -0.392 OA
ATOM     40  H19 MOL d          23.464  31.822  15.058  0.00  0.00     0.210 HD
ENDBRANCH   1  39
BRANCH   1  41
ATOM     41  C16 MOL d          21.331  31.488  13.854  0.00  0.00     0.019 C 
ATOM     42  H20 MOL d          22.268  31.276  13.318  0.00  0.00     0.061 H 
ATOM     43  H21 MOL d          20.980  32.497  13.593  0.00  0.00     0.061 H 
BRANCH  41  44
ATOM     44  N11 MOL d          20.300  30.486  13.474  0.00  0.00    -0.204 NA
BRANCH  44  45
ATOM     45  C12 MOL d          20.321  29.301  14.363  0.00  0.00    -0.004 C 
ATOM     46  H22 MOL d          20.833  29.568  15.300  0.00  0.00     0.058 H 
ATOM     47  H23 MOL d          20.872  28.491  13.863  0.00  0.00     0.058 H 
BRANCH  45  48
ATOM     48  C13 MOL d          18.901  28.809  14.694  0.00  0.00    -0.046 C 
ATOM     49  H24 MOL d          18.876  28.562  15.765  0.00  0.00     0.041 H 
BRANCH  48  50
ATOM     50  C14 MOL d          17.803  29.841  14.437  0.00  0.00    -0.072 C 
ATOM     51  H25 MOL d          18.008  30.748  15.023  0.00  0.00     0.028 H 
ATOM     52  H26 MOL d          16.830  29.423  14.735  0.00  0.00     0.028 H 
ATOM     53  H27 MOL d          17.781  30.094  13.366  0.00  0.00     0.028 H 
ENDBRANCH  48  50
BRANCH  48  54
ATOM     54  C15 MOL d          18.620  27.531  13.895  0.00  0.00    -0.064 C 
ATOM     55  H28 MOL d          19.185  26.705  14.350  0.00  0.00     0.033 H 
ATOM     56  H29 MOL d          18.963  27.685  12.861  0.00  0.00     0.033 H 
BRANCH  54  57
ATOM     57  C18 MOL d          17.149  27.144  13.859  0.00  0.00    -0.076 C 
ATOM     58  H30 MOL d          16.685  27.378  14.829  0.00  0.00     0.027 H 
ATOM     59  H31 MOL d          17.058  26.066  13.660  0.00  0.00     0.027 H 
ATOM     60  H32 MOL d          16.641  27.708  13.063  0.00  0.00     0.027 H 
ENDBRANCH  54  57
ENDBRANCH  48  54
ENDBRANCH  45  48
ENDBRANCH  44  45
BRANCH  44  61
ATOM     61  S8  MOL d          20.260  30.115  11.889  0.00  0.00     0.243 S 
ATOM     62  O10 MOL d          20.862  31.206  11.186  0.00  0.00    -0.206 OA
ATOM     63  O9  MOL d          18.868  29.896  11.572  0.00  0.00    -0.206 OA
BRANCH  61  64
ATOM     64  C5  MOL d          21.076  28.720  11.582  0.00  0.00     0.076 A 
ATOM     65  C6  MOL d          22.433  28.669  11.906  0.00  0.00    -0.059 A 
ATOM     66  C7  MOL d          23.178  27.504  11.733  0.00  0.00    -0.052 A 
ATOM     67  H33 MOL d          22.918  29.554  12.301  0.00  0.00     0.086 H 
ATOM     68  C2  MOL d          22.598  26.363  11.217  0.00  0.00     0.074 A 
ATOM     69  H34 MOL d          24.227  27.493  12.007  0.00  0.00     0.087 H 
ATOM     70  C3  MOL d          21.246  26.381  10.866  0.00  0.00     0.036 A 
ATOM     71  N1  MOL d          23.141  25.148  10.967  0.00  0.00    -0.253 NA
ATOM     72  C4  MOL d          20.498  27.555  11.053  0.00  0.00    -0.042 A 
ATOM     73  S1  MOL d          20.645  24.909  10.229  0.00  0.00    -0.081 SA
ATOM     74  H35 MOL d          19.449  27.562  10.780  0.00  0.00     0.088 H 
ATOM     75  C1  MOL d          22.251  24.286  10.451  0.00  0.00     0.041 A 
ATOM     76  H36 MOL d          22.518  23.263  10.189  0.00  0.00     0.126 H 
ENDBRANCH  61  64
ENDBRANCH  44  61
ENDBRANCH  41  44
ENDBRANCH   1  41
TORSDOF 17
ENDMDL
MODEL 8
REMARK VINA RESULT:      -7.5      2.923      9.350
REMARK  17 active torsions:
REMARK  status: ('A' for Active; 'I' for Inactive)
REMARK    1  A    between atoms: C24_4  and  C22_7 
REMARK    2  A    between atoms: C22_7  and  O23_8 
REMARK    3  A    between atoms: O23_8  and  C21_9 
REMARK       I    between atoms: C21_9  and  N20_11 
REMARK    4  A    between atoms: N20_11  and  C19_12 
REMARK    5  A    between atoms: C19_12  and  C32_13 
REMARK    6  A    between atoms: C19_12  and  C17_20 
REMARK    7  A    between atoms: C32_13  and  C38_14 
REMARK    8  A    between atoms: C17_20  and  O18_21 
REMARK    9  A    between atoms: C17_20  and  C16_22 
REMARK   10  A    between atoms: C16_22  and  N11_23 
REMARK   11  A    between atoms: N11_23  and  C12_24 
REMARK   12  A    between atoms: N11_23  and  S8_29 
REMARK   13  A    between atoms: C12_24  and  C13_25 
REMARK   14  A    between atoms: C13_25  and  C14_26 
REMARK   15  A    between atoms: C13_25  and  C15_27 
REMARK   16  A    between atoms: C15_27  and  C18_28 
REMARK   17  A    between atoms: S8_29  and  C5_32 
ROOT
ATOM      1  C17 MOL d          19.245  30.094  15.720  0.00  0.00     0.067 C 
ATOM      2  H18 MOL d          18.455  29.350  15.894  0.00  0.00     0.088 H 
ENDROOT
BRANCH   1   3
ATOM      3  C19 MOL d          18.692  31.465  16.115  0.00  0.00     0.044 C 
ATOM      4  H10 MOL d          18.009  31.317  16.966  0.00  0.00     0.077 H 
BRANCH   3   5
ATOM      5  N20 MOL d          19.784  32.328  16.534  0.00  0.00    -0.329 N 
ATOM      6  C21 MOL d          20.571  33.035  15.729  0.00  0.00     0.361 C 
ATOM      7  O22 MOL d          20.466  33.117  14.517  0.00  0.00    -0.239 OA
ATOM      8  H9  MOL d          19.959  32.396  17.516  0.00  0.00     0.165 HD
BRANCH   6   9
ATOM      9  O23 MOL d          21.670  33.732  16.376  0.00  0.00    -0.302 OA
BRANCH   9  10
ATOM     10  C22 MOL d          22.087  35.008  15.888  0.00  0.00     0.049 C 
ATOM     11  H7  MOL d          23.157  34.985  15.631  0.00  0.00     0.078 H 
ATOM     12  H8  MOL d          21.502  35.285  14.999  0.00  0.00     0.078 H 
BRANCH  10  13
ATOM     13  C24 MOL d          21.839  36.000  17.010  0.00  0.00     0.034 C 
ATOM     14  N29 MOL d          20.589  36.677  16.791  0.00  0.00    -0.354 N 
ATOM     15  C27 MOL d          19.644  36.358  17.657  0.00  0.00     0.218 C 
ATOM     16  H1  MOL d          20.447  37.331  16.047  0.00  0.00     0.162 HD
ATOM     17  O28 MOL d          18.513  36.785  17.659  0.00  0.00    -0.274 OA
ATOM     18  C26 MOL d          20.168  35.390  18.688  0.00  0.00     0.011 C 
ATOM     19  C25 MOL d          21.653  35.323  18.369  0.00  0.00    -0.036 C 
ATOM     20  H5  MOL d          19.695  34.402  18.581  0.00  0.00     0.047 H 
ATOM     21  H6  MOL d          19.999  35.767  19.708  0.00  0.00     0.047 H 
ATOM     22  H3  MOL d          22.231  35.854  19.139  0.00  0.00     0.036 H 
ATOM     23  H4  MOL d          21.983  34.275  18.319  0.00  0.00     0.036 H 
ATOM     24  H2  MOL d          22.673  36.716  17.051  0.00  0.00     0.075 H 
ENDBRANCH  10  13
ENDBRANCH   9  10
ENDBRANCH   6   9
ENDBRANCH   3   5
BRANCH   3  25
ATOM     25  C32 MOL d          17.913  32.176  15.004  0.00  0.00    -0.020 C 
ATOM     26  H11 MOL d          17.345  31.428  14.431  0.00  0.00     0.043 H 
ATOM     27  H12 MOL d          18.624  32.686  14.339  0.00  0.00     0.043 H 
BRANCH  25  28
ATOM     28  C38 MOL d          16.946  33.202  15.576  0.00  0.00    -0.056 A 
ATOM     29  C37 MOL d          16.919  34.487  15.049  0.00  0.00    -0.077 A 
ATOM     30  C36 MOL d          16.035  35.436  15.559  0.00  0.00    -0.082 A 
ATOM     31  H13 MOL d          17.588  34.753  14.238  0.00  0.00     0.084 H 
ATOM     32  C35 MOL d          15.170  35.101  16.593  0.00  0.00    -0.083 A 
ATOM     33  H14 MOL d          16.022  36.439  15.147  0.00  0.00     0.083 H 
ATOM     34  C34 MOL d          15.193  33.815  17.120  0.00  0.00    -0.082 A 
ATOM     35  H15 MOL d          14.480  35.839  16.987  0.00  0.00     0.083 H 
ATOM     36  C33 MOL d          16.075  32.870  16.604  0.00  0.00    -0.077 A 
ATOM     37  H16 MOL d          14.525  33.549  17.931  0.00  0.00     0.083 H 
ATOM     38  H17 MOL d          16.082  31.865  17.009  0.00  0.00     0.084 H 
ENDBRANCH  25  28
ENDBRANCH   3  25
ENDBRANCH   1   3
BRANCH   1  39
ATOM     39  O18 MOL d          20.375  29.767  16.535  0.00  0.00    -0.392 OA
ATOM     40  H19 MOL d          20.414  28.826  16.657  0.00  0.00     0.210 HD
ENDBRANCH   1  39
BRANCH   1  41
ATOM     41  C16 MOL d          19.671  30.005  14.247  0.00  0.00     0.019 C 
ATOM     42  H20 MOL d          20.745  30.226  14.159  0.00  0.00     0.061 H 
ATOM     43  H21 MOL d          19.098  30.730  13.652  0.00  0.00     0.061 H 
BRANCH  41  44
ATOM     44  N11 MOL d          19.402  28.629  13.752  0.00  0.00    -0.204 NA
BRANCH  44  45
ATOM     45  C12 MOL d          20.546  28.078  12.989  0.00  0.00    -0.004 C 
ATOM     46  H22 MOL d          20.162  27.558  12.099  0.00  0.00     0.058 H 
ATOM     47  H23 MOL d          21.088  27.364  13.626  0.00  0.00     0.058 H 
BRANCH  45  48
ATOM     48  C13 MOL d          21.518  29.183  12.540  0.00  0.00    -0.046 C 
ATOM     49  H24 MOL d          20.961  30.131  12.525  0.00  0.00     0.041 H 
BRANCH  48  50
ATOM     50  C14 MOL d          22.721  29.375  13.464  0.00  0.00    -0.072 C 
ATOM     51  H25 MOL d          22.475  30.117  14.237  0.00  0.00     0.028 H 
ATOM     52  H26 MOL d          23.582  29.728  12.877  0.00  0.00     0.028 H 
ATOM     53  H27 MOL d          22.972  28.417  13.943  0.00  0.00     0.028 H 
ENDBRANCH  48  50
BRANCH  48  54
ATOM     54  C15 MOL d          21.994  28.878  11.114  0.00  0.00    -0.064 C 
ATOM     55  H28 MOL d          22.352  29.813  10.660  0.00  0.00     0.033 H 
ATOM     56  H29 MOL d          21.139  28.493  10.538  0.00  0.00     0.033 H 
BRANCH  54  57
ATOM     57  C18 MOL d          23.116  27.853  11.051  0.00  0.00    -0.076 C 
ATOM     58  H30 MOL d          22.809  26.941  11.584  0.00  0.00     0.027 H 
ATOM     59  H31 MOL d          24.019  28.268  11.523  0.00  0.00     0.027 H 
ATOM     60  H32 MOL d          23.330  27.609  10.000  0.00  0.00     0.027 H 
ENDBRANCH  54  57
ENDBRANCH  48  54
ENDBRANCH  45  48
ENDBRANCH  44  45
BRANCH  44  61
ATOM     61  S8  MOL d          17.965  28.440  13.008  0.00  0.00     0.243 S 
ATOM     62  O10 MOL d          17.584  29.722  12.499  0.00  0.00    -0.206 OA
ATOM     63  O9  MOL d          17.072  27.905  14.009  0.00  0.00    -0.206 OA
BRANCH  61  64
ATOM     64  C5  MOL d          18.068  27.347  11.783  0.00  0.00     0.076 A 
ATOM     65  C6  MOL d          18.393  27.818  10.509  0.00  0.00    -0.059 A 
ATOM     66  C7  MOL d          18.557  26.948   9.433  0.00  0.00    -0.052 A 
ATOM     67  H33 MOL d          18.520  28.883  10.354  0.00  0.00     0.086 H 
ATOM     68  C2  MOL d          18.386  25.587   9.591  0.00  0.00     0.074 A 
ATOM     69  H34 MOL d          18.823  27.344   8.460  0.00  0.00     0.087 H 
ATOM     70  C3  MOL d          18.045  25.081  10.847  0.00  0.00     0.036 A 
ATOM     71  N1  MOL d          18.491  24.588   8.684  0.00  0.00    -0.253 NA
ATOM     72  C4  MOL d          17.890  25.963  11.930  0.00  0.00    -0.042 A 
ATOM     73  S1  MOL d          17.852  23.381  10.912  0.00  0.00    -0.081 SA
ATOM     74  H35 MOL d          17.627  25.563  12.903  0.00  0.00     0.088 H 
ATOM     75  C1  MOL d          18.241  23.382   9.220  0.00  0.00     0.041 A 
ATOM     76  H36 MOL d          18.280  22.466   8.632  0.00  0.00     0.126 H 
ENDBRANCH  61  64
ENDBRANCH  44  61
ENDBRANCH  41  44
ENDBRANCH   1  41
TORSDOF 17
ENDMDL
MODEL 9
REMARK VINA RESULT:      -7.5      2.966      7.339
REMARK  17 active torsions:
REMARK  status: ('A' for Active; 'I' for Inactive)
REMARK    1  A    between atoms: C24_4  and  C22_7 
REMARK    2  A    between atoms: C22_7  and  O23_8 
REMARK    3  A    between atoms: O23_8  and  C21_9 
REMARK       I    between atoms: C21_9  and  N20_11 
REMARK    4  A    between atoms: N20_11  and  C19_12 
REMARK    5  A    between atoms: C19_12  and  C32_13 
REMARK    6  A    between atoms: C19_12  and  C17_20 
REMARK    7  A    between atoms: C32_13  and  C38_14 
REMARK    8  A    between atoms: C17_20  and  O18_21 
REMARK    9  A    between atoms: C17_20  and  C16_22 
REMARK   10  A    between atoms: C16_22  and  N11_23 
REMARK   11  A    between atoms: N11_23  and  C12_24 
REMARK   12  A    between atoms: N11_23  and  S8_29 
REMARK   13  A    between atoms: C12_24  and  C13_25 
REMARK   14  A    between atoms: C13_25  and  C14_26 
REMARK   15  A    between atoms: C13_25  and  C15_27 
REMARK   16  A    between atoms: C15_27  and  C18_28 
REMARK   17  A    between atoms: S8_29  and  C5_32 
ROOT
ATOM      1  C17 MOL d          20.098  29.946  15.320  0.00  0.00     0.067 C 
ATOM      2  H18 MOL d          20.163  29.600  14.279  0.00  0.00     0.088 H 
ENDROOT
BRANCH   1   3
ATOM      3  C19 MOL d          18.775  30.699  15.480  0.00  0.00     0.044 C 
ATOM      4  H10 MOL d          18.111  30.081  16.103  0.00  0.00     0.077 H 
BRANCH   3   5
ATOM      5  N20 MOL d          19.014  31.962  16.160  0.00  0.00    -0.329 N 
ATOM      6  C21 MOL d          18.083  32.759  16.675  0.00  0.00     0.361 C 
ATOM      7  O22 MOL d          16.885  32.530  16.710  0.00  0.00    -0.239 OA
ATOM      8  H9  MOL d          19.965  32.258  16.248  0.00  0.00     0.165 HD
BRANCH   6   9
ATOM      9  O23 MOL d          18.559  34.026  17.202  0.00  0.00    -0.302 OA
BRANCH   9  10
ATOM     10  C22 MOL d          17.880  34.640  18.298  0.00  0.00     0.049 C 
ATOM     11  H7  MOL d          17.191  33.923  18.767  0.00  0.00     0.078 H 
ATOM     12  H8  MOL d          18.606  34.995  19.044  0.00  0.00     0.078 H 
BRANCH  10  13
ATOM     13  C24 MOL d          17.105  35.812  17.721  0.00  0.00     0.034 C 
ATOM     14  N29 MOL d          17.232  35.819  16.289  0.00  0.00    -0.354 N 
ATOM     15  C27 MOL d          16.114  35.525  15.648  0.00  0.00     0.218 C 
ATOM     16  H1  MOL d          18.090  36.028  15.819  0.00  0.00     0.162 HD
ATOM     17  O28 MOL d          15.986  35.453  14.448  0.00  0.00    -0.274 OA
ATOM     18  C26 MOL d          14.981  35.310  16.619  0.00  0.00     0.011 C 
ATOM     19  C25 MOL d          15.598  35.697  17.953  0.00  0.00    -0.036 C 
ATOM     20  H5  MOL d          14.657  34.259  16.623  0.00  0.00     0.047 H 
ATOM     21  H6  MOL d          14.124  35.956  16.377  0.00  0.00     0.047 H 
ATOM     22  H3  MOL d          15.192  36.661  18.293  0.00  0.00     0.036 H 
ATOM     23  H4  MOL d          15.388  34.924  18.707  0.00  0.00     0.036 H 
ATOM     24  H2  MOL d          17.488  36.747  18.155  0.00  0.00     0.075 H 
ENDBRANCH  10  13
ENDBRANCH   9  10
ENDBRANCH   6   9
ENDBRANCH   3   5
BRANCH   3  25
ATOM     25  C32 MOL d          18.050  30.990  14.162  0.00  0.00    -0.020 C 
ATOM     26  H11 MOL d          18.645  31.707  13.577  0.00  0.00     0.043 H 
ATOM     27  H12 MOL d          17.065  31.425  14.384  0.00  0.00     0.043 H 
BRANCH  25  28
ATOM     28  C38 MOL d          17.859  29.721  13.345  0.00  0.00    -0.056 A 
ATOM     29  C37 MOL d          17.817  28.490  13.988  0.00  0.00    -0.077 A 
ATOM     30  C36 MOL d          17.638  27.320  13.252  0.00  0.00    -0.082 A 
ATOM     31  H13 MOL d          17.924  28.440  15.065  0.00  0.00     0.084 H 
ATOM     32  C35 MOL d          17.493  27.377  11.871  0.00  0.00    -0.083 A 
ATOM     33  H14 MOL d          17.611  26.362  13.759  0.00  0.00     0.083 H 
ATOM     34  C34 MOL d          17.532  28.608  11.226  0.00  0.00    -0.082 A 
ATOM     35  H15 MOL d          17.350  26.467  11.300  0.00  0.00     0.083 H 
ATOM     36  C33 MOL d          17.707  29.774  11.966  0.00  0.00    -0.077 A 
ATOM     37  H16 MOL d          17.426  28.660  10.149  0.00  0.00     0.083 H 
ATOM     38  H17 MOL d          17.725  30.733  11.461  0.00  0.00     0.084 H 
ENDBRANCH  25  28
ENDBRANCH   3  25
ENDBRANCH   1   3
BRANCH   1  39
ATOM     39  O18 MOL d          20.122  28.808  16.187  0.00  0.00    -0.392 OA
ATOM     40  H19 MOL d          21.016  28.504  16.284  0.00  0.00     0.210 HD
ENDBRANCH   1  39
BRANCH   1  41
ATOM     41  C16 MOL d          21.335  30.805  15.619  0.00  0.00     0.019 C 
ATOM     42  H20 MOL d          22.107  30.187  16.101  0.00  0.00     0.061 H 
ATOM     43  H21 MOL d          21.057  31.633  16.288  0.00  0.00     0.061 H 
BRANCH  41  44
ATOM     44  N11 MOL d          21.859  31.352  14.339  0.00  0.00    -0.204 NA
BRANCH  44  45
ATOM     45  C12 MOL d          22.456  30.298  13.487  0.00  0.00    -0.004 C 
ATOM     46  H22 MOL d          23.033  29.610  14.122  0.00  0.00     0.058 H 
ATOM     47  H23 MOL d          23.127  30.770  12.754  0.00  0.00     0.058 H 
BRANCH  45  48
ATOM     48  C13 MOL d          21.381  29.495  12.733  0.00  0.00    -0.046 C 
ATOM     49  H24 MOL d          20.403  29.777  13.148  0.00  0.00     0.041 H 
BRANCH  48  50
ATOM     50  C14 MOL d          21.334  29.767  11.228  0.00  0.00    -0.072 C 
ATOM     51  H25 MOL d          20.394  30.280  10.978  0.00  0.00     0.028 H 
ATOM     52  H26 MOL d          21.388  28.814  10.682  0.00  0.00     0.028 H 
ATOM     53  H27 MOL d          22.186  30.402  10.944  0.00  0.00     0.028 H 
ENDBRANCH  48  50
BRANCH  48  54
ATOM     54  C15 MOL d          21.605  28.000  12.990  0.00  0.00    -0.064 C 
ATOM     55  H28 MOL d          20.642  27.547  13.266  0.00  0.00     0.033 H 
ATOM     56  H29 MOL d          22.314  27.894  13.824  0.00  0.00     0.033 H 
BRANCH  54  57
ATOM     57  C18 MOL d          22.161  27.250  11.789  0.00  0.00    -0.076 C 
ATOM     58  H30 MOL d          21.445  26.476  11.477  0.00  0.00     0.027 H 
ATOM     59  H31 MOL d          23.116  26.777  12.062  0.00  0.00     0.027 H 
ATOM     60  H32 MOL d          22.324  27.954  10.960  0.00  0.00     0.027 H 
ENDBRANCH  54  57
ENDBRANCH  48  54
ENDBRANCH  45  48
ENDBRANCH  44  45
BRANCH  44  61
ATOM     61  S8  MOL d          22.794  32.676  14.495  0.00  0.00     0.243 S 
ATOM     62  O10 MOL d          22.642  33.442  13.295  0.00  0.00    -0.206 OA
ATOM     63  O9  MOL d          24.133  32.186  14.725  0.00  0.00    -0.206 OA
BRANCH  61  64
ATOM     64  C5  MOL d          22.350  33.570  15.802  0.00  0.00     0.076 A 
ATOM     65  C6  MOL d          22.578  33.033  17.071  0.00  0.00    -0.059 A 
ATOM     66  C7  MOL d          22.284  33.754  18.228  0.00  0.00    -0.052 A 
ATOM     67  H33 MOL d          22.992  32.036  17.159  0.00  0.00     0.086 H 
ATOM     68  C2  MOL d          21.740  35.020  18.154  0.00  0.00     0.074 A 
ATOM     69  H34 MOL d          22.485  33.314  19.198  0.00  0.00     0.087 H 
ATOM     70  C3  MOL d          21.482  35.582  16.902  0.00  0.00     0.036 A 
ATOM     71  N1  MOL d          21.380  35.870  19.144  0.00  0.00    -0.253 NA
ATOM     72  C4  MOL d          21.790  34.855  15.740  0.00  0.00    -0.042 A 
ATOM     73  S1  MOL d          20.799  37.152  16.942  0.00  0.00    -0.081 SA
ATOM     74  H35 MOL d          21.590  35.299  14.771  0.00  0.00     0.088 H 
ATOM     75  C1  MOL d          20.874  37.020  18.672  0.00  0.00     0.041 A 
ATOM     76  H36 MOL d          20.533  37.818  19.330  0.00  0.00     0.126 H 
ENDBRANCH  61  64
ENDBRANCH  44  61
ENDBRANCH  41  44
ENDBRANCH   1  41
TORSDOF 17
ENDMDL
MODEL 10
REMARK VINA RESULT:      -7.4      2.814      9.013
REMARK  17 active torsions:
REMARK  status: ('A' for Active; 'I' for Inactive)
REMARK    1  A    between atoms: C24_4  and  C22_7 
REMARK    2  A    between atoms: C22_7  and  O23_8 
REMARK    3  A    between atoms: O23_8  and  C21_9 
REMARK       I    between atoms: C21_9  and  N20_11 
REMARK    4  A    between atoms: N20_11  and  C19_12 
REMARK    5  A    between atoms: C19_12  and  C32_13 
REMARK    6  A    between atoms: C19_12  and  C17_20 
REMARK    7  A    between atoms: C32_13  and  C38_14 
REMARK    8  A    between atoms: C17_20  and  O18_21 
REMARK    9  A    between atoms: C17_20  and  C16_22 
REMARK   10  A    between atoms: C16_22  and  N11_23 
REMARK   11  A    between atoms: N11_23  and  C12_24 
REMARK   12  A    between atoms: N11_23  and  S8_29 
REMARK   13  A    between atoms: C12_24  and  C13_25 
REMARK   14  A    between atoms: C13_25  and  C14_26 
REMARK   15  A    between atoms: C13_25  and  C15_27 
REMARK   16  A    between atoms: C15_27  and  C18_28 
REMARK   17  A    between atoms: S8_29  and  C5_32 
ROOT
ATOM      1  C17 MOL d          18.024  30.905  14.392  0.00  0.00     0.067 C 
ATOM      2  H18 MOL d          18.972  31.411  14.157  0.00  0.00     0.088 H 
ENDROOT
BRANCH   1   3
ATOM      3  C19 MOL d          17.468  31.528  15.675  0.00  0.00     0.044 C 
ATOM      4  H10 MOL d          17.512  30.763  16.464  0.00  0.00     0.077 H 
BRANCH   3   5
ATOM      5  N20 MOL d          18.298  32.656  16.067  0.00  0.00    -0.329 N 
ATOM      6  C21 MOL d          19.159  33.300  15.286  0.00  0.00     0.361 C 
ATOM      7  O22 MOL d          19.347  33.084  14.100  0.00  0.00    -0.239 OA
ATOM      8  H9  MOL d          18.213  32.975  17.011  0.00  0.00     0.165 HD
BRANCH   6   9
ATOM      9  O23 MOL d          19.960  34.321  15.938  0.00  0.00    -0.302 OA
BRANCH   9  10
ATOM     10  C22 MOL d          20.387  34.134  17.288  0.00  0.00     0.049 C 
ATOM     11  H7  MOL d          20.118  35.011  17.896  0.00  0.00     0.078 H 
ATOM     12  H8  MOL d          19.920  33.234  17.714  0.00  0.00     0.078 H 
BRANCH  10  13
ATOM     13  C24 MOL d          21.896  33.970  17.243  0.00  0.00     0.034 C 
ATOM     14  N29 MOL d          22.226  32.623  16.860  0.00  0.00    -0.354 N 
ATOM     15  C27 MOL d          22.769  32.523  15.659  0.00  0.00     0.218 C 
ATOM     16  H1  MOL d          22.058  31.833  17.449  0.00  0.00     0.162 HD
ATOM     17  O28 MOL d          23.109  31.495  15.122  0.00  0.00    -0.274 OA
ATOM     18  C26 MOL d          22.942  33.884  15.034  0.00  0.00     0.011 C 
ATOM     19  C25 MOL d          22.553  34.827  16.161  0.00  0.00    -0.036 C 
ATOM     20  H5  MOL d          22.278  34.008  14.166  0.00  0.00     0.047 H 
ATOM     21  H6  MOL d          23.985  34.047  14.723  0.00  0.00     0.047 H 
ATOM     22  H3  MOL d          23.447  35.327  16.563  0.00  0.00     0.036 H 
ATOM     23  H4  MOL d          21.843  35.584  15.794  0.00  0.00     0.036 H 
ATOM     24  H2  MOL d          22.316  34.212  18.230  0.00  0.00     0.075 H 
ENDBRANCH  10  13
ENDBRANCH   9  10
ENDBRANCH   6   9
ENDBRANCH   3   5
BRANCH   3  25
ATOM     25  C32 MOL d          16.018  32.010  15.565  0.00  0.00    -0.020 C 
ATOM     26  H11 MOL d          15.365  31.303  16.097  0.00  0.00     0.043 H 
ATOM     27  H12 MOL d          15.732  32.048  14.504  0.00  0.00     0.043 H 
BRANCH  25  28
ATOM     28  C38 MOL d          15.848  33.395  16.173  0.00  0.00    -0.056 A 
ATOM     29  C37 MOL d          16.140  34.519  15.411  0.00  0.00    -0.077 A 
ATOM     30  C36 MOL d          15.984  35.794  15.952  0.00  0.00    -0.082 A 
ATOM     31  H13 MOL d          16.490  34.404  14.391  0.00  0.00     0.084 H 
ATOM     32  C35 MOL d          15.529  35.949  17.256  0.00  0.00    -0.083 A 
ATOM     33  H14 MOL d          16.219  36.667  15.355  0.00  0.00     0.083 H 
ATOM     34  C34 MOL d          15.234  34.825  18.019  0.00  0.00    -0.082 A 
ATOM     35  H15 MOL d          15.405  36.941  17.676  0.00  0.00     0.083 H 
ATOM     36  C33 MOL d          15.388  33.555  17.472  0.00  0.00    -0.077 A 
ATOM     37  H16 MOL d          14.885  34.939  19.039  0.00  0.00     0.083 H 
ATOM     38  H17 MOL d          15.145  32.681  18.066  0.00  0.00     0.084 H 
ENDBRANCH  25  28
ENDBRANCH   3  25
ENDBRANCH   1   3
BRANCH   1  39
ATOM     39  O18 MOL d          17.110  31.109  13.311  0.00  0.00    -0.392 OA
ATOM     40  H19 MOL d          17.516  30.835  12.498  0.00  0.00     0.210 HD
ENDBRANCH   1  39
BRANCH   1  41
ATOM     41  C16 MOL d          18.302  29.400  14.511  0.00  0.00     0.019 C 
ATOM     42  H20 MOL d          17.352  28.855  14.611  0.00  0.00     0.061 H 
ATOM     43  H21 MOL d          18.929  29.208  15.393  0.00  0.00     0.061 H 
BRANCH  41  44
ATOM     44  N11 MOL d          19.012  28.945  13.286  0.00  0.00    -0.204 NA
BRANCH  44  45
ATOM     45  C12 MOL d          20.005  29.940  12.816  0.00  0.00    -0.004 C 
ATOM     46  H22 MOL d          19.883  30.866  13.397  0.00  0.00     0.058 H 
ATOM     47  H23 MOL d          19.824  30.148  11.752  0.00  0.00     0.058 H 
BRANCH  45  48
ATOM     48  C13 MOL d          21.448  29.432  12.987  0.00  0.00    -0.046 C 
ATOM     49  H24 MOL d          22.048  30.263  13.385  0.00  0.00     0.041 H 
BRANCH  48  50
ATOM     50  C14 MOL d          21.590  28.259  13.958  0.00  0.00    -0.072 C 
ATOM     51  H25 MOL d          22.292  27.522  13.541  0.00  0.00     0.028 H 
ATOM     52  H26 MOL d          20.608  27.787  14.108  0.00  0.00     0.028 H 
ATOM     53  H27 MOL d          21.974  28.625  14.922  0.00  0.00     0.028 H 
ENDBRANCH  48  50
BRANCH  48  54
ATOM     54  C15 MOL d          22.005  29.046  11.611  0.00  0.00    -0.064 C 
ATOM     55  H28 MOL d          22.495  29.929  11.175  0.00  0.00     0.033 H 
ATOM     56  H29 MOL d          21.165  28.738  10.970  0.00  0.00     0.033 H 
BRANCH  54  57
ATOM     57  C18 MOL d          23.014  27.910  11.658  0.00  0.00    -0.076 C 
ATOM     58  H30 MOL d          22.873  27.258  10.783  0.00  0.00     0.027 H 
ATOM     59  H31 MOL d          22.868  27.326  12.578  0.00  0.00     0.027 H 
ATOM     60  H32 MOL d          24.034  28.324  11.645  0.00  0.00     0.027 H 
ENDBRANCH  54  57
ENDBRANCH  48  54
ENDBRANCH  45  48
ENDBRANCH  44  45
BRANCH  44  61
ATOM     61  S8  MOL d          18.043  28.380  12.105  0.00  0.00     0.243 S 
ATOM     62  O10 MOL d          18.019  29.368  11.071  0.00  0.00    -0.206 OA
ATOM     63  O9  MOL d          16.763  28.140  12.730  0.00  0.00    -0.206 OA
BRANCH  61  64
ATOM     64  C5  MOL d          18.596  26.948  11.514  0.00  0.00     0.076 A 
ATOM     65  C6  MOL d          17.860  25.795  11.795  0.00  0.00    -0.059 A 
ATOM     66  C7  MOL d          18.230  24.554  11.280  0.00  0.00    -0.052 A 
ATOM     67  H33 MOL d          16.982  25.867  12.426  0.00  0.00     0.086 H 
ATOM     68  C2  MOL d          19.352  24.423  10.486  0.00  0.00     0.074 A 
ATOM     69  H34 MOL d          17.630  23.680  11.505  0.00  0.00     0.087 H 
ATOM     70  C3  MOL d          20.122  25.552  10.197  0.00  0.00     0.036 A 
ATOM     71  N1  MOL d          19.879  23.321   9.902  0.00  0.00    -0.253 NA
ATOM     72  C4  MOL d          19.737  26.802  10.711  0.00  0.00    -0.042 A 
ATOM     73  S1  MOL d          21.491  25.259   9.212  0.00  0.00    -0.081 SA
ATOM     74  H35 MOL d          20.338  27.674  10.482  0.00  0.00     0.088 H 
ATOM     75  C1  MOL d          20.994  23.595   9.206  0.00  0.00     0.041 A 
ATOM     76  H36 MOL d          21.550  22.825   8.672  0.00  0.00     0.126 H 
ENDBRANCH  61  64
ENDBRANCH  44  61
ENDBRANCH  41  44
ENDBRANCH   1  41
TORSDOF 17
ENDMDL
