MODEL 1
REMARK VINA RESULT:      -8.0      0.000      0.000
REMARK  20 active torsions:
REMARK  status: ('A' for Active; 'I' for Inactive)
REMARK    1  A    between atoms: C3_3  and  C7_7 
REMARK    2  A    between atoms: C4_4  and  C27_27 
REMARK    3  A    between atoms: C7_7  and  C8_8 
REMARK    4  A    between atoms: C8_8  and  C9_9 
REMARK    5  A    between atoms: C9_9  and  C10_10 
REMARK    6  A    between atoms: C10_10  and  C11_11 
REMARK    7  A    between atoms: C11_11  and  C12_12 
REMARK    8  A    between atoms: C12_12  and  C13_13 
REMARK    9  A    between atoms: C13_13  and  C14_14 
REMARK   10  A    between atoms: C14_14  and  C15_15 
REMARK   11  A    between atoms: C15_15  and  C16_16 
REMARK       I    between atoms: C16_16  and  N17_17 
REMARK   12  A    between atoms: N17_17  and  C18_18 
REMARK   13  A    between atoms: C18_18  and  C20_20 
REMARK   14  A    between atoms: C18_18  and  C21_21 
REMARK   15  A    between atoms: C20_20  and  C23_23 
REMARK       I    between atoms: C21_21  and  N22_22 
REMARK   16  A    between atoms: N22_22  and  O32_32 
REMARK   17  A    between atoms: C23_23  and  C24_24 
REMARK   18  A    between atoms: C24_24  and  C25_25 
REMARK   19  A    between atoms: C25_25  and  N26_26 
REMARK   20  A    between atoms: C27_27  and  N28_28 
REMARK       I    between atoms: N28_28  and  C29_29 
REMARK       I    between atoms: C29_29  and  N30_30 
ROOT
ATOM      1  C12 FA4 d          27.954   3.406  15.242  0.00  0.00    -0.065 C 
ATOM      2  H15 FA4 d          28.090   2.500  15.851  0.00  0.00     0.033 H 
ATOM      3  H16 FA4 d          27.579   4.222  15.876  0.00  0.00     0.033 H 
ENDROOT
BRANCH   1   4
ATOM      4  C11 FA4 d          26.910   3.113  14.160  0.00  0.00    -0.065 C 
ATOM      5  H13 FA4 d          26.359   4.040  13.939  0.00  0.00     0.033 H 
ATOM      6  H14 FA4 d          27.428   2.769  13.253  0.00  0.00     0.033 H 
BRANCH   4   7
ATOM      7  C10 FA4 d          25.910   2.038  14.595  0.00  0.00    -0.065 C 
ATOM      8  H11 FA4 d          25.530   1.531  13.695  0.00  0.00     0.033 H 
ATOM      9  H12 FA4 d          26.435   1.310  15.231  0.00  0.00     0.033 H 
BRANCH   7  10
ATOM     10  C9  FA4 d          24.720   2.600  15.378  0.00  0.00    -0.065 C 
ATOM     11  H9  FA4 d          24.906   2.455  16.452  0.00  0.00     0.033 H 
ATOM     12  H10 FA4 d          24.633   3.675  15.162  0.00  0.00     0.033 H 
BRANCH  10  13
ATOM     13  C8  FA4 d          23.399   1.920  15.014  0.00  0.00    -0.061 C 
ATOM     14  H7  FA4 d          23.237   1.075  15.699  0.00  0.00     0.033 H 
ATOM     15  H8  FA4 d          22.583   2.649  15.130  0.00  0.00     0.033 H 
BRANCH  13  16
ATOM     16  C7  FA4 d          23.387   1.393  13.569  0.00  0.00    -0.040 C 
ATOM     17  H5  FA4 d          24.335   1.669  13.084  0.00  0.00     0.040 H 
ATOM     18  H6  FA4 d          23.294   0.297  13.593  0.00  0.00     0.040 H 
BRANCH  16  19
ATOM     19  C3  FA4 d          22.246   1.959  12.762  0.00  0.00    -0.050 A 
ATOM     20  C2  FA4 d          21.063   1.173  12.567  0.00  0.00    -0.076 A 
ATOM     21  C1  FA4 d          19.966   1.682  11.808  0.00  0.00    -0.082 A 
ATOM     22  H2  FA4 d          21.001   0.181  13.001  0.00  0.00     0.084 H 
ATOM     23  C6  FA4 d          20.029   2.986  11.221  0.00  0.00    -0.082 A 
ATOM     24  H1  FA4 d          19.078   1.074  11.674  0.00  0.00     0.083 H 
ATOM     25  C5  FA4 d          21.203   3.796  11.402  0.00  0.00    -0.075 A 
ATOM     26  H4  FA4 d          19.193   3.362  10.642  0.00  0.00     0.083 H 
ATOM     27  C4  FA4 d          22.317   3.299  12.166  0.00  0.00    -0.034 A 
ATOM     28  H3  FA4 d          21.249   4.786  10.962  0.00  0.00     0.084 H 
BRANCH  27  29
ATOM     29  C27 FA4 d          23.512   4.225  12.309  0.00  0.00     0.033 C 
ATOM     30  H37 FA4 d          24.151   4.127  11.420  0.00  0.00     0.072 H 
ATOM     31  H38 FA4 d          24.083   3.939  13.205  0.00  0.00     0.072 H 
BRANCH  29  32
ATOM     32  N28 FA4 d          23.085   5.624  12.441  0.00  0.00    -0.223 N 
ATOM     33  C29 FA4 d          22.775   6.151  13.677  0.00  0.00     0.665 C 
ATOM     34  N30 FA4 d          22.945   7.450  13.896  0.00  0.00    -0.235 N 
ATOM     35  N31 FA4 d          22.308   5.375  14.666  0.00  0.00    -0.235 N 
ATOM     36  H40 FA4 d          22.715   7.852  14.816  0.00  0.00     0.174 HD
ATOM     37  H41 FA4 d          23.306   8.055  13.145  0.00  0.00     0.174 HD
ATOM     38  H42 FA4 d          22.172   4.367  14.508  0.00  0.00     0.174 HD
ATOM     39  H43 FA4 d          22.085   5.788  15.583  0.00  0.00     0.174 HD
ATOM     40  H39 FA4 d          23.018   6.218  11.602  0.00  0.00     0.178 HD
ENDBRANCH  29  32
ENDBRANCH  27  29
ENDBRANCH  16  19
ENDBRANCH  13  16
ENDBRANCH  10  13
ENDBRANCH   7  10
ENDBRANCH   4   7
ENDBRANCH   1   4
BRANCH   1  41
ATOM     41  C13 FA4 d          29.307   3.816  14.673  0.00  0.00    -0.065 C 
ATOM     42  H17 FA4 d          29.146   4.565  13.884  0.00  0.00     0.033 H 
ATOM     43  H18 FA4 d          29.791   2.928  14.242  0.00  0.00     0.033 H 
BRANCH  41  44
ATOM     44  C14 FA4 d          30.238   4.415  15.734  0.00  0.00    -0.057 C 
ATOM     45  H19 FA4 d          30.600   3.600  16.377  0.00  0.00     0.033 H 
ATOM     46  H20 FA4 d          29.660   5.130  16.338  0.00  0.00     0.033 H 
BRANCH  44  47
ATOM     47  C15 FA4 d          31.449   5.144  15.150  0.00  0.00     0.009 C 
ATOM     48  H21 FA4 d          31.629   4.781  14.127  0.00  0.00     0.047 H 
ATOM     49  H22 FA4 d          32.330   4.935  15.774  0.00  0.00     0.047 H 
BRANCH  47  50
ATOM     50  C16 FA4 d          31.209   6.660  15.112  0.00  0.00     0.218 C 
ATOM     51  N17 FA4 d          31.819   7.278  16.147  0.00  0.00    -0.348 N 
ATOM     52  H23 FA4 d          32.331   6.729  16.808  0.00  0.00     0.163 HD
ATOM     53  O19 FA4 d          30.539   7.190  14.221  0.00  0.00    -0.274 OA
BRANCH  51  54
ATOM     54  C18 FA4 d          31.752   8.716  16.325  0.00  0.00     0.091 C 
ATOM     55  H24 FA4 d          31.530   9.197  15.361  0.00  0.00     0.087 H 
BRANCH  54  56
ATOM     56  C20 FA4 d          33.121   9.185  16.823  0.00  0.00    -0.038 C 
ATOM     57  H25 FA4 d          33.402   8.575  17.694  0.00  0.00     0.036 H 
ATOM     58  H26 FA4 d          33.037  10.240  17.125  0.00  0.00     0.036 H 
BRANCH  56  59
ATOM     59  C23 FA4 d          34.227   9.071  15.779  0.00  0.00    -0.061 C 
ATOM     60  H28 FA4 d          34.456   8.006  15.618  0.00  0.00     0.033 H 
ATOM     61  H29 FA4 d          35.124   9.586  16.152  0.00  0.00     0.033 H 
BRANCH  59  62
ATOM     62  C24 FA4 d          33.816   9.694  14.445  0.00  0.00    -0.043 C 
ATOM     63  H30 FA4 d          34.511  10.514  14.210  0.00  0.00     0.035 H 
ATOM     64  H31 FA4 d          32.797  10.095  14.541  0.00  0.00     0.035 H 
BRANCH  62  65
ATOM     65  C25 FA4 d          33.841   8.685  13.296  0.00  0.00     0.080 C 
ATOM     66  H32 FA4 d          33.359   9.138  12.418  0.00  0.00     0.075 H 
ATOM     67  H33 FA4 d          33.280   7.789  13.602  0.00  0.00     0.075 H 
BRANCH  65  68
ATOM     68  N26 FA4 d          35.195   8.286  12.931  0.00  0.00    -0.079 N 
ATOM     69  H34 FA4 d          35.767   8.242  13.760  0.00  0.00     0.274 HD
ATOM     70  H35 FA4 d          35.583   8.962  12.291  0.00  0.00     0.274 HD
ATOM     71  H36 FA4 d          35.172   7.380  12.491  0.00  0.00     0.274 HD
ENDBRANCH  65  68
ENDBRANCH  62  65
ENDBRANCH  59  62
ENDBRANCH  56  59
ENDBRANCH  54  56
BRANCH  54  72
ATOM     72  C21 FA4 d          30.640   9.072  17.327  0.00  0.00     0.263 C 
ATOM     73  N22 FA4 d          29.485   8.426  17.108  0.00  0.00    -0.236 N 
ATOM     74  H27 FA4 d          29.403   7.782  16.348  0.00  0.00     0.197 HD
ATOM     75  O33 FA4 d          30.830   9.872  18.237  0.00  0.00    -0.269 OA
BRANCH  73  76
ATOM     76  O32 FA4 d          28.396   8.660  17.953  0.00  0.00    -0.287 OA
ATOM     77  H44 FA4 d          28.566   9.432  18.480  0.00  0.00     0.244 HD
ENDBRANCH  73  76
ENDBRANCH  54  72
ENDBRANCH  51  54
ENDBRANCH  47  50
ENDBRANCH  44  47
ENDBRANCH  41  44
ENDBRANCH   1  41
TORSDOF 20
ENDMDL
MODEL 2
REMARK VINA RESULT:      -7.9      1.731      2.970
REMARK  20 active torsions:
REMARK  status: ('A' for Active; 'I' for Inactive)
REMARK    1  A    between atoms: C3_3  and  C7_7 
REMARK    2  A    between atoms: C4_4  and  C27_27 
REMARK    3  A    between atoms: C7_7  and  C8_8 
REMARK    4  A    between atoms: C8_8  and  C9_9 
REMARK    5  A    between atoms: C9_9  and  C10_10 
REMARK    6  A    between atoms: C10_10  and  C11_11 
REMARK    7  A    between atoms: C11_11  and  C12_12 
REMARK    8  A    between atoms: C12_12  and  C13_13 
REMARK    9  A    between atoms: C13_13  and  C14_14 
REMARK   10  A    between atoms: C14_14  and  C15_15 
REMARK   11  A    between atoms: C15_15  and  C16_16 
REMARK       I    between atoms: C16_16  and  N17_17 
REMARK   12  A    between atoms: N17_17  and  C18_18 
REMARK   13  A    between atoms: C18_18  and  C20_20 
REMARK   14  A    between atoms: C18_18  and  C21_21 
REMARK   15  A    between atoms: C20_20  and  C23_23 
REMARK       I    between atoms: C21_21  and  N22_22 
REMARK   16  A    between atoms: N22_22  and  O32_32 
REMARK   17  A    between atoms: C23_23  and  C24_24 
REMARK   18  A    between atoms: C24_24  and  C25_25 
REMARK   19  A    between atoms: C25_25  and  N26_26 
REMARK   20  A    between atoms: C27_27  and  N28_28 
REMARK       I    between atoms: N28_28  and  C29_29 
REMARK       I    between atoms: C29_29  and  N30_30 
ROOT
ATOM      1  C12 FA4 d          28.046   3.031  14.532  0.00  0.00    -0.065 C 
ATOM      2  H15 FA4 d          28.331   3.353  13.519  0.00  0.00     0.033 H 
ATOM      3  H16 FA4 d          28.069   1.933  14.587  0.00  0.00     0.033 H 
ENDROOT
BRANCH   1   4
ATOM      4  C11 FA4 d          26.616   3.502  14.809  0.00  0.00    -0.065 C 
ATOM      5  H13 FA4 d          26.542   3.811  15.862  0.00  0.00     0.033 H 
ATOM      6  H14 FA4 d          26.394   4.362  14.159  0.00  0.00     0.033 H 
BRANCH   4   7
ATOM      7  C10 FA4 d          25.581   2.405  14.544  0.00  0.00    -0.065 C 
ATOM      8  H11 FA4 d          25.155   2.561  13.542  0.00  0.00     0.033 H 
ATOM      9  H12 FA4 d          26.090   1.430  14.578  0.00  0.00     0.033 H 
BRANCH   7  10
ATOM     10  C9  FA4 d          24.438   2.393  15.563  0.00  0.00    -0.065 C 
ATOM     11  H9  FA4 d          24.780   1.871  16.469  0.00  0.00     0.033 H 
ATOM     12  H10 FA4 d          24.180   3.432  15.814  0.00  0.00     0.033 H 
BRANCH  10  13
ATOM     13  C8  FA4 d          23.185   1.691  15.038  0.00  0.00    -0.061 C 
ATOM     14  H7  FA4 d          23.018   0.779  15.629  0.00  0.00     0.033 H 
ATOM     15  H8  FA4 d          22.326   2.368  15.157  0.00  0.00     0.033 H 
BRANCH  13  16
ATOM     16  C7  FA4 d          23.306   1.304  13.554  0.00  0.00    -0.040 C 
ATOM     17  H5  FA4 d          24.245   1.716  13.156  0.00  0.00     0.040 H 
ATOM     18  H6  FA4 d          23.325   0.206  13.476  0.00  0.00     0.040 H 
BRANCH  16  19
ATOM     19  C3  FA4 d          22.158   1.830  12.730  0.00  0.00    -0.050 A 
ATOM     20  C2  FA4 d          20.991   1.016  12.549  0.00  0.00    -0.076 A 
ATOM     21  C1  FA4 d          19.888   1.486  11.773  0.00  0.00    -0.082 A 
ATOM     22  H2  FA4 d          20.946   0.034  13.005  0.00  0.00     0.084 H 
ATOM     23  C6  FA4 d          19.928   2.777  11.157  0.00  0.00    -0.082 A 
ATOM     24  H1  FA4 d          19.013   0.859  11.651  0.00  0.00     0.083 H 
ATOM     25  C5  FA4 d          21.086   3.614  11.323  0.00  0.00    -0.075 A 
ATOM     26  H4  FA4 d          19.088   3.123  10.565  0.00  0.00     0.083 H 
ATOM     27  C4  FA4 d          22.206   3.156  12.103  0.00  0.00    -0.034 A 
ATOM     28  H3  FA4 d          21.115   4.593  10.860  0.00  0.00     0.084 H 
BRANCH  27  29
ATOM     29  C27 FA4 d          23.382   4.108  12.230  0.00  0.00     0.033 C 
ATOM     30  H37 FA4 d          24.009   4.025  11.330  0.00  0.00     0.072 H 
ATOM     31  H38 FA4 d          23.973   3.833  13.115  0.00  0.00     0.072 H 
BRANCH  29  32
ATOM     32  N28 FA4 d          22.927   5.497  12.371  0.00  0.00    -0.223 N 
ATOM     33  C29 FA4 d          22.711   6.043  13.619  0.00  0.00     0.665 C 
ATOM     34  N30 FA4 d          22.860   7.350  13.796  0.00  0.00    -0.235 N 
ATOM     35  N31 FA4 d          22.356   5.276  14.660  0.00  0.00    -0.235 N 
ATOM     36  H40 FA4 d          22.701   7.766  14.725  0.00  0.00     0.174 HD
ATOM     37  H41 FA4 d          23.136   7.949  13.004  0.00  0.00     0.174 HD
ATOM     38  H42 FA4 d          22.237   4.261  14.535  0.00  0.00     0.174 HD
ATOM     39  H43 FA4 d          22.202   5.703  15.585  0.00  0.00     0.174 HD
ATOM     40  H39 FA4 d          22.769   6.070  11.529  0.00  0.00     0.178 HD
ENDBRANCH  29  32
ENDBRANCH  27  29
ENDBRANCH  16  19
ENDBRANCH  13  16
ENDBRANCH  10  13
ENDBRANCH   7  10
ENDBRANCH   4   7
ENDBRANCH   1   4
BRANCH   1  41
ATOM     41  C13 FA4 d          29.063   3.587  15.522  0.00  0.00    -0.065 C 
ATOM     42  H17 FA4 d          29.451   2.758  16.132  0.00  0.00     0.033 H 
ATOM     43  H18 FA4 d          28.559   4.317  16.172  0.00  0.00     0.033 H 
BRANCH  41  44
ATOM     44  C14 FA4 d          30.243   4.280  14.831  0.00  0.00    -0.057 C 
ATOM     45  H19 FA4 d          30.096   4.212  13.743  0.00  0.00     0.033 H 
ATOM     46  H20 FA4 d          31.167   3.753  15.110  0.00  0.00     0.033 H 
BRANCH  44  47
ATOM     47  C15 FA4 d          30.397   5.755  15.206  0.00  0.00     0.009 C 
ATOM     48  H21 FA4 d          29.851   5.947  16.142  0.00  0.00     0.047 H 
ATOM     49  H22 FA4 d          29.977   6.377  14.402  0.00  0.00     0.047 H 
BRANCH  47  50
ATOM     50  C16 FA4 d          31.876   6.118  15.402  0.00  0.00     0.218 C 
ATOM     51  N17 FA4 d          32.066   7.453  15.315  0.00  0.00    -0.348 N 
ATOM     52  H23 FA4 d          31.282   8.046  15.134  0.00  0.00     0.163 HD
ATOM     53  O19 FA4 d          32.734   5.258  15.614  0.00  0.00    -0.274 OA
BRANCH  51  54
ATOM     54  C18 FA4 d          33.379   8.048  15.479  0.00  0.00     0.091 C 
ATOM     55  H24 FA4 d          34.102   7.274  15.772  0.00  0.00     0.087 H 
BRANCH  54  56
ATOM     56  C20 FA4 d          33.277   9.094  16.592  0.00  0.00    -0.038 C 
ATOM     57  H25 FA4 d          33.703  10.038  16.222  0.00  0.00     0.036 H 
ATOM     58  H26 FA4 d          33.863   8.741  17.455  0.00  0.00     0.036 H 
BRANCH  56  59
ATOM     59  C23 FA4 d          31.849   9.360  17.056  0.00  0.00    -0.061 C 
ATOM     60  H28 FA4 d          31.870   9.665  18.114  0.00  0.00     0.033 H 
ATOM     61  H29 FA4 d          31.263   8.435  16.953  0.00  0.00     0.033 H 
BRANCH  59  62
ATOM     62  C24 FA4 d          31.182  10.464  16.237  0.00  0.00    -0.043 C 
ATOM     63  H30 FA4 d          30.395  10.014  15.614  0.00  0.00     0.035 H 
ATOM     64  H31 FA4 d          31.939  10.930  15.589  0.00  0.00     0.035 H 
BRANCH  62  65
ATOM     65  C25 FA4 d          30.553  11.546  17.117  0.00  0.00     0.080 C 
ATOM     66  H32 FA4 d          31.358  12.138  17.576  0.00  0.00     0.075 H 
ATOM     67  H33 FA4 d          29.960  11.059  17.905  0.00  0.00     0.075 H 
BRANCH  65  68
ATOM     68  N26 FA4 d          29.685  12.444  16.365  0.00  0.00    -0.079 N 
ATOM     69  H34 FA4 d          28.763  12.438  16.771  0.00  0.00     0.274 HD
ATOM     70  H35 FA4 d          29.632  12.135  15.406  0.00  0.00     0.274 HD
ATOM     71  H36 FA4 d          30.060  13.379  16.396  0.00  0.00     0.274 HD
ENDBRANCH  65  68
ENDBRANCH  62  65
ENDBRANCH  59  62
ENDBRANCH  56  59
ENDBRANCH  54  56
BRANCH  54  72
ATOM     72  C21 FA4 d          33.839   8.684  14.155  0.00  0.00     0.263 C 
ATOM     73  N22 FA4 d          34.089   7.794  13.184  0.00  0.00    -0.236 N 
ATOM     74  H27 FA4 d          33.974   6.815  13.354  0.00  0.00     0.197 HD
ATOM     75  O33 FA4 d          33.947   9.900  14.032  0.00  0.00    -0.269 OA
BRANCH  73  76
ATOM     76  O32 FA4 d          34.511   8.245  11.930  0.00  0.00    -0.287 OA
ATOM     77  H44 FA4 d          34.403   9.188  11.882  0.00  0.00     0.244 HD
ENDBRANCH  73  76
ENDBRANCH  54  72
ENDBRANCH  51  54
ENDBRANCH  47  50
ENDBRANCH  44  47
ENDBRANCH  41  44
ENDBRANCH   1  41
TORSDOF 20
ENDMDL
MODEL 3
REMARK VINA RESULT:      -7.6      3.240     10.922
REMARK  20 active torsions:
REMARK  status: ('A' for Active; 'I' for Inactive)
REMARK    1  A    between atoms: C3_3  and  C7_7 
REMARK    2  A    between atoms: C4_4  and  C27_27 
REMARK    3  A    between atoms: C7_7  and  C8_8 
REMARK    4  A    between atoms: C8_8  and  C9_9 
REMARK    5  A    between atoms: C9_9  and  C10_10 
REMARK    6  A    between atoms: C10_10  and  C11_11 
REMARK    7  A    between atoms: C11_11  and  C12_12 
REMARK    8  A    between atoms: C12_12  and  C13_13 
REMARK    9  A    between atoms: C13_13  and  C14_14 
REMARK   10  A    between atoms: C14_14  and  C15_15 
REMARK   11  A    between atoms: C15_15  and  C16_16 
REMARK       I    between atoms: C16_16  and  N17_17 
REMARK   12  A    between atoms: N17_17  and  C18_18 
REMARK   13  A    between atoms: C18_18  and  C20_20 
REMARK   14  A    between atoms: C18_18  and  C21_21 
REMARK   15  A    between atoms: C20_20  and  C23_23 
REMARK       I    between atoms: C21_21  and  N22_22 
REMARK   16  A    between atoms: N22_22  and  O32_32 
REMARK   17  A    between atoms: C23_23  and  C24_24 
REMARK   18  A    between atoms: C24_24  and  C25_25 
REMARK   19  A    between atoms: C25_25  and  N26_26 
REMARK   20  A    between atoms: C27_27  and  N28_28 
REMARK       I    between atoms: N28_28  and  C29_29 
REMARK       I    between atoms: C29_29  and  N30_30 
ROOT
ATOM      1  C12 FA4 d          29.560   4.045  14.591  0.00  0.00    -0.065 C 
ATOM      2  H15 FA4 d          30.051   3.483  13.783  0.00  0.00     0.033 H 
ATOM      3  H16 FA4 d          29.292   5.048  14.230  0.00  0.00     0.033 H 
ENDROOT
BRANCH   1   4
ATOM      4  C11 FA4 d          30.547   4.192  15.752  0.00  0.00    -0.065 C 
ATOM      5  H13 FA4 d          30.114   3.718  16.647  0.00  0.00     0.033 H 
ATOM      6  H14 FA4 d          31.485   3.682  15.486  0.00  0.00     0.033 H 
BRANCH   4   7
ATOM      7  C10 FA4 d          30.855   5.657  16.071  0.00  0.00    -0.065 C 
ATOM      8  H11 FA4 d          31.705   5.691  16.768  0.00  0.00     0.033 H 
ATOM      9  H12 FA4 d          31.127   6.168  15.135  0.00  0.00     0.033 H 
BRANCH   7  10
ATOM     10  C9  FA4 d          29.675   6.399  16.705  0.00  0.00    -0.065 C 
ATOM     11  H9  FA4 d          28.825   6.370  16.007  0.00  0.00     0.033 H 
ATOM     12  H10 FA4 d          29.400   5.889  17.640  0.00  0.00     0.033 H 
BRANCH  10  13
ATOM     13  C8  FA4 d          29.997   7.860  17.022  0.00  0.00    -0.061 C 
ATOM     14  H7  FA4 d          29.074   8.361  17.350  0.00  0.00     0.033 H 
ATOM     15  H8  FA4 d          30.739   7.890  17.833  0.00  0.00     0.033 H 
BRANCH  13  16
ATOM     16  C7  FA4 d          30.563   8.615  15.807  0.00  0.00    -0.040 C 
ATOM     17  H5  FA4 d          30.829   7.884  15.029  0.00  0.00     0.040 H 
ATOM     18  H6  FA4 d          29.789   9.296  15.422  0.00  0.00     0.040 H 
BRANCH  16  19
ATOM     19  C3  FA4 d          31.789   9.421  16.155  0.00  0.00    -0.050 A 
ATOM     20  C2  FA4 d          31.765  10.279  17.303  0.00  0.00    -0.076 A 
ATOM     21  C1  FA4 d          32.910  11.054  17.658  0.00  0.00    -0.082 A 
ATOM     22  H2  FA4 d          30.868  10.339  17.909  0.00  0.00     0.084 H 
ATOM     23  C6  FA4 d          34.104  10.995  16.870  0.00  0.00    -0.082 A 
ATOM     24  H1  FA4 d          32.875  11.695  18.532  0.00  0.00     0.083 H 
ATOM     25  C5  FA4 d          34.155  10.142  15.713  0.00  0.00    -0.075 A 
ATOM     26  H4  FA4 d          34.966  11.592  17.144  0.00  0.00     0.083 H 
ATOM     27  C4  FA4 d          33.010   9.352  15.342  0.00  0.00    -0.034 A 
ATOM     28  H3  FA4 d          35.060  10.093  15.118  0.00  0.00     0.084 H 
BRANCH  27  29
ATOM     29  C27 FA4 d          33.157   8.476  14.110  0.00  0.00     0.033 C 
ATOM     30  H37 FA4 d          32.220   8.505  13.536  0.00  0.00     0.072 H 
ATOM     31  H38 FA4 d          33.361   7.443  14.427  0.00  0.00     0.072 H 
BRANCH  29  32
ATOM     32  N28 FA4 d          34.257   8.942  13.256  0.00  0.00    -0.223 N 
ATOM     33  C29 FA4 d          34.655   8.207  12.160  0.00  0.00     0.665 C 
ATOM     34  N30 FA4 d          35.196   8.828  11.117  0.00  0.00    -0.235 N 
ATOM     35  N31 FA4 d          34.504   6.875  12.123  0.00  0.00    -0.235 N 
ATOM     36  H40 FA4 d          35.496   8.286  10.294  0.00  0.00     0.174 HD
ATOM     37  H41 FA4 d          35.314   9.851  11.132  0.00  0.00     0.174 HD
ATOM     38  H42 FA4 d          34.086   6.383  12.926  0.00  0.00     0.174 HD
ATOM     39  H43 FA4 d          34.805   6.345  11.294  0.00  0.00     0.174 HD
ATOM     40  H39 FA4 d          34.735   9.827  13.479  0.00  0.00     0.178 HD
ENDBRANCH  29  32
ENDBRANCH  27  29
ENDBRANCH  16  19
ENDBRANCH  13  16
ENDBRANCH  10  13
ENDBRANCH   7  10
ENDBRANCH   4   7
ENDBRANCH   1   4
BRANCH   1  41
ATOM     41  C13 FA4 d          28.280   3.313  14.980  0.00  0.00    -0.065 C 
ATOM     42  H17 FA4 d          28.361   2.995  16.030  0.00  0.00     0.033 H 
ATOM     43  H18 FA4 d          28.172   2.427  14.337  0.00  0.00     0.033 H 
BRANCH  41  44
ATOM     44  C14 FA4 d          27.029   4.185  14.827  0.00  0.00    -0.057 C 
ATOM     45  H19 FA4 d          27.338   5.241  14.858  0.00  0.00     0.033 H 
ATOM     46  H20 FA4 d          26.355   3.976  15.670  0.00  0.00     0.033 H 
BRANCH  44  47
ATOM     47  C15 FA4 d          26.265   3.943  13.525  0.00  0.00     0.009 C 
ATOM     48  H21 FA4 d          26.938   3.471  12.794  0.00  0.00     0.047 H 
ATOM     49  H22 FA4 d          25.912   4.908  13.130  0.00  0.00     0.047 H 
BRANCH  47  50
ATOM     50  C16 FA4 d          25.057   3.026  13.762  0.00  0.00     0.218 C 
ATOM     51  N17 FA4 d          23.941   3.743  14.020  0.00  0.00    -0.348 N 
ATOM     52  H23 FA4 d          23.998   4.741  14.041  0.00  0.00     0.163 HD
ATOM     53  O19 FA4 d          25.153   1.797  13.707  0.00  0.00    -0.274 OA
BRANCH  51  54
ATOM     54  C18 FA4 d          22.663   3.104  14.266  0.00  0.00     0.091 C 
ATOM     55  H24 FA4 d          22.785   2.012  14.240  0.00  0.00     0.087 H 
BRANCH  54  56
ATOM     56  C20 FA4 d          21.708   3.534  13.149  0.00  0.00    -0.038 C 
ATOM     57  H25 FA4 d          20.699   3.634  13.575  0.00  0.00     0.036 H 
ATOM     58  H26 FA4 d          21.704   2.751  12.376  0.00  0.00     0.036 H 
BRANCH  56  59
ATOM     59  C23 FA4 d          22.086   4.857  12.493  0.00  0.00    -0.061 C 
ATOM     60  H28 FA4 d          22.136   4.712  11.403  0.00  0.00     0.033 H 
ATOM     61  H29 FA4 d          23.072   5.171  12.866  0.00  0.00     0.033 H 
BRANCH  59  62
ATOM     62  C24 FA4 d          21.069   5.955  12.800  0.00  0.00    -0.043 C 
ATOM     63  H30 FA4 d          20.304   5.549  13.477  0.00  0.00     0.035 H 
ATOM     64  H31 FA4 d          20.594   6.270  11.858  0.00  0.00     0.035 H 
BRANCH  62  65
ATOM     65  C25 FA4 d          21.710   7.178  13.459  0.00  0.00     0.080 C 
ATOM     66  H32 FA4 d          21.242   7.333  14.442  0.00  0.00     0.075 H 
ATOM     67  H33 FA4 d          21.528   8.057  12.823  0.00  0.00     0.075 H 
BRANCH  65  68
ATOM     68  N26 FA4 d          23.147   7.023  13.644  0.00  0.00    -0.079 N 
ATOM     69  H34 FA4 d          23.364   7.053  14.628  0.00  0.00     0.274 HD
ATOM     70  H35 FA4 d          23.629   7.772  13.171  0.00  0.00     0.274 HD
ATOM     71  H36 FA4 d          23.442   6.139  13.262  0.00  0.00     0.274 HD
ENDBRANCH  65  68
ENDBRANCH  62  65
ENDBRANCH  59  62
ENDBRANCH  56  59
ENDBRANCH  54  56
BRANCH  54  72
ATOM     72  C21 FA4 d          22.126   3.513  15.649  0.00  0.00     0.263 C 
ATOM     73  N22 FA4 d          20.813   3.783  15.664  0.00  0.00    -0.236 N 
ATOM     74  H27 FA4 d          20.274   3.713  14.824  0.00  0.00     0.197 HD
ATOM     75  O33 FA4 d          22.861   3.567  16.630  0.00  0.00    -0.269 OA
BRANCH  73  76
ATOM     76  O32 FA4 d          20.203   4.163  16.862  0.00  0.00    -0.287 OA
ATOM     77  H44 FA4 d          20.518   3.609  17.566  0.00  0.00     0.244 HD
ENDBRANCH  73  76
ENDBRANCH  54  72
ENDBRANCH  51  54
ENDBRANCH  47  50
ENDBRANCH  44  47
ENDBRANCH  41  44
ENDBRANCH   1  41
TORSDOF 20
ENDMDL
MODEL 4
REMARK VINA RESULT:      -7.3      3.371     11.205
REMARK  20 active torsions:
REMARK  status: ('A' for Active; 'I' for Inactive)
REMARK    1  A    between atoms: C3_3  and  C7_7 
REMARK    2  A    between atoms: C4_4  and  C27_27 
REMARK    3  A    between atoms: C7_7  and  C8_8 
REMARK    4  A    between atoms: C8_8  and  C9_9 
REMARK    5  A    between atoms: C9_9  and  C10_10 
REMARK    6  A    between atoms: C10_10  and  C11_11 
REMARK    7  A    between atoms: C11_11  and  C12_12 
REMARK    8  A    between atoms: C12_12  and  C13_13 
REMARK    9  A    between atoms: C13_13  and  C14_14 
REMARK   10  A    between atoms: C14_14  and  C15_15 
REMARK   11  A    between atoms: C15_15  and  C16_16 
REMARK       I    between atoms: C16_16  and  N17_17 
REMARK   12  A    between atoms: N17_17  and  C18_18 
REMARK   13  A    between atoms: C18_18  and  C20_20 
REMARK   14  A    between atoms: C18_18  and  C21_21 
REMARK   15  A    between atoms: C20_20  and  C23_23 
REMARK       I    between atoms: C21_21  and  N22_22 
REMARK   16  A    between atoms: N22_22  and  O32_32 
REMARK   17  A    between atoms: C23_23  and  C24_24 
REMARK   18  A    between atoms: C24_24  and  C25_25 
REMARK   19  A    between atoms: C25_25  and  N26_26 
REMARK   20  A    between atoms: C27_27  and  N28_28 
REMARK       I    between atoms: N28_28  and  C29_29 
REMARK       I    between atoms: C29_29  and  N30_30 
ROOT
ATOM      1  C12 FA4 d          27.363   3.562  15.030  0.00  0.00    -0.065 C 
ATOM      2  H15 FA4 d          27.458   4.058  14.052  0.00  0.00     0.033 H 
ATOM      3  H16 FA4 d          26.680   4.140  15.669  0.00  0.00     0.033 H 
ENDROOT
BRANCH   1   4
ATOM      4  C11 FA4 d          28.741   3.528  15.695  0.00  0.00    -0.065 C 
ATOM      5  H13 FA4 d          28.626   3.771  16.762  0.00  0.00     0.033 H 
ATOM      6  H14 FA4 d          29.159   2.515  15.593  0.00  0.00     0.033 H 
BRANCH   4   7
ATOM      7  C10 FA4 d          29.715   4.527  15.065  0.00  0.00    -0.065 C 
ATOM      8  H11 FA4 d          30.445   4.833  15.829  0.00  0.00     0.033 H 
ATOM      9  H12 FA4 d          30.238   4.029  14.236  0.00  0.00     0.033 H 
BRANCH   7  10
ATOM     10  C9  FA4 d          29.025   5.782  14.520  0.00  0.00    -0.065 C 
ATOM     11  H9  FA4 d          28.673   5.575  13.499  0.00  0.00     0.033 H 
ATOM     12  H10 FA4 d          28.165   6.018  15.164  0.00  0.00     0.033 H 
BRANCH  10  13
ATOM     13  C8  FA4 d          29.953   6.997  14.480  0.00  0.00    -0.061 C 
ATOM     14  H7  FA4 d          29.845   7.491  13.504  0.00  0.00     0.033 H 
ATOM     15  H8  FA4 d          29.658   7.693  15.280  0.00  0.00     0.033 H 
BRANCH  13  16
ATOM     16  C7  FA4 d          31.430   6.615  14.679  0.00  0.00    -0.040 C 
ATOM     17  H5  FA4 d          31.480   5.683  15.261  0.00  0.00     0.040 H 
ATOM     18  H6  FA4 d          31.890   6.456  13.693  0.00  0.00     0.040 H 
BRANCH  16  19
ATOM     19  C3  FA4 d          32.204   7.684  15.409  0.00  0.00    -0.050 A 
ATOM     20  C2  FA4 d          31.884   7.975  16.776  0.00  0.00    -0.076 A 
ATOM     21  C1  FA4 d          32.598   8.982  17.494  0.00  0.00    -0.082 A 
ATOM     22  H2  FA4 d          31.091   7.424  17.271  0.00  0.00     0.084 H 
ATOM     23  C6  FA4 d          33.644   9.725  16.860  0.00  0.00    -0.082 A 
ATOM     24  H1  FA4 d          32.345   9.185  18.529  0.00  0.00     0.083 H 
ATOM     25  C5  FA4 d          33.986   9.453  15.490  0.00  0.00    -0.075 A 
ATOM     26  H4  FA4 d          34.178  10.492  17.412  0.00  0.00     0.083 H 
ATOM     27  C4  FA4 d          33.277   8.441  14.753  0.00  0.00    -0.034 A 
ATOM     28  H3  FA4 d          34.781  10.013  15.011  0.00  0.00     0.084 H 
BRANCH  27  29
ATOM     29  C27 FA4 d          33.709   8.218  13.314  0.00  0.00     0.033 C 
ATOM     30  H37 FA4 d          33.164   8.916  12.663  0.00  0.00     0.072 H 
ATOM     31  H38 FA4 d          33.471   7.184  13.024  0.00  0.00     0.072 H 
BRANCH  29  32
ATOM     32  N28 FA4 d          35.152   8.439  13.154  0.00  0.00    -0.223 N 
ATOM     33  C29 FA4 d          35.635   9.201  12.110  0.00  0.00     0.665 C 
ATOM     34  N30 FA4 d          36.779   9.859  12.255  0.00  0.00    -0.235 N 
ATOM     35  N31 FA4 d          34.967   9.294  10.951  0.00  0.00    -0.235 N 
ATOM     36  H40 FA4 d          37.147  10.431  11.481  0.00  0.00     0.174 HD
ATOM     37  H41 FA4 d          37.299   9.798  13.142  0.00  0.00     0.174 HD
ATOM     38  H42 FA4 d          34.079   8.788  10.826  0.00  0.00     0.174 HD
ATOM     39  H43 FA4 d          35.343   9.871  10.185  0.00  0.00     0.174 HD
ATOM     40  H39 FA4 d          35.810   8.022  13.827  0.00  0.00     0.178 HD
ENDBRANCH  29  32
ENDBRANCH  27  29
ENDBRANCH  16  19
ENDBRANCH  13  16
ENDBRANCH  10  13
ENDBRANCH   7  10
ENDBRANCH   4   7
ENDBRANCH   1   4
BRANCH   1  41
ATOM     41  C13 FA4 d          26.766   2.175  14.813  0.00  0.00    -0.065 C 
ATOM     42  H17 FA4 d          27.047   1.535  15.662  0.00  0.00     0.033 H 
ATOM     43  H18 FA4 d          27.181   1.755  13.885  0.00  0.00     0.033 H 
BRANCH  41  44
ATOM     44  C14 FA4 d          25.238   2.200  14.701  0.00  0.00    -0.057 C 
ATOM     45  H19 FA4 d          24.815   1.831  15.647  0.00  0.00     0.033 H 
ATOM     46  H20 FA4 d          24.940   1.531  13.880  0.00  0.00     0.033 H 
BRANCH  44  47
ATOM     47  C15 FA4 d          24.663   3.589  14.424  0.00  0.00     0.009 C 
ATOM     48  H21 FA4 d          24.818   3.839  13.363  0.00  0.00     0.047 H 
ATOM     49  H22 FA4 d          25.183   4.326  15.054  0.00  0.00     0.047 H 
BRANCH  47  50
ATOM     50  C16 FA4 d          23.160   3.632  14.736  0.00  0.00     0.218 C 
ATOM     51  N17 FA4 d          22.593   4.760  14.255  0.00  0.00    -0.348 N 
ATOM     52  H23 FA4 d          23.165   5.428  13.779  0.00  0.00     0.163 HD
ATOM     53  O19 FA4 d          22.597   2.720  15.347  0.00  0.00    -0.274 OA
BRANCH  51  54
ATOM     54  C18 FA4 d          21.176   5.028  14.412  0.00  0.00     0.091 C 
ATOM     55  H24 FA4 d          20.725   4.264  15.061  0.00  0.00     0.087 H 
BRANCH  54  56
ATOM     56  C20 FA4 d          20.535   4.958  13.024  0.00  0.00    -0.038 C 
ATOM     57  H25 FA4 d          20.141   5.953  12.772  0.00  0.00     0.036 H 
ATOM     58  H26 FA4 d          19.707   4.234  13.060  0.00  0.00     0.036 H 
BRANCH  56  59
ATOM     59  C23 FA4 d          21.500   4.530  11.923  0.00  0.00    -0.061 C 
ATOM     60  H28 FA4 d          22.475   4.293  12.376  0.00  0.00     0.033 H 
ATOM     61  H29 FA4 d          21.619   5.360  11.211  0.00  0.00     0.033 H 
BRANCH  59  62
ATOM     62  C24 FA4 d          20.994   3.300  11.169  0.00  0.00    -0.043 C 
ATOM     63  H30 FA4 d          21.130   3.467  10.091  0.00  0.00     0.035 H 
ATOM     64  H31 FA4 d          19.924   3.168  11.387  0.00  0.00     0.035 H 
BRANCH  62  65
ATOM     65  C25 FA4 d          21.737   2.024  11.568  0.00  0.00     0.080 C 
ATOM     66  H32 FA4 d          22.801   2.265  11.709  0.00  0.00     0.075 H 
ATOM     67  H33 FA4 d          21.632   1.288  10.757  0.00  0.00     0.075 H 
BRANCH  65  68
ATOM     68  N26 FA4 d          21.224   1.439  12.800  0.00  0.00    -0.079 N 
ATOM     69  H34 FA4 d          21.617   1.923  13.591  0.00  0.00     0.274 HD
ATOM     70  H35 FA4 d          21.479   0.465  12.841  0.00  0.00     0.274 HD
ATOM     71  H36 FA4 d          20.220   1.525  12.820  0.00  0.00     0.274 HD
ENDBRANCH  65  68
ENDBRANCH  62  65
ENDBRANCH  59  62
ENDBRANCH  56  59
ENDBRANCH  54  56
BRANCH  54  72
ATOM     72  C21 FA4 d          20.969   6.412  15.054  0.00  0.00     0.263 C 
ATOM     73  N22 FA4 d          20.641   7.373  14.178  0.00  0.00    -0.236 N 
ATOM     74  H27 FA4 d          20.552   7.160  13.206  0.00  0.00     0.197 HD
ATOM     75  O33 FA4 d          21.094   6.581  16.262  0.00  0.00    -0.269 OA
BRANCH  73  76
ATOM     76  O32 FA4 d          20.422   8.675  14.637  0.00  0.00    -0.287 OA
ATOM     77  H44 FA4 d          21.206   8.992  15.071  0.00  0.00     0.244 HD
ENDBRANCH  73  76
ENDBRANCH  54  72
ENDBRANCH  51  54
ENDBRANCH  47  50
ENDBRANCH  44  47
ENDBRANCH  41  44
ENDBRANCH   1  41
TORSDOF 20
ENDMDL
MODEL 5
REMARK VINA RESULT:      -7.2      3.023     10.725
REMARK  20 active torsions:
REMARK  status: ('A' for Active; 'I' for Inactive)
REMARK    1  A    between atoms: C3_3  and  C7_7 
REMARK    2  A    between atoms: C4_4  and  C27_27 
REMARK    3  A    between atoms: C7_7  and  C8_8 
REMARK    4  A    between atoms: C8_8  and  C9_9 
REMARK    5  A    between atoms: C9_9  and  C10_10 
REMARK    6  A    between atoms: C10_10  and  C11_11 
REMARK    7  A    between atoms: C11_11  and  C12_12 
REMARK    8  A    between atoms: C12_12  and  C13_13 
REMARK    9  A    between atoms: C13_13  and  C14_14 
REMARK   10  A    between atoms: C14_14  and  C15_15 
REMARK   11  A    between atoms: C15_15  and  C16_16 
REMARK       I    between atoms: C16_16  and  N17_17 
REMARK   12  A    between atoms: N17_17  and  C18_18 
REMARK   13  A    between atoms: C18_18  and  C20_20 
REMARK   14  A    between atoms: C18_18  and  C21_21 
REMARK   15  A    between atoms: C20_20  and  C23_23 
REMARK       I    between atoms: C21_21  and  N22_22 
REMARK   16  A    between atoms: N22_22  and  O32_32 
REMARK   17  A    between atoms: C23_23  and  C24_24 
REMARK   18  A    between atoms: C24_24  and  C25_25 
REMARK   19  A    between atoms: C25_25  and  N26_26 
REMARK   20  A    between atoms: C27_27  and  N28_28 
REMARK       I    between atoms: N28_28  and  C29_29 
REMARK       I    between atoms: C29_29  and  N30_30 
ROOT
ATOM      1  C12 FA4 d          26.648   2.690  14.517  0.00  0.00    -0.065 C 
ATOM      2  H15 FA4 d          27.285   2.284  15.316  0.00  0.00     0.033 H 
ATOM      3  H16 FA4 d          26.267   1.866  13.897  0.00  0.00     0.033 H 
ENDROOT
BRANCH   1   4
ATOM      4  C11 FA4 d          27.498   3.610  13.636  0.00  0.00    -0.065 C 
ATOM      5  H13 FA4 d          28.189   2.992  13.043  0.00  0.00     0.033 H 
ATOM      6  H14 FA4 d          26.832   4.166  12.960  0.00  0.00     0.033 H 
BRANCH   4   7
ATOM      7  C10 FA4 d          28.314   4.610  14.458  0.00  0.00    -0.065 C 
ATOM      8  H11 FA4 d          28.653   5.416  13.791  0.00  0.00     0.033 H 
ATOM      9  H12 FA4 d          27.664   5.031  15.240  0.00  0.00     0.033 H 
BRANCH   7  10
ATOM     10  C9  FA4 d          29.540   3.985  15.129  0.00  0.00    -0.065 C 
ATOM     11  H9  FA4 d          29.410   4.039  16.220  0.00  0.00     0.033 H 
ATOM     12  H10 FA4 d          29.611   2.931  14.820  0.00  0.00     0.033 H 
BRANCH  10  13
ATOM     13  C8  FA4 d          30.843   4.692  14.756  0.00  0.00    -0.061 C 
ATOM     14  H7  FA4 d          31.474   3.993  14.187  0.00  0.00     0.033 H 
ATOM     15  H8  FA4 d          30.604   5.564  14.128  0.00  0.00     0.033 H 
BRANCH  13  16
ATOM     16  C7  FA4 d          31.627   5.172  15.989  0.00  0.00    -0.040 C 
ATOM     17  H5  FA4 d          31.520   4.424  16.789  0.00  0.00     0.040 H 
ATOM     18  H6  FA4 d          32.688   5.270  15.718  0.00  0.00     0.040 H 
BRANCH  16  19
ATOM     19  C3  FA4 d          31.131   6.502  16.500  0.00  0.00    -0.050 A 
ATOM     20  C2  FA4 d          29.821   6.590  17.076  0.00  0.00    -0.076 A 
ATOM     21  C1  FA4 d          29.323   7.835  17.567  0.00  0.00    -0.082 A 
ATOM     22  H2  FA4 d          29.201   5.703  17.139  0.00  0.00     0.084 H 
ATOM     23  C6  FA4 d          30.121   9.021  17.489  0.00  0.00    -0.082 A 
ATOM     24  H1  FA4 d          28.332   7.882  18.003  0.00  0.00     0.083 H 
ATOM     25  C5  FA4 d          31.439   8.960  16.917  0.00  0.00    -0.075 A 
ATOM     26  H4  FA4 d          29.733   9.963  17.860  0.00  0.00     0.083 H 
ATOM     27  C4  FA4 d          31.956   7.713  16.418  0.00  0.00    -0.034 A 
ATOM     28  H3  FA4 d          32.045   9.857  16.861  0.00  0.00     0.084 H 
BRANCH  27  29
ATOM     29  C27 FA4 d          33.359   7.742  15.836  0.00  0.00     0.033 C 
ATOM     30  H37 FA4 d          33.911   6.857  16.187  0.00  0.00     0.072 H 
ATOM     31  H38 FA4 d          33.871   8.652  16.179  0.00  0.00     0.072 H 
BRANCH  29  32
ATOM     32  N28 FA4 d          33.325   7.735  14.368  0.00  0.00    -0.223 N 
ATOM     33  C29 FA4 d          33.796   8.814  13.650  0.00  0.00     0.665 C 
ATOM     34  N30 FA4 d          34.288   8.624  12.431  0.00  0.00    -0.235 N 
ATOM     35  N31 FA4 d          33.770  10.054  14.160  0.00  0.00    -0.235 N 
ATOM     36  H40 FA4 d          34.642   9.424  11.887  0.00  0.00     0.174 HD
ATOM     37  H41 FA4 d          34.317   7.676  12.030  0.00  0.00     0.174 HD
ATOM     38  H42 FA4 d          33.391  10.214  15.104  0.00  0.00     0.174 HD
ATOM     39  H43 FA4 d          34.129  10.846  13.609  0.00  0.00     0.174 HD
ATOM     40  H39 FA4 d          32.947   6.917  13.870  0.00  0.00     0.178 HD
ENDBRANCH  29  32
ENDBRANCH  27  29
ENDBRANCH  16  19
ENDBRANCH  13  16
ENDBRANCH  10  13
ENDBRANCH   7  10
ENDBRANCH   4   7
ENDBRANCH   1   4
BRANCH   1  41
ATOM     41  C13 FA4 d          25.462   3.402  15.158  0.00  0.00    -0.065 C 
ATOM     42  H17 FA4 d          25.315   4.367  14.652  0.00  0.00     0.033 H 
ATOM     43  H18 FA4 d          25.688   3.575  16.220  0.00  0.00     0.033 H 
BRANCH  41  44
ATOM     44  C14 FA4 d          24.163   2.594  15.059  0.00  0.00    -0.057 C 
ATOM     45  H19 FA4 d          24.406   1.528  15.187  0.00  0.00     0.033 H 
ATOM     46  H20 FA4 d          23.730   2.754  14.060  0.00  0.00     0.033 H 
BRANCH  44  47
ATOM     47  C15 FA4 d          23.117   2.978  16.106  0.00  0.00     0.009 C 
ATOM     48  H21 FA4 d          23.589   3.612  16.871  0.00  0.00     0.047 H 
ATOM     49  H22 FA4 d          22.725   2.064  16.577  0.00  0.00     0.047 H 
BRANCH  47  50
ATOM     50  C16 FA4 d          21.956   3.749  15.462  0.00  0.00     0.218 C 
ATOM     51  N17 FA4 d          22.271   4.154  14.212  0.00  0.00    -0.348 N 
ATOM     52  H23 FA4 d          23.176   3.938  13.844  0.00  0.00     0.163 HD
ATOM     53  O19 FA4 d          20.892   3.939  16.057  0.00  0.00    -0.274 OA
BRANCH  51  54
ATOM     54  C18 FA4 d          21.333   4.892  13.389  0.00  0.00     0.091 C 
ATOM     55  H24 FA4 d          20.304   4.641  13.686  0.00  0.00     0.087 H 
BRANCH  54  56
ATOM     56  C20 FA4 d          21.558   4.469  11.936  0.00  0.00    -0.038 C 
ATOM     57  H25 FA4 d          22.388   5.062  11.526  0.00  0.00     0.036 H 
ATOM     58  H26 FA4 d          20.640   4.679  11.366  0.00  0.00     0.036 H 
BRANCH  56  59
ATOM     59  C23 FA4 d          21.897   2.991  11.772  0.00  0.00    -0.061 C 
ATOM     60  H28 FA4 d          21.767   2.486  12.742  0.00  0.00     0.033 H 
ATOM     61  H29 FA4 d          22.944   2.899  11.449  0.00  0.00     0.033 H 
BRANCH  59  62
ATOM     62  C24 FA4 d          20.999   2.312  10.738  0.00  0.00    -0.043 C 
ATOM     63  H30 FA4 d          21.629   1.725  10.055  0.00  0.00     0.035 H 
ATOM     64  H31 FA4 d          20.466   3.089  10.169  0.00  0.00     0.035 H 
BRANCH  62  65
ATOM     65  C25 FA4 d          19.969   1.381  11.380  0.00  0.00     0.080 C 
ATOM     66  H32 FA4 d          20.227   0.342  11.126  0.00  0.00     0.075 H 
ATOM     67  H33 FA4 d          18.975   1.622  10.977  0.00  0.00     0.075 H 
BRANCH  65  68
ATOM     68  N26 FA4 d          19.929   1.509  12.832  0.00  0.00    -0.079 N 
ATOM     69  H34 FA4 d          18.973   1.460  13.147  0.00  0.00     0.274 HD
ATOM     70  H35 FA4 d          20.326   2.395  13.102  0.00  0.00     0.274 HD
ATOM     71  H36 FA4 d          20.458   0.761  13.250  0.00  0.00     0.274 HD
ENDBRANCH  65  68
ENDBRANCH  62  65
ENDBRANCH  59  62
ENDBRANCH  56  59
ENDBRANCH  54  56
BRANCH  54  72
ATOM     72  C21 FA4 d          21.549   6.405  13.571  0.00  0.00     0.263 C 
ATOM     73  N22 FA4 d          20.496   7.044  14.102  0.00  0.00    -0.236 N 
ATOM     74  H27 FA4 d          19.667   6.538  14.340  0.00  0.00     0.197 HD
ATOM     75  O33 FA4 d          22.605   6.943  13.254  0.00  0.00    -0.269 OA
BRANCH  73  76
ATOM     76  O32 FA4 d          20.567   8.423  14.321  0.00  0.00    -0.287 OA
ATOM     77  H44 FA4 d          20.534   8.876  13.486  0.00  0.00     0.244 HD
ENDBRANCH  73  76
ENDBRANCH  54  72
ENDBRANCH  51  54
ENDBRANCH  47  50
ENDBRANCH  44  47
ENDBRANCH  41  44
ENDBRANCH   1  41
TORSDOF 20
ENDMDL
MODEL 6
REMARK VINA RESULT:      -7.1      2.556      4.694
REMARK  20 active torsions:
REMARK  status: ('A' for Active; 'I' for Inactive)
REMARK    1  A    between atoms: C3_3  and  C7_7 
REMARK    2  A    between atoms: C4_4  and  C27_27 
REMARK    3  A    between atoms: C7_7  and  C8_8 
REMARK    4  A    between atoms: C8_8  and  C9_9 
REMARK    5  A    between atoms: C9_9  and  C10_10 
REMARK    6  A    between atoms: C10_10  and  C11_11 
REMARK    7  A    between atoms: C11_11  and  C12_12 
REMARK    8  A    between atoms: C12_12  and  C13_13 
REMARK    9  A    between atoms: C13_13  and  C14_14 
REMARK   10  A    between atoms: C14_14  and  C15_15 
REMARK   11  A    between atoms: C15_15  and  C16_16 
REMARK       I    between atoms: C16_16  and  N17_17 
REMARK   12  A    between atoms: N17_17  and  C18_18 
REMARK   13  A    between atoms: C18_18  and  C20_20 
REMARK   14  A    between atoms: C18_18  and  C21_21 
REMARK   15  A    between atoms: C20_20  and  C23_23 
REMARK       I    between atoms: C21_21  and  N22_22 
REMARK   16  A    between atoms: N22_22  and  O32_32 
REMARK   17  A    between atoms: C23_23  and  C24_24 
REMARK   18  A    between atoms: C24_24  and  C25_25 
REMARK   19  A    between atoms: C25_25  and  N26_26 
REMARK   20  A    between atoms: C27_27  and  N28_28 
REMARK       I    between atoms: N28_28  and  C29_29 
REMARK       I    between atoms: C29_29  and  N30_30 
ROOT
ATOM      1  C12 FA4 d          25.070   4.798  13.438  0.00  0.00    -0.065 C 
ATOM      2  H15 FA4 d          24.858   4.997  14.499  0.00  0.00     0.033 H 
ATOM      3  H16 FA4 d          25.770   5.555  13.056  0.00  0.00     0.033 H 
ENDROOT
BRANCH   1   4
ATOM      4  C11 FA4 d          23.761   4.905  12.651  0.00  0.00    -0.065 C 
ATOM      5  H13 FA4 d          23.024   5.448  13.262  0.00  0.00     0.033 H 
ATOM      6  H14 FA4 d          23.950   5.464  11.723  0.00  0.00     0.033 H 
BRANCH   4   7
ATOM      7  C10 FA4 d          23.186   3.533  12.291  0.00  0.00    -0.065 C 
ATOM      8  H11 FA4 d          23.861   3.051  11.568  0.00  0.00     0.033 H 
ATOM      9  H12 FA4 d          23.135   2.925  13.206  0.00  0.00     0.033 H 
BRANCH   7  10
ATOM     10  C9  FA4 d          21.786   3.606  11.676  0.00  0.00    -0.065 C 
ATOM     11  H9  FA4 d          21.865   3.409  10.597  0.00  0.00     0.033 H 
ATOM     12  H10 FA4 d          21.155   2.836  12.145  0.00  0.00     0.033 H 
BRANCH  10  13
ATOM     13  C8  FA4 d          21.122   4.969  11.877  0.00  0.00    -0.061 C 
ATOM     14  H7  FA4 d          21.900   5.707  12.122  0.00  0.00     0.033 H 
ATOM     15  H8  FA4 d          20.623   5.260  10.940  0.00  0.00     0.033 H 
BRANCH  13  16
ATOM     16  C7  FA4 d          20.080   4.956  13.008  0.00  0.00    -0.040 C 
ATOM     17  H5  FA4 d          19.104   5.250  12.593  0.00  0.00     0.040 H 
ATOM     18  H6  FA4 d          20.013   3.936  13.415  0.00  0.00     0.040 H 
BRANCH  16  19
ATOM     19  C3  FA4 d          20.437   5.902  14.126  0.00  0.00    -0.050 A 
ATOM     20  C2  FA4 d          20.610   7.296  13.840  0.00  0.00    -0.076 A 
ATOM     21  C1  FA4 d          20.949   8.216  14.878  0.00  0.00    -0.082 A 
ATOM     22  H2  FA4 d          20.482   7.656  12.825  0.00  0.00     0.084 H 
ATOM     23  C6  FA4 d          21.129   7.764  16.224  0.00  0.00    -0.082 A 
ATOM     24  H1  FA4 d          21.072   9.268  14.644  0.00  0.00     0.083 H 
ATOM     25  C5  FA4 d          20.960   6.371  16.538  0.00  0.00    -0.075 A 
ATOM     26  H4  FA4 d          21.391   8.470  17.004  0.00  0.00     0.083 H 
ATOM     27  C4  FA4 d          20.617   5.430  15.504  0.00  0.00    -0.034 A 
ATOM     28  H3  FA4 d          21.092   6.028  17.558  0.00  0.00     0.084 H 
BRANCH  27  29
ATOM     29  C27 FA4 d          20.454   3.981  15.929  0.00  0.00     0.033 C 
ATOM     30  H37 FA4 d          19.416   3.668  15.745  0.00  0.00     0.072 H 
ATOM     31  H38 FA4 d          20.678   3.895  17.003  0.00  0.00     0.072 H 
BRANCH  29  32
ATOM     32  N28 FA4 d          21.360   3.102  15.179  0.00  0.00    -0.223 N 
ATOM     33  C29 FA4 d          22.629   2.836  15.648  0.00  0.00     0.665 C 
ATOM     34  N30 FA4 d          23.212   1.683  15.338  0.00  0.00    -0.235 N 
ATOM     35  N31 FA4 d          23.286   3.717  16.417  0.00  0.00    -0.235 N 
ATOM     36  H40 FA4 d          24.160   1.476  15.684  0.00  0.00     0.174 HD
ATOM     37  H41 FA4 d          22.717   0.997  14.752  0.00  0.00     0.174 HD
ATOM     38  H42 FA4 d          22.843   4.614  16.664  0.00  0.00     0.174 HD
ATOM     39  H43 FA4 d          24.231   3.497  16.760  0.00  0.00     0.174 HD
ATOM     40  H39 FA4 d          21.044   2.681  14.294  0.00  0.00     0.178 HD
ENDBRANCH  29  32
ENDBRANCH  27  29
ENDBRANCH  16  19
ENDBRANCH  13  16
ENDBRANCH  10  13
ENDBRANCH   7  10
ENDBRANCH   4   7
ENDBRANCH   1   4
BRANCH   1  41
ATOM     41  C13 FA4 d          25.729   3.428  13.324  0.00  0.00    -0.065 C 
ATOM     42  H17 FA4 d          26.021   3.264  12.276  0.00  0.00     0.033 H 
ATOM     43  H18 FA4 d          25.000   2.661  13.625  0.00  0.00     0.033 H 
BRANCH  41  44
ATOM     44  C14 FA4 d          26.974   3.295  14.207  0.00  0.00    -0.057 C 
ATOM     45  H19 FA4 d          27.757   2.784  13.627  0.00  0.00     0.033 H 
ATOM     46  H20 FA4 d          26.714   2.687  15.086  0.00  0.00     0.033 H 
BRANCH  44  47
ATOM     47  C15 FA4 d          27.531   4.634  14.693  0.00  0.00     0.009 C 
ATOM     48  H21 FA4 d          27.119   4.854  15.689  0.00  0.00     0.047 H 
ATOM     49  H22 FA4 d          27.232   5.425  13.989  0.00  0.00     0.047 H 
BRANCH  47  50
ATOM     50  C16 FA4 d          29.063   4.591  14.780  0.00  0.00     0.218 C 
ATOM     51  N17 FA4 d          29.549   5.696  15.387  0.00  0.00    -0.348 N 
ATOM     52  H23 FA4 d          28.911   6.402  15.697  0.00  0.00     0.163 HD
ATOM     53  O19 FA4 d          29.713   3.640  14.339  0.00  0.00    -0.274 OA
BRANCH  51  54
ATOM     54  C18 FA4 d          30.971   5.886  15.602  0.00  0.00     0.091 C 
ATOM     55  H24 FA4 d          31.471   4.908  15.645  0.00  0.00     0.087 H 
BRANCH  54  56
ATOM     56  C20 FA4 d          31.145   6.604  16.942  0.00  0.00    -0.038 C 
ATOM     57  H25 FA4 d          32.095   7.159  16.918  0.00  0.00     0.036 H 
ATOM     58  H26 FA4 d          31.182   5.847  17.740  0.00  0.00     0.036 H 
BRANCH  56  59
ATOM     59  C23 FA4 d          30.023   7.587  17.262  0.00  0.00    -0.061 C 
ATOM     60  H28 FA4 d          29.387   7.156  18.050  0.00  0.00     0.033 H 
ATOM     61  H29 FA4 d          29.423   7.750  16.355  0.00  0.00     0.033 H 
BRANCH  59  62
ATOM     62  C24 FA4 d          30.566   8.932  17.746  0.00  0.00    -0.043 C 
ATOM     63  H30 FA4 d          31.591   8.786  18.116  0.00  0.00     0.035 H 
ATOM     64  H31 FA4 d          29.929   9.296  18.565  0.00  0.00     0.035 H 
BRANCH  62  65
ATOM     65  C25 FA4 d          30.590   9.984  16.636  0.00  0.00     0.080 C 
ATOM     66  H32 FA4 d          30.467  10.978  17.090  0.00  0.00     0.075 H 
ATOM     67  H33 FA4 d          29.754   9.790  15.947  0.00  0.00     0.075 H 
BRANCH  65  68
ATOM     68  N26 FA4 d          31.835   9.968  15.877  0.00  0.00    -0.079 N 
ATOM     69  H34 FA4 d          32.616   9.962  16.513  0.00  0.00     0.274 HD
ATOM     70  H35 FA4 d          31.883  10.789  15.294  0.00  0.00     0.274 HD
ATOM     71  H36 FA4 d          31.866   9.143  15.299  0.00  0.00     0.274 HD
ENDBRANCH  65  68
ENDBRANCH  62  65
ENDBRANCH  59  62
ENDBRANCH  56  59
ENDBRANCH  54  56
BRANCH  54  72
ATOM     72  C21 FA4 d          31.574   6.704  14.446  0.00  0.00     0.263 C 
ATOM     73  N22 FA4 d          32.746   6.230  13.999  0.00  0.00    -0.236 N 
ATOM     74  H27 FA4 d          33.152   5.416  14.414  0.00  0.00     0.197 HD
ATOM     75  O33 FA4 d          31.002   7.690  13.993  0.00  0.00    -0.269 OA
BRANCH  73  76
ATOM     76  O32 FA4 d          33.396   6.883  12.948  0.00  0.00    -0.287 OA
ATOM     77  H44 FA4 d          33.949   7.572  13.299  0.00  0.00     0.244 HD
ENDBRANCH  73  76
ENDBRANCH  54  72
ENDBRANCH  51  54
ENDBRANCH  47  50
ENDBRANCH  44  47
ENDBRANCH  41  44
ENDBRANCH   1  41
TORSDOF 20
ENDMDL
MODEL 7
REMARK VINA RESULT:      -7.0      3.397     10.957
REMARK  20 active torsions:
REMARK  status: ('A' for Active; 'I' for Inactive)
REMARK    1  A    between atoms: C3_3  and  C7_7 
REMARK    2  A    between atoms: C4_4  and  C27_27 
REMARK    3  A    between atoms: C7_7  and  C8_8 
REMARK    4  A    between atoms: C8_8  and  C9_9 
REMARK    5  A    between atoms: C9_9  and  C10_10 
REMARK    6  A    between atoms: C10_10  and  C11_11 
REMARK    7  A    between atoms: C11_11  and  C12_12 
REMARK    8  A    between atoms: C12_12  and  C13_13 
REMARK    9  A    between atoms: C13_13  and  C14_14 
REMARK   10  A    between atoms: C14_14  and  C15_15 
REMARK   11  A    between atoms: C15_15  and  C16_16 
REMARK       I    between atoms: C16_16  and  N17_17 
REMARK   12  A    between atoms: N17_17  and  C18_18 
REMARK   13  A    between atoms: C18_18  and  C20_20 
REMARK   14  A    between atoms: C18_18  and  C21_21 
REMARK   15  A    between atoms: C20_20  and  C23_23 
REMARK       I    between atoms: C21_21  and  N22_22 
REMARK   16  A    between atoms: N22_22  and  O32_32 
REMARK   17  A    between atoms: C23_23  and  C24_24 
REMARK   18  A    between atoms: C24_24  and  C25_25 
REMARK   19  A    between atoms: C25_25  and  N26_26 
REMARK   20  A    between atoms: C27_27  and  N28_28 
REMARK       I    between atoms: N28_28  and  C29_29 
REMARK       I    between atoms: C29_29  and  N30_30 
ROOT
ATOM      1  C12 FA4 d          29.736   4.491  14.652  0.00  0.00    -0.065 C 
ATOM      2  H15 FA4 d          30.150   4.126  13.700  0.00  0.00     0.033 H 
ATOM      3  H16 FA4 d          29.442   5.544  14.545  0.00  0.00     0.033 H 
ENDROOT
BRANCH   1   4
ATOM      4  C11 FA4 d          30.824   4.395  15.725  0.00  0.00    -0.065 C 
ATOM      5  H13 FA4 d          30.367   4.048  16.664  0.00  0.00     0.033 H 
ATOM      6  H14 FA4 d          31.583   3.669  15.396  0.00  0.00     0.033 H 
BRANCH   4   7
ATOM      7  C10 FA4 d          31.508   5.741  15.979  0.00  0.00    -0.065 C 
ATOM      8  H11 FA4 d          32.532   5.551  16.334  0.00  0.00     0.033 H 
ATOM      9  H12 FA4 d          31.546   6.298  15.031  0.00  0.00     0.033 H 
BRANCH   7  10
ATOM     10  C9  FA4 d          30.784   6.601  17.019  0.00  0.00    -0.065 C 
ATOM     11  H9  FA4 d          29.703   6.564  16.815  0.00  0.00     0.033 H 
ATOM     12  H10 FA4 d          30.984   6.187  18.018  0.00  0.00     0.033 H 
BRANCH  10  13
ATOM     13  C8  FA4 d          31.236   8.062  16.996  0.00  0.00    -0.061 C 
ATOM     14  H7  FA4 d          30.808   8.577  17.869  0.00  0.00     0.033 H 
ATOM     15  H8  FA4 d          32.334   8.093  17.054  0.00  0.00     0.033 H 
BRANCH  13  16
ATOM     16  C7  FA4 d          30.788   8.797  15.721  0.00  0.00    -0.040 C 
ATOM     17  H5  FA4 d          30.893   8.114  14.864  0.00  0.00     0.040 H 
ATOM     18  H6  FA4 d          29.733   9.086  15.831  0.00  0.00     0.040 H 
BRANCH  16  19
ATOM     19  C3  FA4 d          31.606  10.035  15.457  0.00  0.00    -0.050 A 
ATOM     20  C2  FA4 d          31.251  11.264  16.106  0.00  0.00    -0.076 A 
ATOM     21  C1  FA4 d          32.007  12.454  15.876  0.00  0.00    -0.082 A 
ATOM     22  H2  FA4 d          30.401  11.291  16.778  0.00  0.00     0.084 H 
ATOM     23  C6  FA4 d          33.130  12.445  14.988  0.00  0.00    -0.082 A 
ATOM     24  H1  FA4 d          31.726  13.373  16.378  0.00  0.00     0.083 H 
ATOM     25  C5  FA4 d          33.508  11.226  14.326  0.00  0.00    -0.075 A 
ATOM     26  H4  FA4 d          33.694  13.355  14.816  0.00  0.00     0.083 H 
ATOM     27  C4  FA4 d          32.758  10.017  14.548  0.00  0.00    -0.034 A 
ATOM     28  H3  FA4 d          34.361  11.217  13.657  0.00  0.00     0.084 H 
BRANCH  27  29
ATOM     29  C27 FA4 d          33.233   8.777  13.811  0.00  0.00     0.033 C 
ATOM     30  H37 FA4 d          32.445   8.446  13.119  0.00  0.00     0.072 H 
ATOM     31  H38 FA4 d          33.436   7.981  14.542  0.00  0.00     0.072 H 
BRANCH  29  32
ATOM     32  N28 FA4 d          34.458   9.049  13.048  0.00  0.00    -0.223 N 
ATOM     33  C29 FA4 d          34.865   8.196  12.044  0.00  0.00     0.665 C 
ATOM     34  N30 FA4 d          35.573   8.673  11.027  0.00  0.00    -0.235 N 
ATOM     35  N31 FA4 d          34.556   6.891  12.072  0.00  0.00    -0.235 N 
ATOM     36  H40 FA4 d          35.882   8.043  10.273  0.00  0.00     0.174 HD
ATOM     37  H41 FA4 d          35.814   9.674  10.992  0.00  0.00     0.174 HD
ATOM     38  H42 FA4 d          34.007   6.510  12.856  0.00  0.00     0.174 HD
ATOM     39  H43 FA4 d          34.867   6.271  11.311  0.00  0.00     0.174 HD
ATOM     40  H39 FA4 d          35.018   9.886  13.264  0.00  0.00     0.178 HD
ENDBRANCH  29  32
ENDBRANCH  27  29
ENDBRANCH  16  19
ENDBRANCH  13  16
ENDBRANCH  10  13
ENDBRANCH   7  10
ENDBRANCH   4   7
ENDBRANCH   1   4
BRANCH   1  41
ATOM     41  C13 FA4 d          28.493   3.673  14.984  0.00  0.00    -0.065 C 
ATOM     42  H17 FA4 d          28.673   3.122  15.919  0.00  0.00     0.033 H 
ATOM     43  H18 FA4 d          28.313   2.959  14.167  0.00  0.00     0.033 H 
BRANCH  41  44
ATOM     44  C14 FA4 d          27.243   4.541  15.161  0.00  0.00    -0.057 C 
ATOM     45  H19 FA4 d          27.472   5.335  15.887  0.00  0.00     0.033 H 
ATOM     46  H20 FA4 d          26.432   3.909  15.552  0.00  0.00     0.033 H 
BRANCH  44  47
ATOM     47  C15 FA4 d          26.760   5.197  13.866  0.00  0.00     0.009 C 
ATOM     48  H21 FA4 d          27.567   5.156  13.119  0.00  0.00     0.047 H 
ATOM     49  H22 FA4 d          26.501   6.247  14.069  0.00  0.00     0.047 H 
BRANCH  47  50
ATOM     50  C16 FA4 d          25.525   4.472  13.313  0.00  0.00     0.218 C 
ATOM     51  N17 FA4 d          24.429   5.260  13.372  0.00  0.00    -0.348 N 
ATOM     52  H23 FA4 d          24.511   6.180  13.754  0.00  0.00     0.163 HD
ATOM     53  O19 FA4 d          25.588   3.319  12.878  0.00  0.00    -0.274 OA
BRANCH  51  54
ATOM     54  C18 FA4 d          23.136   4.806  12.895  0.00  0.00     0.091 C 
ATOM     55  H24 FA4 d          23.207   4.541  11.830  0.00  0.00     0.087 H 
BRANCH  54  56
ATOM     56  C20 FA4 d          22.148   5.961  13.067  0.00  0.00    -0.038 C 
ATOM     57  H25 FA4 d          21.210   5.558  13.477  0.00  0.00     0.036 H 
ATOM     58  H26 FA4 d          21.955   6.403  12.077  0.00  0.00     0.036 H 
BRANCH  56  59
ATOM     59  C23 FA4 d          22.645   7.062  13.997  0.00  0.00    -0.061 C 
ATOM     60  H28 FA4 d          23.099   7.862  13.392  0.00  0.00     0.033 H 
ATOM     61  H29 FA4 d          23.402   6.641  14.675  0.00  0.00     0.033 H 
BRANCH  59  62
ATOM     62  C24 FA4 d          21.511   7.658  14.831  0.00  0.00    -0.043 C 
ATOM     63  H30 FA4 d          20.939   8.355  14.202  0.00  0.00     0.035 H 
ATOM     64  H31 FA4 d          21.946   8.203  15.681  0.00  0.00     0.035 H 
BRANCH  62  65
ATOM     65  C25 FA4 d          20.559   6.588  15.369  0.00  0.00     0.080 C 
ATOM     66  H32 FA4 d          20.514   5.761  14.647  0.00  0.00     0.075 H 
ATOM     67  H33 FA4 d          19.558   7.032  15.482  0.00  0.00     0.075 H 
BRANCH  65  68
ATOM     68  N26 FA4 d          20.984   6.059  16.659  0.00  0.00    -0.079 N 
ATOM     69  H34 FA4 d          21.634   5.303  16.515  0.00  0.00     0.274 HD
ATOM     70  H35 FA4 d          20.180   5.720  17.164  0.00  0.00     0.274 HD
ATOM     71  H36 FA4 d          21.432   6.789  17.191  0.00  0.00     0.274 HD
ENDBRANCH  65  68
ENDBRANCH  62  65
ENDBRANCH  59  62
ENDBRANCH  56  59
ENDBRANCH  54  56
BRANCH  54  72
ATOM     72  C21 FA4 d          22.689   3.564  13.688  0.00  0.00     0.263 C 
ATOM     73  N22 FA4 d          22.536   2.466  12.934  0.00  0.00    -0.236 N 
ATOM     74  H27 FA4 d          22.708   2.501  11.950  0.00  0.00     0.197 HD
ATOM     75  O33 FA4 d          22.506   3.611  14.900  0.00  0.00    -0.269 OA
BRANCH  73  76
ATOM     76  O32 FA4 d          22.135   1.270  13.537  0.00  0.00    -0.287 OA
ATOM     77  H44 FA4 d          21.402   0.904  13.055  0.00  0.00     0.244 HD
ENDBRANCH  73  76
ENDBRANCH  54  72
ENDBRANCH  51  54
ENDBRANCH  47  50
ENDBRANCH  44  47
ENDBRANCH  41  44
ENDBRANCH   1  41
TORSDOF 20
ENDMDL
MODEL 8
REMARK VINA RESULT:      -6.9      3.660     11.489
REMARK  20 active torsions:
REMARK  status: ('A' for Active; 'I' for Inactive)
REMARK    1  A    between atoms: C3_3  and  C7_7 
REMARK    2  A    between atoms: C4_4  and  C27_27 
REMARK    3  A    between atoms: C7_7  and  C8_8 
REMARK    4  A    between atoms: C8_8  and  C9_9 
REMARK    5  A    between atoms: C9_9  and  C10_10 
REMARK    6  A    between atoms: C10_10  and  C11_11 
REMARK    7  A    between atoms: C11_11  and  C12_12 
REMARK    8  A    between atoms: C12_12  and  C13_13 
REMARK    9  A    between atoms: C13_13  and  C14_14 
REMARK   10  A    between atoms: C14_14  and  C15_15 
REMARK   11  A    between atoms: C15_15  and  C16_16 
REMARK       I    between atoms: C16_16  and  N17_17 
REMARK   12  A    between atoms: N17_17  and  C18_18 
REMARK   13  A    between atoms: C18_18  and  C20_20 
REMARK   14  A    between atoms: C18_18  and  C21_21 
REMARK   15  A    between atoms: C20_20  and  C23_23 
REMARK       I    between atoms: C21_21  and  N22_22 
REMARK   16  A    between atoms: N22_22  and  O32_32 
REMARK   17  A    between atoms: C23_23  and  C24_24 
REMARK   18  A    between atoms: C24_24  and  C25_25 
REMARK   19  A    between atoms: C25_25  and  N26_26 
REMARK   20  A    between atoms: C27_27  and  N28_28 
REMARK       I    between atoms: N28_28  and  C29_29 
REMARK       I    between atoms: C29_29  and  N30_30 
ROOT
ATOM      1  C12 FA4 d          28.525   3.682  15.059  0.00  0.00    -0.065 C 
ATOM      2  H15 FA4 d          28.997   3.423  16.019  0.00  0.00     0.033 H 
ATOM      3  H16 FA4 d          29.258   3.568  14.248  0.00  0.00     0.033 H 
ENDROOT
BRANCH   1   4
ATOM      4  C11 FA4 d          28.084   5.148  15.115  0.00  0.00    -0.065 C 
ATOM      5  H13 FA4 d          27.219   5.282  14.448  0.00  0.00     0.033 H 
ATOM      6  H14 FA4 d          27.793   5.391  16.147  0.00  0.00     0.033 H 
BRANCH   4   7
ATOM      7  C10 FA4 d          29.196   6.105  14.678  0.00  0.00    -0.065 C 
ATOM      8  H11 FA4 d          28.996   6.424  13.644  0.00  0.00     0.033 H 
ATOM      9  H12 FA4 d          29.182   6.982  15.342  0.00  0.00     0.033 H 
BRANCH   7  10
ATOM     10  C9  FA4 d          30.592   5.477  14.733  0.00  0.00    -0.065 C 
ATOM     11  H9  FA4 d          30.489   4.384  14.647  0.00  0.00     0.033 H 
ATOM     12  H10 FA4 d          31.183   5.857  13.887  0.00  0.00     0.033 H 
BRANCH  10  13
ATOM     13  C8  FA4 d          31.334   5.797  16.031  0.00  0.00    -0.061 C 
ATOM     14  H7  FA4 d          30.760   6.552  16.588  0.00  0.00     0.033 H 
ATOM     15  H8  FA4 d          31.410   4.878  16.631  0.00  0.00     0.033 H 
BRANCH  13  16
ATOM     16  C7  FA4 d          32.751   6.341  15.780  0.00  0.00    -0.040 C 
ATOM     17  H5  FA4 d          33.459   5.790  16.417  0.00  0.00     0.040 H 
ATOM     18  H6  FA4 d          33.009   6.180  14.722  0.00  0.00     0.040 H 
BRANCH  16  19
ATOM     19  C3  FA4 d          32.863   7.812  16.089  0.00  0.00    -0.050 A 
ATOM     20  C2  FA4 d          32.524   8.283  17.400  0.00  0.00    -0.076 A 
ATOM     21  C1  FA4 d          32.619   9.671  17.723  0.00  0.00    -0.082 A 
ATOM     22  H2  FA4 d          32.192   7.580  18.154  0.00  0.00     0.084 H 
ATOM     23  C6  FA4 d          33.049  10.620  16.741  0.00  0.00    -0.082 A 
ATOM     24  H1  FA4 d          32.362  10.009  18.720  0.00  0.00     0.083 H 
ATOM     25  C5  FA4 d          33.396  10.174  15.419  0.00  0.00    -0.075 A 
ATOM     26  H4  FA4 d          33.113  11.673  16.994  0.00  0.00     0.083 H 
ATOM     27  C4  FA4 d          33.307   8.779  15.077  0.00  0.00    -0.034 A 
ATOM     28  H3  FA4 d          33.727  10.892  14.677  0.00  0.00     0.084 H 
BRANCH  27  29
ATOM     29  C27 FA4 d          33.699   8.398  13.660  0.00  0.00     0.033 C 
ATOM     30  H37 FA4 d          33.159   9.044  12.953  0.00  0.00     0.072 H 
ATOM     31  H38 FA4 d          33.425   7.349  13.481  0.00  0.00     0.072 H 
BRANCH  29  32
ATOM     32  N28 FA4 d          35.144   8.558  13.448  0.00  0.00    -0.223 N 
ATOM     33  C29 FA4 d          35.623   9.180  12.314  0.00  0.00     0.665 C 
ATOM     34  N30 FA4 d          36.787   9.818  12.360  0.00  0.00    -0.235 N 
ATOM     35  N31 FA4 d          34.933   9.157  11.164  0.00  0.00    -0.235 N 
ATOM     36  H40 FA4 d          37.152  10.285  11.518  0.00  0.00     0.174 HD
ATOM     37  H41 FA4 d          37.324   9.846  13.239  0.00  0.00     0.174 HD
ATOM     38  H42 FA4 d          34.029   8.665  11.116  0.00  0.00     0.174 HD
ATOM     39  H43 FA4 d          35.307   9.630  10.330  0.00  0.00     0.174 HD
ATOM     40  H39 FA4 d          35.805   8.204  14.154  0.00  0.00     0.178 HD
ENDBRANCH  29  32
ENDBRANCH  27  29
ENDBRANCH  16  19
ENDBRANCH  13  16
ENDBRANCH  10  13
ENDBRANCH   7  10
ENDBRANCH   4   7
ENDBRANCH   1   4
BRANCH   1  41
ATOM     41  C13 FA4 d          27.371   2.717  14.811  0.00  0.00    -0.065 C 
ATOM     42  H17 FA4 d          26.948   2.418  15.780  0.00  0.00     0.033 H 
ATOM     43  H18 FA4 d          27.761   1.830  14.291  0.00  0.00     0.033 H 
BRANCH  41  44
ATOM     44  C14 FA4 d          26.257   3.335  13.959  0.00  0.00    -0.057 C 
ATOM     45  H19 FA4 d          26.479   3.136  12.900  0.00  0.00     0.033 H 
ATOM     46  H20 FA4 d          26.247   4.421  14.134  0.00  0.00     0.033 H 
BRANCH  44  47
ATOM     47  C15 FA4 d          24.865   2.783  14.272  0.00  0.00     0.009 C 
ATOM     48  H21 FA4 d          24.683   2.857  15.354  0.00  0.00     0.047 H 
ATOM     49  H22 FA4 d          24.818   1.728  13.963  0.00  0.00     0.047 H 
BRANCH  47  50
ATOM     50  C16 FA4 d          23.782   3.574  13.525  0.00  0.00     0.218 C 
ATOM     51  N17 FA4 d          22.561   3.357  14.061  0.00  0.00    -0.348 N 
ATOM     52  H23 FA4 d          22.475   2.735  14.839  0.00  0.00     0.163 HD
ATOM     53  O19 FA4 d          24.053   4.303  12.567  0.00  0.00    -0.274 OA
BRANCH  51  54
ATOM     54  C18 FA4 d          21.372   4.003  13.538  0.00  0.00     0.091 C 
ATOM     55  H24 FA4 d          21.650   4.948  13.048  0.00  0.00     0.087 H 
BRANCH  54  56
ATOM     56  C20 FA4 d          20.448   4.299  14.722  0.00  0.00    -0.038 C 
ATOM     57  H25 FA4 d          19.944   3.365  15.011  0.00  0.00     0.036 H 
ATOM     58  H26 FA4 d          19.697   5.036  14.400  0.00  0.00     0.036 H 
BRANCH  56  59
ATOM     59  C23 FA4 d          21.172   4.853  15.944  0.00  0.00    -0.061 C 
ATOM     60  H28 FA4 d          22.257   4.747  15.793  0.00  0.00     0.033 H 
ATOM     61  H29 FA4 d          20.868   4.277  16.830  0.00  0.00     0.033 H 
BRANCH  59  62
ATOM     62  C24 FA4 d          20.848   6.329  16.177  0.00  0.00    -0.043 C 
ATOM     63  H30 FA4 d          21.516   6.717  16.959  0.00  0.00     0.035 H 
ATOM     64  H31 FA4 d          19.804   6.412  16.512  0.00  0.00     0.035 H 
BRANCH  62  65
ATOM     65  C25 FA4 d          21.028   7.173  14.914  0.00  0.00     0.080 C 
ATOM     66  H32 FA4 d          20.633   8.181  15.104  0.00  0.00     0.075 H 
ATOM     67  H33 FA4 d          20.462   6.705  14.094  0.00  0.00     0.075 H 
BRANCH  65  68
ATOM     68  N26 FA4 d          22.425   7.287  14.512  0.00  0.00    -0.079 N 
ATOM     69  H34 FA4 d          22.540   8.097  13.924  0.00  0.00     0.274 HD
ATOM     70  H35 FA4 d          22.697   6.460  14.004  0.00  0.00     0.274 HD
ATOM     71  H36 FA4 d          23.003   7.383  15.332  0.00  0.00     0.274 HD
ENDBRANCH  65  68
ENDBRANCH  62  65
ENDBRANCH  59  62
ENDBRANCH  56  59
ENDBRANCH  54  56
BRANCH  54  72
ATOM     72  C21 FA4 d          20.686   3.090  12.507  0.00  0.00     0.263 C 
ATOM     73  N22 FA4 d          20.503   1.832  12.933  0.00  0.00    -0.236 N 
ATOM     74  H27 FA4 d          20.805   1.560  13.847  0.00  0.00     0.197 HD
ATOM     75  O33 FA4 d          20.343   3.511  11.407  0.00  0.00    -0.269 OA
BRANCH  73  76
ATOM     76  O32 FA4 d          19.887   0.903  12.089  0.00  0.00    -0.287 OA
ATOM     77  H44 FA4 d          19.979   0.032  12.458  0.00  0.00     0.244 HD
ENDBRANCH  73  76
ENDBRANCH  54  72
ENDBRANCH  51  54
ENDBRANCH  47  50
ENDBRANCH  44  47
ENDBRANCH  41  44
ENDBRANCH   1  41
TORSDOF 20
ENDMDL
MODEL 9
REMARK VINA RESULT:      -6.6      3.344     11.064
REMARK  20 active torsions:
REMARK  status: ('A' for Active; 'I' for Inactive)
REMARK    1  A    between atoms: C3_3  and  C7_7 
REMARK    2  A    between atoms: C4_4  and  C27_27 
REMARK    3  A    between atoms: C7_7  and  C8_8 
REMARK    4  A    between atoms: C8_8  and  C9_9 
REMARK    5  A    between atoms: C9_9  and  C10_10 
REMARK    6  A    between atoms: C10_10  and  C11_11 
REMARK    7  A    between atoms: C11_11  and  C12_12 
REMARK    8  A    between atoms: C12_12  and  C13_13 
REMARK    9  A    between atoms: C13_13  and  C14_14 
REMARK   10  A    between atoms: C14_14  and  C15_15 
REMARK   11  A    between atoms: C15_15  and  C16_16 
REMARK       I    between atoms: C16_16  and  N17_17 
REMARK   12  A    between atoms: N17_17  and  C18_18 
REMARK   13  A    between atoms: C18_18  and  C20_20 
REMARK   14  A    between atoms: C18_18  and  C21_21 
REMARK   15  A    between atoms: C20_20  and  C23_23 
REMARK       I    between atoms: C21_21  and  N22_22 
REMARK   16  A    between atoms: N22_22  and  O32_32 
REMARK   17  A    between atoms: C23_23  and  C24_24 
REMARK   18  A    between atoms: C24_24  and  C25_25 
REMARK   19  A    between atoms: C25_25  and  N26_26 
REMARK   20  A    between atoms: C27_27  and  N28_28 
REMARK       I    between atoms: N28_28  and  C29_29 
REMARK       I    between atoms: C29_29  and  N30_30 
ROOT
ATOM      1  C12 FA4 d          29.733   6.233  14.583  0.00  0.00    -0.065 C 
ATOM      2  H15 FA4 d          30.015   6.904  13.758  0.00  0.00     0.033 H 
ATOM      3  H16 FA4 d          29.751   6.790  15.531  0.00  0.00     0.033 H 
ENDROOT
BRANCH   1   4
ATOM      4  C11 FA4 d          30.763   5.102  14.664  0.00  0.00    -0.065 C 
ATOM      5  H13 FA4 d          30.235   4.156  14.856  0.00  0.00     0.033 H 
ATOM      6  H14 FA4 d          31.293   5.037  13.703  0.00  0.00     0.033 H 
BRANCH   4   7
ATOM      7  C10 FA4 d          31.788   5.329  15.778  0.00  0.00    -0.065 C 
ATOM      8  H11 FA4 d          31.866   4.407  16.374  0.00  0.00     0.033 H 
ATOM      9  H12 FA4 d          32.761   5.551  15.317  0.00  0.00     0.033 H 
BRANCH   7  10
ATOM     10  C9  FA4 d          31.418   6.484  16.714  0.00  0.00    -0.065 C 
ATOM     11  H9  FA4 d          30.506   6.966  16.334  0.00  0.00     0.033 H 
ATOM     12  H10 FA4 d          31.227   6.076  17.718  0.00  0.00     0.033 H 
BRANCH  10  13
ATOM     13  C8  FA4 d          32.522   7.537  16.818  0.00  0.00    -0.061 C 
ATOM     14  H7  FA4 d          32.488   7.985  17.821  0.00  0.00     0.033 H 
ATOM     15  H8  FA4 d          33.495   7.045  16.668  0.00  0.00     0.033 H 
BRANCH  13  16
ATOM     16  C7  FA4 d          32.368   8.655  15.772  0.00  0.00    -0.040 C 
ATOM     17  H5  FA4 d          32.120   8.200  14.802  0.00  0.00     0.040 H 
ATOM     18  H6  FA4 d          31.550   9.321  16.084  0.00  0.00     0.040 H 
BRANCH  16  19
ATOM     19  C3  FA4 d          33.626   9.471  15.618  0.00  0.00    -0.050 A 
ATOM     20  C2  FA4 d          34.646   9.028  14.712  0.00  0.00    -0.076 A 
ATOM     21  C1  FA4 d          35.849   9.779  14.546  0.00  0.00    -0.082 A 
ATOM     22  H2  FA4 d          34.503   8.114  14.149  0.00  0.00     0.084 H 
ATOM     23  C6  FA4 d          36.063  10.987  15.284  0.00  0.00    -0.082 A 
ATOM     24  H1  FA4 d          36.607   9.431  13.853  0.00  0.00     0.083 H 
ATOM     25  C5  FA4 d          35.056  11.454  16.198  0.00  0.00    -0.075 A 
ATOM     26  H4  FA4 d          36.982  11.548  15.154  0.00  0.00     0.083 H 
ATOM     27  C4  FA4 d          33.837  10.710  16.377  0.00  0.00    -0.034 A 
ATOM     28  H3  FA4 d          35.215  12.371  16.754  0.00  0.00     0.084 H 
BRANCH  27  29
ATOM     29  C27 FA4 d          32.828  11.282  17.358  0.00  0.00     0.033 C 
ATOM     30  H37 FA4 d          33.364  11.686  18.229  0.00  0.00     0.072 H 
ATOM     31  H38 FA4 d          32.151  10.479  17.685  0.00  0.00     0.072 H 
BRANCH  29  32
ATOM     32  N28 FA4 d          32.037  12.354  16.741  0.00  0.00    -0.223 N 
ATOM     33  C29 FA4 d          30.660  12.293  16.729  0.00  0.00     0.665 C 
ATOM     34  N30 FA4 d          29.955  13.419  16.715  0.00  0.00    -0.235 N 
ATOM     35  N31 FA4 d          30.015  11.117  16.737  0.00  0.00    -0.235 N 
ATOM     36  H40 FA4 d          28.926  13.383  16.706  0.00  0.00     0.174 HD
ATOM     37  H41 FA4 d          30.439  14.328  16.712  0.00  0.00     0.174 HD
ATOM     38  H42 FA4 d          30.551  10.237  16.748  0.00  0.00     0.174 HD
ATOM     39  H43 FA4 d          28.986  11.093  16.731  0.00  0.00     0.174 HD
ATOM     40  H39 FA4 d          32.516  13.159  16.313  0.00  0.00     0.178 HD
ENDBRANCH  29  32
ENDBRANCH  27  29
ENDBRANCH  16  19
ENDBRANCH  13  16
ENDBRANCH  10  13
ENDBRANCH   7  10
ENDBRANCH   4   7
ENDBRANCH   1   4
BRANCH   1  41
ATOM     41  C13 FA4 d          28.313   5.735  14.340  0.00  0.00    -0.065 C 
ATOM     42  H17 FA4 d          28.225   5.421  13.290  0.00  0.00     0.033 H 
ATOM     43  H18 FA4 d          27.613   6.560  14.535  0.00  0.00     0.033 H 
BRANCH  41  44
ATOM     44  C14 FA4 d          27.939   4.551  15.239  0.00  0.00    -0.057 C 
ATOM     45  H19 FA4 d          26.938   4.736  15.656  0.00  0.00     0.033 H 
ATOM     46  H20 FA4 d          28.672   4.490  16.056  0.00  0.00     0.033 H 
BRANCH  44  47
ATOM     47  C15 FA4 d          27.917   3.207  14.509  0.00  0.00     0.009 C 
ATOM     48  H21 FA4 d          28.517   2.480  15.077  0.00  0.00     0.047 H 
ATOM     49  H22 FA4 d          28.349   3.335  13.505  0.00  0.00     0.047 H 
BRANCH  47  50
ATOM     50  C16 FA4 d          26.481   2.680  14.376  0.00  0.00     0.218 C 
ATOM     51  N17 FA4 d          25.708   3.540  13.677  0.00  0.00    -0.348 N 
ATOM     52  H23 FA4 d          26.109   4.391  13.339  0.00  0.00     0.163 HD
ATOM     53  O19 FA4 d          26.137   1.600  14.863  0.00  0.00    -0.274 OA
BRANCH  51  54
ATOM     54  C18 FA4 d          24.311   3.261  13.404  0.00  0.00     0.091 C 
ATOM     55  H24 FA4 d          24.234   2.501  12.613  0.00  0.00     0.087 H 
BRANCH  54  56
ATOM     56  C20 FA4 d          23.664   4.562  12.923  0.00  0.00    -0.038 C 
ATOM     57  H25 FA4 d          24.210   4.912  12.034  0.00  0.00     0.036 H 
ATOM     58  H26 FA4 d          23.750   5.310  13.725  0.00  0.00     0.036 H 
BRANCH  56  59
ATOM     59  C23 FA4 d          22.191   4.416  12.556  0.00  0.00    -0.061 C 
ATOM     60  H28 FA4 d          21.933   3.347  12.537  0.00  0.00     0.033 H 
ATOM     61  H29 FA4 d          22.028   4.851  11.558  0.00  0.00     0.033 H 
BRANCH  59  62
ATOM     62  C24 FA4 d          21.283   5.126  13.559  0.00  0.00    -0.043 C 
ATOM     63  H30 FA4 d          21.494   4.735  14.565  0.00  0.00     0.035 H 
ATOM     64  H31 FA4 d          20.235   4.917  13.297  0.00  0.00     0.035 H 
BRANCH  62  65
ATOM     65  C25 FA4 d          21.494   6.641  13.568  0.00  0.00     0.080 C 
ATOM     66  H32 FA4 d          22.496   6.855  13.966  0.00  0.00     0.075 H 
ATOM     67  H33 FA4 d          20.734   7.099  14.219  0.00  0.00     0.075 H 
BRANCH  65  68
ATOM     68  N26 FA4 d          21.385   7.228  12.238  0.00  0.00    -0.079 N 
ATOM     69  H34 FA4 d          20.414   7.279  11.972  0.00  0.00     0.274 HD
ATOM     70  H35 FA4 d          21.885   6.655  11.576  0.00  0.00     0.274 HD
ATOM     71  H36 FA4 d          21.780   8.155  12.246  0.00  0.00     0.274 HD
ENDBRANCH  65  68
ENDBRANCH  62  65
ENDBRANCH  59  62
ENDBRANCH  56  59
ENDBRANCH  54  56
BRANCH  54  72
ATOM     72  C21 FA4 d          23.622   2.730  14.674  0.00  0.00     0.263 C 
ATOM     73  N22 FA4 d          23.843   3.477  15.764  0.00  0.00    -0.236 N 
ATOM     74  H27 FA4 d          24.413   4.296  15.708  0.00  0.00     0.197 HD
ATOM     75  O33 FA4 d          22.932   1.715  14.650  0.00  0.00    -0.269 OA
BRANCH  73  76
ATOM     76  O32 FA4 d          23.268   3.102  16.982  0.00  0.00    -0.287 OA
ATOM     77  H44 FA4 d          22.592   2.454  16.826  0.00  0.00     0.244 HD
ENDBRANCH  73  76
ENDBRANCH  54  72
ENDBRANCH  51  54
ENDBRANCH  47  50
ENDBRANCH  44  47
ENDBRANCH  41  44
ENDBRANCH   1  41
TORSDOF 20
ENDMDL
MODEL 10
REMARK VINA RESULT:      -6.4      3.446     11.954
REMARK  20 active torsions:
REMARK  status: ('A' for Active; 'I' for Inactive)
REMARK    1  A    between atoms: C3_3  and  C7_7 
REMARK    2  A    between atoms: C4_4  and  C27_27 
REMARK    3  A    between atoms: C7_7  and  C8_8 
REMARK    4  A    between atoms: C8_8  and  C9_9 
REMARK    5  A    between atoms: C9_9  and  C10_10 
REMARK    6  A    between atoms: C10_10  and  C11_11 
REMARK    7  A    between atoms: C11_11  and  C12_12 
REMARK    8  A    between atoms: C12_12  and  C13_13 
REMARK    9  A    between atoms: C13_13  and  C14_14 
REMARK   10  A    between atoms: C14_14  and  C15_15 
REMARK   11  A    between atoms: C15_15  and  C16_16 
REMARK       I    between atoms: C16_16  and  N17_17 
REMARK   12  A    between atoms: N17_17  and  C18_18 
REMARK   13  A    between atoms: C18_18  and  C20_20 
REMARK   14  A    between atoms: C18_18  and  C21_21 
REMARK   15  A    between atoms: C20_20  and  C23_23 
REMARK       I    between atoms: C21_21  and  N22_22 
REMARK   16  A    between atoms: N22_22  and  O32_32 
REMARK   17  A    between atoms: C23_23  and  C24_24 
REMARK   18  A    between atoms: C24_24  and  C25_25 
REMARK   19  A    between atoms: C25_25  and  N26_26 
REMARK   20  A    between atoms: C27_27  and  N28_28 
REMARK       I    between atoms: N28_28  and  C29_29 
REMARK       I    between atoms: C29_29  and  N30_30 
ROOT
ATOM      1  C12 FA4 d          30.544   4.221  15.595  0.00  0.00    -0.065 C 
ATOM      2  H15 FA4 d          31.044   4.516  16.529  0.00  0.00     0.033 H 
ATOM      3  H16 FA4 d          31.071   3.364  15.152  0.00  0.00     0.033 H 
ENDROOT
BRANCH   1   4
ATOM      4  C11 FA4 d          30.615   5.395  14.614  0.00  0.00    -0.065 C 
ATOM      5  H13 FA4 d          30.877   5.008  13.617  0.00  0.00     0.033 H 
ATOM      6  H14 FA4 d          29.629   5.880  14.571  0.00  0.00     0.033 H 
BRANCH   4   7
ATOM      7  C10 FA4 d          31.659   6.436  15.028  0.00  0.00    -0.065 C 
ATOM      8  H11 FA4 d          31.913   6.273  16.086  0.00  0.00     0.033 H 
ATOM      9  H12 FA4 d          32.557   6.295  14.409  0.00  0.00     0.033 H 
BRANCH   7  10
ATOM     10  C9  FA4 d          31.173   7.879  14.860  0.00  0.00    -0.065 C 
ATOM     11  H9  FA4 d          30.426   7.907  14.053  0.00  0.00     0.033 H 
ATOM     12  H10 FA4 d          30.708   8.205  15.802  0.00  0.00     0.033 H 
BRANCH  10  13
ATOM     13  C8  FA4 d          32.305   8.847  14.514  0.00  0.00    -0.061 C 
ATOM     14  H7  FA4 d          32.585   8.700  13.460  0.00  0.00     0.033 H 
ATOM     15  H8  FA4 d          31.945   9.877  14.657  0.00  0.00     0.033 H 
BRANCH  13  16
ATOM     16  C7  FA4 d          33.552   8.633  15.389  0.00  0.00    -0.040 C 
ATOM     17  H5  FA4 d          33.246   8.143  16.326  0.00  0.00     0.040 H 
ATOM     18  H6  FA4 d          34.256   7.983  14.849  0.00  0.00     0.040 H 
BRANCH  16  19
ATOM     19  C3  FA4 d          34.245   9.929  15.724  0.00  0.00    -0.050 A 
ATOM     20  C2  FA4 d          33.574  10.895  16.544  0.00  0.00    -0.076 A 
ATOM     21  C1  FA4 d          34.204  12.132  16.877  0.00  0.00    -0.082 A 
ATOM     22  H2  FA4 d          32.577  10.685  16.915  0.00  0.00     0.084 H 
ATOM     23  C6  FA4 d          35.518  12.435  16.395  0.00  0.00    -0.082 A 
ATOM     24  H1  FA4 d          33.683  12.849  17.502  0.00  0.00     0.083 H 
ATOM     25  C5  FA4 d          36.213  11.483  15.571  0.00  0.00    -0.075 A 
ATOM     26  H4  FA4 d          35.986  13.379  16.649  0.00  0.00     0.083 H 
ATOM     27  C4  FA4 d          35.593  10.231  15.227  0.00  0.00    -0.034 A 
ATOM     28  H3  FA4 d          37.210  11.709  15.209  0.00  0.00     0.084 H 
BRANCH  27  29
ATOM     29  C27 FA4 d          36.404   9.285  14.358  0.00  0.00     0.033 C 
ATOM     30  H37 FA4 d          35.990   8.270  14.448  0.00  0.00     0.072 H 
ATOM     31  H38 FA4 d          37.448   9.286  14.705  0.00  0.00     0.072 H 
BRANCH  29  32
ATOM     32  N28 FA4 d          36.367   9.695  12.949  0.00  0.00    -0.223 N 
ATOM     33  C29 FA4 d          35.474   9.117  12.072  0.00  0.00     0.665 C 
ATOM     34  N30 FA4 d          35.038   9.812  11.027  0.00  0.00    -0.235 N 
ATOM     35  N31 FA4 d          35.032   7.864  12.255  0.00  0.00    -0.235 N 
ATOM     36  H40 FA4 d          34.371   9.388  10.367  0.00  0.00     0.174 HD
ATOM     37  H41 FA4 d          35.368  10.776  10.878  0.00  0.00     0.174 HD
ATOM     38  H42 FA4 d          35.362   7.315  13.061  0.00  0.00     0.174 HD
ATOM     39  H43 FA4 d          34.362   7.451  11.591  0.00  0.00     0.174 HD
ATOM     40  H39 FA4 d          37.014  10.423  12.612  0.00  0.00     0.178 HD
ENDBRANCH  29  32
ENDBRANCH  27  29
ENDBRANCH  16  19
ENDBRANCH  13  16
ENDBRANCH  10  13
ENDBRANCH   7  10
ENDBRANCH   4   7
ENDBRANCH   1   4
BRANCH   1  41
ATOM     41  C13 FA4 d          29.117   3.798  15.921  0.00  0.00    -0.065 C 
ATOM     42  H17 FA4 d          28.744   4.422  16.746  0.00  0.00     0.033 H 
ATOM     43  H18 FA4 d          29.126   2.743  16.235  0.00  0.00     0.033 H 
BRANCH  41  44
ATOM     44  C14 FA4 d          28.167   3.946  14.727  0.00  0.00    -0.057 C 
ATOM     45  H19 FA4 d          28.765   3.921  13.804  0.00  0.00     0.033 H 
ATOM     46  H20 FA4 d          27.658   4.918  14.807  0.00  0.00     0.033 H 
BRANCH  44  47
ATOM     47  C15 FA4 d          27.105   2.849  14.645  0.00  0.00     0.009 C 
ATOM     48  H21 FA4 d          26.674   2.689  15.644  0.00  0.00     0.047 H 
ATOM     49  H22 FA4 d          27.575   1.918  14.294  0.00  0.00     0.047 H 
BRANCH  47  50
ATOM     50  C16 FA4 d          25.985   3.244  13.672  0.00  0.00     0.218 C 
ATOM     51  N17 FA4 d          24.788   2.775  14.088  0.00  0.00    -0.348 N 
ATOM     52  H23 FA4 d          24.742   2.240  14.932  0.00  0.00     0.163 HD
ATOM     53  O19 FA4 d          26.209   3.910  12.657  0.00  0.00    -0.274 OA
BRANCH  51  54
ATOM     54  C18 FA4 d          23.569   3.027  13.344  0.00  0.00     0.091 C 
ATOM     55  H24 FA4 d          23.814   3.227  12.291  0.00  0.00     0.087 H 
BRANCH  54  56
ATOM     56  C20 FA4 d          22.902   4.262  13.954  0.00  0.00    -0.038 C 
ATOM     57  H25 FA4 d          23.432   4.521  14.882  0.00  0.00     0.036 H 
ATOM     58  H26 FA4 d          21.855   4.013  14.186  0.00  0.00     0.036 H 
BRANCH  56  59
ATOM     59  C23 FA4 d          22.914   5.482  13.038  0.00  0.00    -0.061 C 
ATOM     60  H28 FA4 d          23.034   5.144  11.998  0.00  0.00     0.033 H 
ATOM     61  H29 FA4 d          23.761   6.126  13.315  0.00  0.00     0.033 H 
BRANCH  59  62
ATOM     62  C24 FA4 d          21.620   6.289  13.150  0.00  0.00    -0.043 C 
ATOM     63  H30 FA4 d          20.807   5.613  13.453  0.00  0.00     0.035 H 
ATOM     64  H31 FA4 d          21.389   6.723  12.166  0.00  0.00     0.035 H 
BRANCH  62  65
ATOM     65  C25 FA4 d          21.725   7.421  14.173  0.00  0.00     0.080 C 
ATOM     66  H32 FA4 d          22.380   8.205  13.765  0.00  0.00     0.075 H 
ATOM     67  H33 FA4 d          22.165   7.020  15.099  0.00  0.00     0.075 H 
BRANCH  65  68
ATOM     68  N26 FA4 d          20.430   8.011  14.489  0.00  0.00    -0.079 N 
ATOM     69  H34 FA4 d          20.390   8.948  14.122  0.00  0.00     0.274 HD
ATOM     70  H35 FA4 d          20.307   8.036  15.489  0.00  0.00     0.274 HD
ATOM     71  H36 FA4 d          19.698   7.456  14.074  0.00  0.00     0.274 HD
ENDBRANCH  65  68
ENDBRANCH  62  65
ENDBRANCH  59  62
ENDBRANCH  56  59
ENDBRANCH  54  56
BRANCH  54  72
ATOM     72  C21 FA4 d          22.644   1.799  13.416  0.00  0.00     0.263 C 
ATOM     73  N22 FA4 d          21.553   1.895  12.642  0.00  0.00    -0.236 N 
ATOM     74  H27 FA4 d          21.399   2.713  12.087  0.00  0.00     0.197 HD
ATOM     75  O33 FA4 d          22.916   0.833  14.122  0.00  0.00    -0.269 OA
BRANCH  73  76
ATOM     76  O32 FA4 d          20.634   0.842  12.615  0.00  0.00    -0.287 OA
ATOM     77  H44 FA4 d          20.676   0.409  11.771  0.00  0.00     0.244 HD
ENDBRANCH  73  76
ENDBRANCH  54  72
ENDBRANCH  51  54
ENDBRANCH  47  50
ENDBRANCH  44  47
ENDBRANCH  41  44
ENDBRANCH   1  41
TORSDOF 20
ENDMDL
