MODEL 1
REMARK VINA RESULT:     -10.9      0.000      0.000
REMARK  13 active torsions:
REMARK  status: ('A' for Active; 'I' for Inactive)
REMARK    1  A    between atoms: C_1  and  CA_4 
REMARK       I    between atoms: NAV_21  and  C_1 
REMARK    2  A    between atoms: CAH_9  and  CAL_13 
REMARK    3  A    between atoms: CAL_13  and  CAT_20 
REMARK    4  A    between atoms: CAL_13  and  CBZ_50 
REMARK    5  A    between atoms: CAL_13  and  CCA_51 
REMARK    6  A    between atoms: CAR_18  and  CAS_19 
REMARK    7  A    between atoms: CAZ_24  and  CAR_18 
REMARK    8  A    between atoms: CAX_22  and  NAV_21 
REMARK    9  A    between atoms: CAX_22  and  CAY_23 
REMARK       I    between atoms: CAY_23  and  NBK_35 
REMARK   10  A    between atoms: NBK_35  and  SBM_37 
REMARK   11  A    between atoms: SBM_37  and  CBN_38 
REMARK   12  A    between atoms: CBV_46  and  CBX_48 
REMARK   13  A    between atoms: CBV_46  and  CBY_49 
ROOT
ATOM      1  N   SU3 d         -15.082  -9.724  13.622  0.00  0.00    -0.334 N 
ATOM      2  CA  SU3 d         -13.694  -9.753  14.141  0.00  0.00     0.094 C 
ATOM      3  CB  SU3 d         -12.959 -10.636  13.151  0.00  0.00    -0.011 C 
ATOM      4  CG  SU3 d         -14.044 -11.637  12.714  0.00  0.00     0.067 C 
ATOM      5  CAF SU3 d         -16.038  -8.959  14.145  0.00  0.00     0.244 C 
ATOM      6  OAG SU3 d         -15.751  -8.173  15.057  0.00  0.00    -0.271 OA
ATOM      7  CAH SU3 d         -17.427  -8.930  13.522  0.00  0.00     0.098 C 
ATOM      8  NAI SU3 d         -18.366  -9.167  14.606  0.00  0.00    -0.323 N 
ATOM      9  CAJ SU3 d         -18.954 -10.336  14.757  0.00  0.00     0.361 C 
ATOM     10  OAK SU3 d         -19.769 -10.398  15.832  0.00  0.00    -0.303 OA
ATOM     11  OAM SU3 d         -18.822 -11.289  13.990  0.00  0.00    -0.238 OA
ATOM     12  CAO SU3 d         -13.552 -13.625  13.930  0.00  0.00     0.371 C 
ATOM     13  OAP SU3 d         -12.636 -13.876  13.143  0.00  0.00    -0.238 OA
ATOM     14  NAQ SU3 d         -13.771 -14.387  14.955  0.00  0.00    -0.278 N 
ATOM     15  CBB SU3 d         -13.105 -15.640  15.329  0.00  0.00     0.000 A 
ATOM     16  CBC SU3 d         -13.731 -16.040  16.632  0.00  0.00    -0.008 A 
ATOM     17  CBD SU3 d         -14.695 -15.100  16.988  0.00  0.00    -0.002 A 
ATOM     18  CBE SU3 d         -14.803 -14.023  15.934  0.00  0.00     0.001 A 
ATOM     19  CBF SU3 d         -13.471 -17.126  17.455  0.00  0.00    -0.071 A 
ATOM     20  CBG SU3 d         -14.183 -17.257  18.630  0.00  0.00    -0.082 A 
ATOM     21  CBH SU3 d         -15.153 -16.318  18.976  0.00  0.00    -0.076 A 
ATOM     22  CBI SU3 d         -15.432 -15.212  18.161  0.00  0.00    -0.046 A 
ATOM     23  CBJ SU3 d         -16.464 -14.139  18.580  0.00  0.00    -0.040 C 
ATOM     24  CBS SU3 d         -17.885 -14.557  18.836  0.00  0.00    -0.061 C 
ATOM     25  CBT SU3 d         -18.698 -13.261  18.909  0.00  0.00    -0.064 C 
ATOM     26  CBU SU3 d         -19.027 -12.721  17.511  0.00  0.00    -0.057 C 
ATOM     27  CBV SU3 d         -20.403 -12.068  17.448  0.00  0.00    -0.025 C 
ATOM     28  CBW SU3 d         -20.565 -11.570  16.042  0.00  0.00     0.037 C 
ATOM     29  CD1 SU3 d         -15.266 -10.742  12.551  0.00  0.00     0.023 C 
ATOM     30  OD2 SU3 d         -14.323 -12.530  13.805  0.00  0.00    -0.296 OA
ATOM     31  H1  SU3 d         -13.639 -10.171  15.157  0.00  0.00     0.088 H 
ATOM     32  H2  SU3 d         -12.115 -11.152  13.632  0.00  0.00     0.040 H 
ATOM     33  H3  SU3 d         -12.592 -10.051  12.295  0.00  0.00     0.040 H 
ATOM     34  H4  SU3 d         -13.778 -12.181  11.796  0.00  0.00     0.086 H 
ATOM     35  H5  SU3 d         -17.503  -9.754  12.797  0.00  0.00     0.088 H 
ATOM     36  H6  SU3 d         -18.570  -8.429  15.249  0.00  0.00     0.165 HD
ATOM     37  H19 SU3 d         -12.325 -16.164  14.780  0.00  0.00     0.113 H 
ATOM     38  H20 SU3 d         -15.486 -13.174  15.906  0.00  0.00     0.113 H 
ATOM     39  H21 SU3 d         -12.721 -17.859  17.180  0.00  0.00     0.084 H 
ATOM     40  H22 SU3 d         -13.987 -18.096  19.287  0.00  0.00     0.083 H 
ATOM     41  H23 SU3 d         -15.706 -16.446  19.900  0.00  0.00     0.084 H 
ATOM     42  H24 SU3 d         -16.488 -13.385  17.780  0.00  0.00     0.040 H 
ATOM     43  H25 SU3 d         -16.092 -13.679  19.507  0.00  0.00     0.040 H 
ATOM     44  H32 SU3 d         -17.957 -15.107  19.785  0.00  0.00     0.033 H 
ATOM     45  H33 SU3 d         -18.250 -15.191  18.015  0.00  0.00     0.033 H 
ATOM     46  H34 SU3 d         -18.116 -12.504  19.455  0.00  0.00     0.033 H 
ATOM     47  H35 SU3 d         -19.638 -13.459  19.445  0.00  0.00     0.033 H 
ATOM     48  H36 SU3 d         -18.999 -13.557  16.794  0.00  0.00     0.034 H 
ATOM     49  H37 SU3 d         -18.269 -11.975  17.233  0.00  0.00     0.034 H 
ATOM     50  H38 SU3 d         -20.247 -12.355  15.341  0.00  0.00     0.076 H 
ATOM     51  H39 SU3 d         -21.623 -11.325  15.864  0.00  0.00     0.076 H 
ATOM     52  H52 SU3 d         -15.281 -10.272  11.556  0.00  0.00     0.068 H 
ATOM     53  H53 SU3 d         -16.195 -11.311  12.701  0.00  0.00     0.068 H 
ENDROOT
BRANCH   2  54
ATOM     54  C   SU3 d         -13.184  -8.302  14.130  0.00  0.00     0.241 C 
ATOM     55  O   SU3 d         -13.118  -7.631  13.093  0.00  0.00    -0.271 OA
ATOM     56  NAV SU3 d         -12.730  -7.858  15.296  0.00  0.00    -0.341 N 
ATOM     57  H15 SU3 d         -12.578  -8.518  16.032  0.00  0.00     0.163 HD
BRANCH  56  58
ATOM     58  CAX SU3 d         -12.444  -6.456  15.551  0.00  0.00     0.119 A 
ATOM     59  CAZ SU3 d         -13.738  -5.583  15.582  0.00  0.00    -0.018 A 
ATOM     60  CBA SU3 d         -13.017  -5.905  16.867  0.00  0.00    -0.027 A 
ATOM     61  H16 SU3 d         -14.715  -6.030  15.348  0.00  0.00     0.044 H 
ATOM     62  H17 SU3 d         -12.480  -5.110  17.405  0.00  0.00     0.038 H 
ATOM     63  H18 SU3 d         -13.475  -6.593  17.593  0.00  0.00     0.038 H 
BRANCH  58  64
ATOM     64  CAY SU3 d         -11.096  -5.890  15.133  0.00  0.00     0.259 C 
ATOM     65  NBK SU3 d         -10.490  -6.499  14.151  0.00  0.00    -0.252 N 
ATOM     66  H26 SU3 d         -10.876  -7.309  13.710  0.00  0.00     0.181 HD
ATOM     67  OBL SU3 d         -10.648  -4.929  15.754  0.00  0.00    -0.270 OA
BRANCH  65  68
ATOM     68  SBM SU3 d          -9.100  -5.872  13.701  0.00  0.00     0.237 S 
ATOM     69  OBO SU3 d          -9.290  -4.708  12.805  0.00  0.00    -0.205 OA
ATOM     70  OBP SU3 d          -8.204  -5.586  14.823  0.00  0.00    -0.205 OA
BRANCH  68  71
ATOM     71  CBN SU3 d          -8.346  -7.159  12.712  0.00  0.00     0.063 A 
ATOM     72  CBQ SU3 d          -6.941  -6.835  12.191  0.00  0.00    -0.046 A 
ATOM     73  CBR SU3 d          -7.138  -7.788  13.368  0.00  0.00    -0.046 A 
ATOM     74  H28 SU3 d          -6.509  -5.837  12.356  0.00  0.00     0.035 H 
ATOM     75  H29 SU3 d          -6.610  -7.222  11.216  0.00  0.00     0.035 H 
ATOM     76  H30 SU3 d          -6.943  -8.863  13.241  0.00  0.00     0.035 H 
ATOM     77  H31 SU3 d          -6.841  -7.478  14.381  0.00  0.00     0.035 H 
ATOM     78  H27 SU3 d          -9.078  -7.733  12.124  0.00  0.00     0.066 H 
ENDBRANCH  68  71
ENDBRANCH  65  68
ENDBRANCH  58  64
BRANCH  59  79
ATOM     79  CAR SU3 d         -13.683  -4.136  15.106  0.00  0.00    -0.062 C 
ATOM     80  H7  SU3 d         -13.175  -3.528  15.868  0.00  0.00     0.033 H 
ATOM     81  H8  SU3 d         -13.118  -4.090  14.163  0.00  0.00     0.033 H 
BRANCH  79  82
ATOM     82  CAS SU3 d         -15.083  -3.574  14.874  0.00  0.00    -0.076 C 
ATOM     83  H9  SU3 d         -15.691  -3.720  15.779  0.00  0.00     0.027 H 
ATOM     84  H10 SU3 d         -15.552  -4.097  14.028  0.00  0.00     0.027 H 
ATOM     85  H11 SU3 d         -15.014  -2.500  14.647  0.00  0.00     0.027 H 
ENDBRANCH  79  82
ENDBRANCH  59  79
ENDBRANCH  56  58
ENDBRANCH   2  54
BRANCH   7  86
ATOM     86  CAL SU3 d         -17.739  -7.611  12.766  0.00  0.00    -0.022 C 
BRANCH  86  87
ATOM     87  CAT SU3 d         -18.264  -6.570  13.776  0.00  0.00    -0.067 C 
ATOM     88  H12 SU3 d         -18.387  -7.045  14.761  0.00  0.00     0.028 H 
ATOM     89  H13 SU3 d         -19.233  -6.181  13.431  0.00  0.00     0.028 H 
ATOM     90  H14 SU3 d         -17.544  -5.741  13.855  0.00  0.00     0.028 H 
ENDBRANCH  86  87
BRANCH  86  91
ATOM     91  CBZ SU3 d         -16.529  -7.021  12.053  0.00  0.00    -0.067 C 
ATOM     92  H46 SU3 d         -16.079  -6.238  12.681  0.00  0.00     0.028 H 
ATOM     93  H47 SU3 d         -16.845  -6.586  11.093  0.00  0.00     0.028 H 
ATOM     94  H48 SU3 d         -15.788  -7.814  11.870  0.00  0.00     0.028 H 
ENDBRANCH  86  91
BRANCH  86  95
ATOM     95  CCA SU3 d         -18.855  -7.882  11.742  0.00  0.00    -0.067 C 
ATOM     96  H49 SU3 d         -19.825  -7.589  12.172  0.00  0.00     0.028 H 
ATOM     97  H50 SU3 d         -18.872  -8.954  11.493  0.00  0.00     0.028 H 
ATOM     98  H51 SU3 d         -18.666  -7.298  10.830  0.00  0.00     0.028 H 
ENDBRANCH  86  95
ENDBRANCH   7  86
BRANCH  27  99
ATOM     99  CBX SU3 d         -21.517 -13.101  17.674  0.00  0.00    -0.067 C 
ATOM    100  H40 SU3 d         -21.393 -13.936  16.968  0.00  0.00     0.028 H 
ATOM    101  H41 SU3 d         -22.496 -12.626  17.512  0.00  0.00     0.028 H 
ATOM    102  H42 SU3 d         -21.461 -13.482  18.705  0.00  0.00     0.028 H 
ENDBRANCH  27  99
BRANCH  27 103
ATOM    103  CBY SU3 d         -20.518 -10.917  18.467  0.00  0.00    -0.067 C 
ATOM    104  H43 SU3 d         -21.185 -10.138  18.068  0.00  0.00     0.028 H 
ATOM    105  H44 SU3 d         -19.522 -10.487  18.649  0.00  0.00     0.028 H 
ATOM    106  H45 SU3 d         -20.929 -11.303  19.412  0.00  0.00     0.028 H 
ENDBRANCH  27 103
TORSDOF 13
ENDMDL
