MODEL 1
REMARK VINA RESULT:     -16.5      0.000      0.000
REMARK  2 active torsions:
REMARK  status: ('A' for Active; 'I' for Inactive)
REMARK       I    between atoms: N4_8  and  C11_17 
REMARK    1  A    between atoms: C16_22  and  N4_8 
REMARK    2  A    between atoms: C11_17  and  C12_18 
ROOT
ATOM      1  C1  YKI d          13.532  14.315  26.363  0.00  0.00     0.004 A 
ATOM      2  N1  YKI d          13.248  14.584  27.701  0.00  0.00    -0.271 NA
ATOM      3  C2  YKI d          11.938  14.695  28.156  0.00  0.00     0.030 A 
ATOM      4  N2  YKI d           9.514  14.574  27.351  0.00  0.00    -0.337 N 
ATOM      5  C3  YKI d          12.505  14.136  25.405  0.00  0.00    -0.036 A 
ATOM      6  N3  YKI d           9.963  14.143  25.223  0.00  0.00    -0.228 NA
ATOM      7  C4  YKI d           8.981  14.343  26.139  0.00  0.00     0.140 A 
ATOM      8  C5  YKI d          11.176  14.248  25.846  0.00  0.00     0.088 A 
ATOM      9  C6  YKI d          10.880  14.526  27.240  0.00  0.00     0.080 A 
ATOM     10  C7  YKI d           7.554  14.336  25.899  0.00  0.00     0.022 A 
ATOM     11  C8  YKI d           4.700  14.510  25.497  0.00  0.00    -0.074 A 
ATOM     12  C9  YKI d           5.390  15.538  26.207  0.00  0.00    -0.081 A 
ATOM     13  C10 YKI d           6.808  15.434  26.398  0.00  0.00    -0.068 A 
ATOM     14  C16 YKI d           4.782  12.263  24.226  0.00  0.00     0.065 A 
ATOM     15  C17 YKI d           5.414  13.370  24.973  0.00  0.00    -0.019 A 
ATOM     16  C18 YKI d           6.802  13.238  25.145  0.00  0.00    -0.003 A 
ATOM     17  C19 YKI d           6.029  11.372  23.950  0.00  0.00    -0.020 A 
ATOM     18  C20 YKI d           7.218  11.976  24.495  0.00  0.00    -0.016 A 
ATOM     19  C21 YKI d           8.497  11.287  24.327  0.00  0.00    -0.072 A 
ATOM     20  C22 YKI d           8.567  10.036  23.629  0.00  0.00    -0.082 A 
ATOM     21  C23 YKI d           7.353   9.444  23.087  0.00  0.00    -0.082 A 
ATOM     22  C24 YKI d           6.094  10.111  23.246  0.00  0.00    -0.074 A 
ATOM     23  H1  YKI d          14.567  14.240  26.048  0.00  0.00     0.114 H 
ATOM     24  H2  YKI d          11.734  14.909  29.199  0.00  0.00     0.118 H 
ATOM     25  H3  YKI d           8.985  14.756  28.216  0.00  0.00     0.167 HD
ATOM     26  H4  YKI d          12.737  13.922  24.368  0.00  0.00     0.089 H 
ATOM     27  H7  YKI d           3.628  14.586  25.350  0.00  0.00     0.084 H 
ATOM     28  H8  YKI d           4.847  16.390  26.599  0.00  0.00     0.083 H 
ATOM     29  H9  YKI d           7.324  16.218  26.941  0.00  0.00     0.085 H 
ATOM     30  H12 YKI d           4.493  12.669  23.245  0.00  0.00     0.088 H 
ATOM     31  H13 YKI d           9.401  11.726  24.733  0.00  0.00     0.084 H 
ATOM     32  H14 YKI d           9.519   9.534  23.506  0.00  0.00     0.083 H 
ATOM     33  H15 YKI d           7.402   8.497  22.563  0.00  0.00     0.083 H 
ATOM     34  H16 YKI d           5.191   9.670  22.839  0.00  0.00     0.084 H 
ENDROOT
BRANCH  14  35
ATOM     35  N4  YKI d           3.777  11.856  24.626  0.00  0.00    -0.344 N 
ATOM     36  C11 YKI d           2.640  11.391  24.069  0.00  0.00     0.253 C 
ATOM     37  O13 YKI d           2.610  11.360  22.829  0.00  0.00    -0.268 OA
ATOM     38  H5  YKI d           3.741  11.847  25.626  0.00  0.00     0.163 HD
BRANCH  36  39
ATOM     39  C12 YKI d           1.438  10.952  24.868  0.00  0.00     0.047 A 
ATOM     40  C14 YKI d           1.479  10.099  26.030  0.00  0.00    -0.050 A 
ATOM     41  C15 YKI d           0.235   9.783  26.678  0.00  0.00     0.005 A 
ATOM     42  H10 YKI d           2.418   9.708  26.403  0.00  0.00     0.087 H 
ATOM     43  N5  YKI d          -0.967  10.284  26.185  0.00  0.00    -0.242 NA
ATOM     44  H11 YKI d           0.232   9.149  27.559  0.00  0.00     0.114 H 
ATOM     45  C26 YKI d          -1.020  11.114  25.060  0.00  0.00     0.138 A 
ATOM     46  N6  YKI d          -2.147  11.662  24.490  0.00  0.00    -0.350 N 
ATOM     47  C25 YKI d           0.123  11.462  24.374  0.00  0.00     0.027 A 
ATOM     48  C27 YKI d          -1.717  12.402  23.402  0.00  0.00    -0.020 A 
ATOM     49  H6  YKI d          -3.119  11.544  24.810  0.00  0.00     0.166 HD
ATOM     50  C28 YKI d          -0.314  12.309  23.295  0.00  0.00    -0.053 A 
ATOM     51  H17 YKI d          -2.363  12.968  22.733  0.00  0.00     0.111 H 
ATOM     52  H18 YKI d           0.315  12.785  22.545  0.00  0.00     0.087 H 
ENDBRANCH  36  39
ENDBRANCH  14  35
TORSDOF 2
ENDMDL
