MODEL 1
REMARK VINA RESULT:      -9.8      0.000      0.000
REMARK  16 active torsions:
REMARK  status: ('A' for Active; 'I' for Inactive)
REMARK    1  A    between atoms: S8_1  and  C35_3 
REMARK    2  A    between atoms: N11_14  and  S8_1 
REMARK    3  A    between atoms: O9_5  and  C10_4 
REMARK    4  A    between atoms: C5_6  and  O9_5 
REMARK    5  A    between atoms: C45_25  and  C13_13 
REMARK       I    between atoms: C13_13  and  N15_30 
REMARK    6  A    between atoms: C45_25  and  N11_14 
REMARK    7  A    between atoms: C15_16  and  C31_17 
REMARK    8  A    between atoms: N14_29  and  C15_16 
REMARK    9  A    between atoms: C12_26  and  C45_25 
REMARK   10  A    between atoms: C46_27  and  C12_26 
REMARK       I    between atoms: C46_27  and  N14_29 
REMARK   11  A    between atoms: C16_31  and  C17_32 
REMARK       I    between atoms: C17_32  and  N19_37 
REMARK   12  A    between atoms: N19_37  and  C20_38 
REMARK   13  A    between atoms: C20_38  and  C21_39 
REMARK   14  A    between atoms: C24_42  and  C27_43 
REMARK   15  A    between atoms: C27_43  and  N29_44 
REMARK   16  A    between atoms: C27_43  and  N28_45 
ROOT
ATOM      1  C31 MOL d          14.249 -19.635  23.470  0.00  0.00    -0.040 A 
ATOM      2  C32 MOL d          13.056 -20.176  23.658  0.00  0.00    -0.074 A 
ATOM      3  C33 MOL d          12.683 -20.436  24.913  0.00  0.00    -0.062 A 
ATOM      4  C44 MOL d          13.448 -20.223  26.008  0.00  0.00     0.044 A 
ATOM      5  C8  MOL d          14.686 -19.663  25.828  0.00  0.00    -0.062 A 
ATOM      6  C9  MOL d          15.007 -19.475  24.571  0.00  0.00    -0.074 A 
ATOM      7  C40 MOL d          12.988 -20.466  27.100  0.00  0.00     0.099 C 
ATOM      8  N63 MOL d          12.546 -20.557  28.107  0.00  0.00    -0.191 NA
ATOM      9  H10 MOL d          12.405 -20.402  22.822  0.00  0.00     0.084 H 
ATOM     10  H11 MOL d          11.692 -20.848  25.066  0.00  0.00     0.085 H 
ATOM     11  H12 MOL d          15.340 -19.399  26.650  0.00  0.00     0.085 H 
ATOM     12  H13 MOL d          16.025 -19.146  24.393  0.00  0.00     0.084 H 
ENDROOT
BRANCH   1  13
ATOM     13  C15 MOL d          14.699 -19.332  22.148  0.00  0.00     0.019 C 
ATOM     14  H8  MOL d          13.842 -19.449  21.467  0.00  0.00     0.071 H 
ATOM     15  H9  MOL d          15.478 -20.061  21.884  0.00  0.00     0.071 H 
BRANCH  13  16
ATOM     16  N14 MOL d          15.266 -17.961  21.934  0.00  0.00    -0.357 N 
ATOM     17  C46 MOL d          16.456 -17.593  21.486  0.00  0.00     0.220 C 
ATOM     18  O22 MOL d          17.322 -18.302  21.271  0.00  0.00    -0.274 OA
ATOM     19  H17 MOL d          14.651 -17.208  22.167  0.00  0.00     0.162 HD
BRANCH  17  20
ATOM     20  C12 MOL d          16.789 -16.062  21.384  0.00  0.00     0.037 C 
ATOM     21  H15 MOL d          17.374 -15.900  20.467  0.00  0.00     0.051 H 
ATOM     22  H16 MOL d          15.841 -15.509  21.318  0.00  0.00     0.051 H 
BRANCH  20  23
ATOM     23  C45 MOL d          17.628 -15.471  22.624  0.00  0.00     0.105 C 
ATOM     24  H14 MOL d          18.653 -15.870  22.596  0.00  0.00     0.089 H 
BRANCH  23  25
ATOM     25  C13 MOL d          17.636 -13.912  22.383  0.00  0.00     0.244 C 
ATOM     26  O14 MOL d          16.750 -13.308  22.882  0.00  0.00    -0.271 OA
ATOM     27  N15 MOL d          18.586 -13.447  21.674  0.00  0.00    -0.337 N 
ATOM     28  C16 MOL d          18.501 -12.137  21.192  0.00  0.00     0.091 C 
ATOM     29  C2  MOL d          19.641 -14.201  21.002  0.00  0.00    -0.001 C 
ATOM     30  C34 MOL d          19.624 -11.987  20.181  0.00  0.00    -0.036 C 
ATOM     31  H18 MOL d          18.514 -11.378  21.988  0.00  0.00     0.087 H 
ATOM     32  C1  MOL d          20.428 -13.245  20.208  0.00  0.00    -0.048 C 
ATOM     33  H19 MOL d          20.259 -11.130  20.451  0.00  0.00     0.036 H 
ATOM     34  H20 MOL d          19.205 -11.831  19.176  0.00  0.00     0.036 H 
ATOM     35  H21 MOL d          21.405 -13.066  20.680  0.00  0.00     0.035 H 
ATOM     36  H22 MOL d          20.578 -13.626  19.186  0.00  0.00     0.035 H 
ATOM     37  H23 MOL d          19.198 -14.962  20.343  0.00  0.00     0.064 H 
ATOM     38  H24 MOL d          20.286 -14.691  21.747  0.00  0.00     0.064 H 
BRANCH  28  39
ATOM     39  C17 MOL d          17.207 -12.099  20.293  0.00  0.00     0.240 C 
ATOM     40  O18 MOL d          16.961 -12.889  19.454  0.00  0.00    -0.271 OA
ATOM     41  N19 MOL d          16.413 -10.999  20.469  0.00  0.00    -0.355 N 
ATOM     42  H25 MOL d          16.708 -10.309  21.130  0.00  0.00     0.162 HD
BRANCH  41  43
ATOM     43  C20 MOL d          15.191 -10.773  19.770  0.00  0.00     0.019 C 
ATOM     44  H26 MOL d          15.031 -11.567  19.025  0.00  0.00     0.071 H 
ATOM     45  H27 MOL d          15.222  -9.797  19.264  0.00  0.00     0.071 H 
BRANCH  43  46
ATOM     46  C21 MOL d          14.093 -10.791  20.781  0.00  0.00    -0.040 A 
ATOM     47  C26 MOL d          13.508  -9.668  21.283  0.00  0.00    -0.074 A 
ATOM     48  C25 MOL d          12.565  -9.666  22.172  0.00  0.00    -0.069 A 
ATOM     49  H28 MOL d          13.855  -8.710  20.914  0.00  0.00     0.084 H 
ATOM     50  C24 MOL d          12.076 -10.763  22.714  0.00  0.00     0.007 A 
ATOM     51  H29 MOL d          12.156  -8.712  22.485  0.00  0.00     0.085 H 
ATOM     52  C23 MOL d          12.649 -11.899  22.298  0.00  0.00    -0.069 A 
ATOM     53  C22 MOL d          13.611 -11.869  21.366  0.00  0.00    -0.074 A 
ATOM     54  H34 MOL d          12.334 -12.847  22.718  0.00  0.00     0.085 H 
ATOM     55  H35 MOL d          14.032 -12.821  21.064  0.00  0.00     0.084 H 
BRANCH  50  56
ATOM     56  C27 MOL d          11.032 -10.789  23.691  0.00  0.00     0.102 C 
BRANCH  56  57
ATOM     57  N29 MOL d          10.776  -9.830  24.321  0.00  0.00    -0.385 N 
ATOM     58  H30 MOL d          10.022  -9.861  25.022  0.00  0.00     0.157 HD
ATOM     59  H31 MOL d          11.305  -8.959  24.173  0.00  0.00     0.157 HD
ENDBRANCH  56  57
BRANCH  56  60
ATOM     60  N28 MOL d          10.322 -11.836  23.859  0.00  0.00    -0.385 N 
ATOM     61  H32 MOL d          10.526 -12.689  23.318  0.00  0.00     0.157 HD
ATOM     62  H33 MOL d           9.545 -11.828  24.535  0.00  0.00     0.157 HD
ENDBRANCH  56  60
ENDBRANCH  50  56
ENDBRANCH  43  46
ENDBRANCH  41  43
ENDBRANCH  28  39
ENDBRANCH  23  25
BRANCH  23  63
ATOM     63  N11 MOL d          17.102 -15.734  23.834  0.00  0.00    -0.301 N 
ATOM     64  H7  MOL d          16.143 -15.517  24.021  0.00  0.00     0.173 HD
BRANCH  63  65
ATOM     65  S8  MOL d          17.995 -16.381  24.955  0.00  0.00     0.259 S 
ATOM     66  O1  MOL d          18.309 -17.376  24.357  0.00  0.00    -0.201 OA
ATOM     67  O10 MOL d          17.555 -16.319  26.000  0.00  0.00    -0.201 OA
BRANCH  65  68
ATOM     68  C35 MOL d          19.484 -15.503  24.957  0.00  0.00     0.081 A 
ATOM     69  C7  MOL d          20.508 -15.764  24.086  0.00  0.00    -0.058 A 
ATOM     70  C6  MOL d          21.684 -15.009  24.080  0.00  0.00    -0.048 A 
ATOM     71  H4  MOL d          20.404 -16.581  23.381  0.00  0.00     0.086 H 
ATOM     72  C5  MOL d          21.787 -13.926  24.920  0.00  0.00     0.089 A 
ATOM     73  H6  MOL d          22.503 -15.273  23.421  0.00  0.00     0.087 H 
ATOM     74  C4  MOL d          20.732 -13.661  25.711  0.00  0.00     0.068 A 
ATOM     75 CL   MOL d          20.845 -12.223  26.719  0.00  0.00    -0.081 Cl
ATOM     76  C3  MOL d          19.638 -14.365  25.774  0.00  0.00    -0.037 A 
ATOM     77  H5  MOL d          18.846 -14.075  26.455  0.00  0.00     0.088 H 
BRANCH  72  78
ATOM     78  O9  MOL d          22.917 -13.210  25.017  0.00  0.00    -0.354 OA
BRANCH  78  79
ATOM     79  C10 MOL d          23.959 -13.490  24.199  0.00  0.00     0.010 C 
ATOM     80  H1  MOL d          24.793 -12.808  24.419  0.00  0.00     0.066 H 
ATOM     81  H2  MOL d          23.647 -13.362  23.151  0.00  0.00     0.066 H 
ATOM     82  H3  MOL d          24.283 -14.529  24.361  0.00  0.00     0.066 H 
ENDBRANCH  78  79
ENDBRANCH  72  78
ENDBRANCH  65  68
ENDBRANCH  63  65
ENDBRANCH  23  63
ENDBRANCH  20  23
ENDBRANCH  17  20
ENDBRANCH  13  16
ENDBRANCH   1  13
TORSDOF 16
ENDMDL
