MODEL 1
REMARK VINA RESULT:      -5.8      0.000      0.000
REMARK  16 active torsions:
REMARK  status: ('A' for Active; 'I' for Inactive)
REMARK    1  A    between atoms: S8_1  and  C35_3 
REMARK    2  A    between atoms: N11_14  and  S8_1 
REMARK    3  A    between atoms: O9_5  and  C10_4 
REMARK    4  A    between atoms: C5_6  and  O9_5 
REMARK    5  A    between atoms: C45_25  and  C13_13 
REMARK       I    between atoms: C13_13  and  N15_30 
REMARK    6  A    between atoms: C45_25  and  N11_14 
REMARK    7  A    between atoms: C15_16  and  C31_17 
REMARK    8  A    between atoms: N14_29  and  C15_16 
REMARK    9  A    between atoms: C12_26  and  C45_25 
REMARK   10  A    between atoms: C46_27  and  C12_26 
REMARK       I    between atoms: C46_27  and  N14_29 
REMARK   11  A    between atoms: C16_31  and  C17_32 
REMARK       I    between atoms: C17_32  and  N19_37 
REMARK   12  A    between atoms: N19_37  and  C20_38 
REMARK   13  A    between atoms: C20_38  and  C21_39 
REMARK   14  A    between atoms: C24_42  and  C27_43 
REMARK   15  A    between atoms: C27_43  and  N29_44 
REMARK   16  A    between atoms: C27_43  and  N28_45 
ROOT
ATOM      1  C31 MOL d          21.700 -18.207  22.295  0.00  0.00    -0.040 A 
ATOM      2  C32 MOL d          22.969 -18.548  22.132  0.00  0.00    -0.074 A 
ATOM      3  C33 MOL d          23.599 -19.107  23.166  0.00  0.00    -0.062 A 
ATOM      4  C44 MOL d          23.051 -19.318  24.386  0.00  0.00     0.044 A 
ATOM      5  C8  MOL d          21.738 -18.969  24.569  0.00  0.00    -0.062 A 
ATOM      6  C9  MOL d          21.193 -18.385  23.529  0.00  0.00    -0.074 A 
ATOM      7  C40 MOL d          23.712 -19.865  25.237  0.00  0.00     0.099 C 
ATOM      8  N63 MOL d          24.248 -20.477  25.984  0.00  0.00    -0.191 NA
ATOM      9  H10 MOL d          23.478 -18.378  21.191  0.00  0.00     0.084 H 
ATOM     10  H11 MOL d          24.627 -19.416  23.019  0.00  0.00     0.085 H 
ATOM     11  H12 MOL d          21.200 -19.159  25.489  0.00  0.00     0.085 H 
ATOM     12  H13 MOL d          20.195 -17.991  23.685  0.00  0.00     0.084 H 
ENDROOT
BRANCH   1  13
ATOM     13  C15 MOL d          20.975 -17.607  21.219  0.00  0.00     0.019 C 
ATOM     14  H8  MOL d          20.534 -18.417  20.620  0.00  0.00     0.071 H 
ATOM     15  H9  MOL d          21.692 -17.045  20.604  0.00  0.00     0.071 H 
BRANCH  13  16
ATOM     16  N14 MOL d          19.869 -16.670  21.602  0.00  0.00    -0.357 N 
ATOM     17  C46 MOL d          18.557 -16.833  21.543  0.00  0.00     0.220 C 
ATOM     18  O22 MOL d          18.030 -17.728  21.074  0.00  0.00    -0.274 OA
ATOM     19  H17 MOL d          20.169 -15.784  21.957  0.00  0.00     0.162 HD
BRANCH  17  20
ATOM     20  C12 MOL d          17.624 -15.656  21.998  0.00  0.00     0.037 C 
ATOM     21  H15 MOL d          17.690 -15.570  23.092  0.00  0.00     0.051 H 
ATOM     22  H16 MOL d          17.991 -14.728  21.534  0.00  0.00     0.051 H 
BRANCH  20  23
ATOM     23  C45 MOL d          16.074 -15.833  21.603  0.00  0.00     0.105 C 
ATOM     24  H14 MOL d          15.443 -15.433  22.410  0.00  0.00     0.089 H 
BRANCH  23  25
ATOM     25  C13 MOL d          15.904 -14.973  20.291  0.00  0.00     0.244 C 
ATOM     26  O14 MOL d          16.383 -15.428  19.310  0.00  0.00    -0.271 OA
ATOM     27  N15 MOL d          15.275 -13.872  20.406  0.00  0.00    -0.337 N 
ATOM     28  C16 MOL d          15.331 -12.941  19.363  0.00  0.00     0.091 C 
ATOM     29  C2  MOL d          14.743 -13.279  21.630  0.00  0.00    -0.001 C 
ATOM     30  C34 MOL d          14.727 -11.660  19.911  0.00  0.00    -0.036 C 
ATOM     31  H18 MOL d          14.857 -13.296  18.437  0.00  0.00     0.087 H 
ATOM     32  C1  MOL d          14.212 -11.952  21.282  0.00  0.00    -0.048 C 
ATOM     33  H19 MOL d          13.902 -11.327  19.263  0.00  0.00     0.036 H 
ATOM     34  H20 MOL d          15.496 -10.874  19.958  0.00  0.00     0.036 H 
ATOM     35  H21 MOL d          13.112 -11.966  21.284  0.00  0.00     0.035 H 
ATOM     36  H22 MOL d          14.571 -11.195  21.996  0.00  0.00     0.035 H 
ATOM     37  H23 MOL d          15.543 -13.179  22.378  0.00  0.00     0.064 H 
ATOM     38  H24 MOL d          13.939 -13.911  22.036  0.00  0.00     0.064 H 
BRANCH  28  39
ATOM     39  C17 MOL d          16.855 -12.575  19.204  0.00  0.00     0.240 C 
ATOM     40  O18 MOL d          17.473 -12.727  18.212  0.00  0.00    -0.271 OA
ATOM     41  N19 MOL d          17.473 -12.162  20.353  0.00  0.00    -0.355 N 
ATOM     42  H25 MOL d          16.931 -12.134  21.192  0.00  0.00     0.162 HD
BRANCH  41  43
ATOM     43  C20 MOL d          18.842 -11.770  20.429  0.00  0.00     0.019 C 
ATOM     44  H26 MOL d          18.913 -10.690  20.629  0.00  0.00     0.071 H 
ATOM     45  H27 MOL d          19.354 -12.003  19.484  0.00  0.00     0.071 H 
BRANCH  43  46
ATOM     46  C21 MOL d          19.460 -12.539  21.550  0.00  0.00    -0.040 A 
ATOM     47  C26 MOL d          20.685 -13.131  21.477  0.00  0.00    -0.074 A 
ATOM     48  C25 MOL d          21.229 -13.814  22.434  0.00  0.00    -0.069 A 
ATOM     49  H28 MOL d          21.243 -13.023  20.554  0.00  0.00     0.084 H 
ATOM     50  C24 MOL d          20.640 -14.036  23.592  0.00  0.00     0.007 A 
ATOM     51  H29 MOL d          22.219 -14.224  22.274  0.00  0.00     0.085 H 
ATOM     52  C23 MOL d          19.409 -13.522  23.705  0.00  0.00    -0.069 A 
ATOM     53  C22 MOL d          18.881 -12.807  22.703  0.00  0.00    -0.074 A 
ATOM     54  H34 MOL d          18.838 -13.687  24.611  0.00  0.00     0.085 H 
ATOM     55  H35 MOL d          17.884 -12.410  22.855  0.00  0.00     0.084 H 
BRANCH  50  56
ATOM     56  C27 MOL d          21.221 -14.780  24.666  0.00  0.00     0.102 C 
BRANCH  56  57
ATOM     57  N29 MOL d          20.547 -15.238  25.513  0.00  0.00    -0.385 N 
ATOM     58  H30 MOL d          19.532 -15.341  25.365  0.00  0.00     0.157 HD
ATOM     59  H31 MOL d          20.970 -15.536  26.403  0.00  0.00     0.157 HD
ENDBRANCH  56  57
BRANCH  56  60
ATOM     60  N28 MOL d          22.476 -15.009  24.697  0.00  0.00    -0.385 N 
ATOM     61  H32 MOL d          23.093 -14.591  23.985  0.00  0.00     0.157 HD
ATOM     62  H33 MOL d          22.872 -15.610  25.433  0.00  0.00     0.157 HD
ENDBRANCH  56  60
ENDBRANCH  50  56
ENDBRANCH  43  46
ENDBRANCH  41  43
ENDBRANCH  28  39
ENDBRANCH  23  25
BRANCH  23  63
ATOM     63  N11 MOL d          15.698 -17.101  21.357  0.00  0.00    -0.301 N 
ATOM     64  H7  MOL d          16.245 -17.676  20.749  0.00  0.00     0.173 HD
BRANCH  63  65
ATOM     65  S8  MOL d          14.398 -17.679  22.028  0.00  0.00     0.259 S 
ATOM     66  O1  MOL d          14.301 -18.675  21.361  0.00  0.00    -0.201 OA
ATOM     67  O10 MOL d          13.591 -16.907  22.228  0.00  0.00    -0.201 OA
BRANCH  65  68
ATOM     68  C35 MOL d          14.889 -18.337  23.549  0.00  0.00     0.081 A 
ATOM     69  C7  MOL d          14.371 -19.494  24.067  0.00  0.00    -0.058 A 
ATOM     70  C6  MOL d          14.819 -20.026  25.279  0.00  0.00    -0.048 A 
ATOM     71  H4  MOL d          13.591 -20.011  23.521  0.00  0.00     0.086 H 
ATOM     72  C5  MOL d          15.860 -19.414  25.935  0.00  0.00     0.089 A 
ATOM     73  H6  MOL d          14.351 -20.911  25.696  0.00  0.00     0.087 H 
ATOM     74  C4  MOL d          16.388 -18.319  25.359  0.00  0.00     0.068 A 
ATOM     75 CL   MOL d          17.774 -17.596  26.166  0.00  0.00    -0.081 Cl
ATOM     76  C3  MOL d          15.971 -17.770  24.254  0.00  0.00    -0.037 A 
ATOM     77  H5  MOL d          16.457 -16.878  23.875  0.00  0.00     0.088 H 
BRANCH  72  78
ATOM     78  O9  MOL d          16.282 -19.831  27.138  0.00  0.00    -0.354 OA
BRANCH  78  79
ATOM     79  C10 MOL d          17.448 -20.512  27.238  0.00  0.00     0.010 C 
ATOM     80  H1  MOL d          18.195 -19.887  27.750  0.00  0.00     0.066 H 
ATOM     81  H2  MOL d          17.812 -20.767  26.231  0.00  0.00     0.066 H 
ATOM     82  H3  MOL d          17.286 -21.434  27.815  0.00  0.00     0.066 H 
ENDBRANCH  78  79
ENDBRANCH  72  78
ENDBRANCH  65  68
ENDBRANCH  63  65
ENDBRANCH  23  63
ENDBRANCH  20  23
ENDBRANCH  17  20
ENDBRANCH  13  16
ENDBRANCH   1  13
TORSDOF 16
ENDMDL
MODEL 2
REMARK VINA RESULT:      -5.5      2.825      6.929
REMARK  16 active torsions:
REMARK  status: ('A' for Active; 'I' for Inactive)
REMARK    1  A    between atoms: S8_1  and  C35_3 
REMARK    2  A    between atoms: N11_14  and  S8_1 
REMARK    3  A    between atoms: O9_5  and  C10_4 
REMARK    4  A    between atoms: C5_6  and  O9_5 
REMARK    5  A    between atoms: C45_25  and  C13_13 
REMARK       I    between atoms: C13_13  and  N15_30 
REMARK    6  A    between atoms: C45_25  and  N11_14 
REMARK    7  A    between atoms: C15_16  and  C31_17 
REMARK    8  A    between atoms: N14_29  and  C15_16 
REMARK    9  A    between atoms: C12_26  and  C45_25 
REMARK   10  A    between atoms: C46_27  and  C12_26 
REMARK       I    between atoms: C46_27  and  N14_29 
REMARK   11  A    between atoms: C16_31  and  C17_32 
REMARK       I    between atoms: C17_32  and  N19_37 
REMARK   12  A    between atoms: N19_37  and  C20_38 
REMARK   13  A    between atoms: C20_38  and  C21_39 
REMARK   14  A    between atoms: C24_42  and  C27_43 
REMARK   15  A    between atoms: C27_43  and  N29_44 
REMARK   16  A    between atoms: C27_43  and  N28_45 
ROOT
ATOM      1  C31 MOL d          13.171 -13.532  21.959  0.00  0.00    -0.040 A 
ATOM      2  C32 MOL d          14.240 -12.906  21.494  0.00  0.00    -0.074 A 
ATOM      3  C33 MOL d          14.225 -11.572  21.489  0.00  0.00    -0.062 A 
ATOM      4  C44 MOL d          13.182 -10.808  21.889  0.00  0.00     0.044 A 
ATOM      5  C8  MOL d          12.068 -11.443  22.373  0.00  0.00    -0.062 A 
ATOM      6  C9  MOL d          12.132 -12.750  22.308  0.00  0.00    -0.074 A 
ATOM      7  C40 MOL d          13.299  -9.604  21.871  0.00  0.00     0.099 C 
ATOM      8  N63 MOL d          13.427  -8.513  21.987  0.00  0.00    -0.191 NA
ATOM      9  H10 MOL d          15.097 -13.458  21.128  0.00  0.00     0.084 H 
ATOM     10  H11 MOL d          15.114 -11.062  21.139  0.00  0.00     0.085 H 
ATOM     11  H12 MOL d          11.213 -10.912  22.774  0.00  0.00     0.085 H 
ATOM     12  H13 MOL d          11.220 -13.276  22.572  0.00  0.00     0.084 H 
ENDROOT
BRANCH   1  13
ATOM     13  C15 MOL d          13.133 -14.960  21.991  0.00  0.00     0.019 C 
ATOM     14  H8  MOL d          12.558 -15.300  21.117  0.00  0.00     0.071 H 
ATOM     15  H9  MOL d          12.613 -15.261  22.912  0.00  0.00     0.071 H 
BRANCH  13  16
ATOM     16  N14 MOL d          14.458 -15.663  21.966  0.00  0.00    -0.357 N 
ATOM     17  C46 MOL d          14.789 -16.869  22.397  0.00  0.00     0.220 C 
ATOM     18  O22 MOL d          14.101 -17.568  22.979  0.00  0.00    -0.274 OA
ATOM     19  H17 MOL d          15.207 -15.139  21.560  0.00  0.00     0.162 HD
BRANCH  17  20
ATOM     20  C12 MOL d          16.279 -17.343  22.259  0.00  0.00     0.037 C 
ATOM     21  H15 MOL d          16.865 -16.869  23.060  0.00  0.00     0.051 H 
ATOM     22  H16 MOL d          16.304 -18.436  22.382  0.00  0.00     0.051 H 
BRANCH  20  23
ATOM     23  C45 MOL d          16.973 -16.983  20.852  0.00  0.00     0.105 C 
ATOM     24  H14 MOL d          16.242 -16.480  20.202  0.00  0.00     0.089 H 
BRANCH  23  25
ATOM     25  C13 MOL d          18.143 -15.997  21.234  0.00  0.00     0.244 C 
ATOM     26  O14 MOL d          18.960 -16.426  21.975  0.00  0.00    -0.271 OA
ATOM     27  N15 MOL d          18.103 -14.832  20.719  0.00  0.00    -0.337 N 
ATOM     28  C16 MOL d          18.938 -13.832  21.227  0.00  0.00     0.091 C 
ATOM     29  C2  MOL d          17.059 -14.280  19.859  0.00  0.00    -0.001 C 
ATOM     30  C34 MOL d          18.461 -12.531  20.604  0.00  0.00    -0.036 C 
ATOM     31  H18 MOL d          20.007 -14.035  21.070  0.00  0.00     0.087 H 
ATOM     32  C1  MOL d          17.390 -12.867  19.619  0.00  0.00    -0.048 C 
ATOM     33  H19 MOL d          19.298 -12.032  20.092  0.00  0.00     0.036 H 
ATOM     34  H20 MOL d          18.060 -11.868  21.384  0.00  0.00     0.036 H 
ATOM     35  H21 MOL d          17.755 -12.728  18.591  0.00  0.00     0.035 H 
ATOM     36  H22 MOL d          16.505 -12.233  19.783  0.00  0.00     0.035 H 
ATOM     37  H23 MOL d          16.082 -14.358  20.357  0.00  0.00     0.064 H 
ATOM     38  H24 MOL d          17.030 -14.827  18.905  0.00  0.00     0.064 H 
BRANCH  28  39
ATOM     39  C17 MOL d          18.533 -13.669  22.741  0.00  0.00     0.240 C 
ATOM     40  O18 MOL d          17.447 -13.397  23.110  0.00  0.00    -0.271 OA
ATOM     41  N19 MOL d          19.570 -13.754  23.629  0.00  0.00    -0.355 N 
ATOM     42  H25 MOL d          20.490 -13.897  23.263  0.00  0.00     0.162 HD
BRANCH  41  43
ATOM     43  C20 MOL d          19.424 -13.650  25.043  0.00  0.00     0.019 C 
ATOM     44  H26 MOL d          18.541 -13.041  25.287  0.00  0.00     0.071 H 
ATOM     45  H27 MOL d          20.321 -13.186  25.481  0.00  0.00     0.071 H 
BRANCH  43  46
ATOM     46  C21 MOL d          19.254 -15.035  25.573  0.00  0.00    -0.040 A 
ATOM     47  C26 MOL d          20.264 -15.946  25.649  0.00  0.00    -0.074 A 
ATOM     48  C25 MOL d          20.129 -17.156  26.092  0.00  0.00    -0.069 A 
ATOM     49  H28 MOL d          21.248 -15.638  25.317  0.00  0.00     0.084 H 
ATOM     50  C24 MOL d          18.980 -17.656  26.502  0.00  0.00     0.007 A 
ATOM     51  H29 MOL d          21.007 -17.791  26.129  0.00  0.00     0.085 H 
ATOM     52  C23 MOL d          17.937 -16.823  26.400  0.00  0.00    -0.069 A 
ATOM     53  C22 MOL d          18.112 -15.572  25.954  0.00  0.00    -0.074 A 
ATOM     54  H34 MOL d          16.947 -17.162  26.681  0.00  0.00     0.085 H 
ATOM     55  H35 MOL d          17.232 -14.941  25.901  0.00  0.00     0.084 H 
BRANCH  50  56
ATOM     56  C27 MOL d          18.806 -18.984  27.000  0.00  0.00     0.102 C 
BRANCH  56  57
ATOM     57  N29 MOL d          19.735 -19.669  27.223  0.00  0.00    -0.385 N 
ATOM     58  H30 MOL d          19.922 -19.987  28.184  0.00  0.00     0.157 HD
ATOM     59  H31 MOL d          20.362 -19.952  26.456  0.00  0.00     0.157 HD
ENDBRANCH  56  57
BRANCH  56  60
ATOM     60  N28 MOL d          17.641 -19.434  27.265  0.00  0.00    -0.385 N 
ATOM     61  H32 MOL d          17.394 -19.686  28.232  0.00  0.00     0.157 HD
ATOM     62  H33 MOL d          16.947 -19.544  26.511  0.00  0.00     0.157 HD
ENDBRANCH  56  60
ENDBRANCH  50  56
ENDBRANCH  43  46
ENDBRANCH  41  43
ENDBRANCH  28  39
ENDBRANCH  23  25
BRANCH  23  63
ATOM     63  N11 MOL d          17.477 -18.038  20.188  0.00  0.00    -0.301 N 
ATOM     64  H7  MOL d          17.841 -17.921  19.263  0.00  0.00     0.173 HD
BRANCH  63  65
ATOM     65  S8  MOL d          17.495 -19.457  20.866  0.00  0.00     0.259 S 
ATOM     66  O1  MOL d          17.707 -20.107  19.877  0.00  0.00    -0.201 OA
ATOM     67  O10 MOL d          16.671 -19.623  21.630  0.00  0.00    -0.201 OA
BRANCH  65  68
ATOM     68  C35 MOL d          19.010 -19.585  21.687  0.00  0.00     0.081 A 
ATOM     69  C7  MOL d          19.115 -19.818  23.032  0.00  0.00    -0.058 A 
ATOM     70  C6  MOL d          20.354 -19.961  23.662  0.00  0.00    -0.048 A 
ATOM     71  H4  MOL d          18.211 -19.894  23.625  0.00  0.00     0.086 H 
ATOM     72  C5  MOL d          21.498 -19.942  22.901  0.00  0.00     0.089 A 
ATOM     73  H6  MOL d          20.413 -20.086  24.738  0.00  0.00     0.087 H 
ATOM     74  C4  MOL d          21.348 -19.780  21.574  0.00  0.00     0.068 A 
ATOM     75 CL   MOL d          22.815 -19.841  20.603  0.00  0.00    -0.081 Cl
ATOM     76  C3  MOL d          20.216 -19.602  20.956  0.00  0.00    -0.037 A 
ATOM     77  H5  MOL d          20.200 -19.468  19.881  0.00  0.00     0.088 H 
BRANCH  72  78
ATOM     78  O9  MOL d          22.719 -19.995  23.455  0.00  0.00    -0.354 OA
BRANCH  78  79
ATOM     79  C10 MOL d          23.217 -18.904  24.081  0.00  0.00     0.010 C 
ATOM     80  H1  MOL d          24.144 -18.585  23.581  0.00  0.00     0.066 H 
ATOM     81  H2  MOL d          23.433 -19.151  25.132  0.00  0.00     0.066 H 
ATOM     82  H3  MOL d          22.480 -18.088  24.040  0.00  0.00     0.066 H 
ENDBRANCH  78  79
ENDBRANCH  72  78
ENDBRANCH  65  68
ENDBRANCH  63  65
ENDBRANCH  23  63
ENDBRANCH  20  23
ENDBRANCH  17  20
ENDBRANCH  13  16
ENDBRANCH   1  13
TORSDOF 16
ENDMDL
MODEL 3
REMARK VINA RESULT:      -5.4      3.545      7.665
REMARK  16 active torsions:
REMARK  status: ('A' for Active; 'I' for Inactive)
REMARK    1  A    between atoms: S8_1  and  C35_3 
REMARK    2  A    between atoms: N11_14  and  S8_1 
REMARK    3  A    between atoms: O9_5  and  C10_4 
REMARK    4  A    between atoms: C5_6  and  O9_5 
REMARK    5  A    between atoms: C45_25  and  C13_13 
REMARK       I    between atoms: C13_13  and  N15_30 
REMARK    6  A    between atoms: C45_25  and  N11_14 
REMARK    7  A    between atoms: C15_16  and  C31_17 
REMARK    8  A    between atoms: N14_29  and  C15_16 
REMARK    9  A    between atoms: C12_26  and  C45_25 
REMARK   10  A    between atoms: C46_27  and  C12_26 
REMARK       I    between atoms: C46_27  and  N14_29 
REMARK   11  A    between atoms: C16_31  and  C17_32 
REMARK       I    between atoms: C17_32  and  N19_37 
REMARK   12  A    between atoms: N19_37  and  C20_38 
REMARK   13  A    between atoms: C20_38  and  C21_39 
REMARK   14  A    between atoms: C24_42  and  C27_43 
REMARK   15  A    between atoms: C27_43  and  N29_44 
REMARK   16  A    between atoms: C27_43  and  N28_45 
ROOT
ATOM      1  C31 MOL d          16.104 -17.694  23.033  0.00  0.00    -0.040 A 
ATOM      2  C32 MOL d          15.298 -18.743  23.063  0.00  0.00    -0.074 A 
ATOM      3  C33 MOL d          14.444 -18.900  22.049  0.00  0.00    -0.062 A 
ATOM      4  C44 MOL d          14.312 -18.045  21.009  0.00  0.00     0.044 A 
ATOM      5  C8  MOL d          15.140 -16.954  20.965  0.00  0.00    -0.062 A 
ATOM      6  C9  MOL d          15.921 -16.836  22.011  0.00  0.00    -0.074 A 
ATOM      7  C40 MOL d          13.525 -18.311  20.130  0.00  0.00     0.099 C 
ATOM      8  N63 MOL d          12.913 -18.596  19.256  0.00  0.00    -0.191 NA
ATOM      9  H10 MOL d          15.330 -19.451  23.883  0.00  0.00     0.084 H 
ATOM     10  H11 MOL d          13.809 -19.778  22.060  0.00  0.00     0.085 H 
ATOM     11  H12 MOL d          15.149 -16.252  20.140  0.00  0.00     0.085 H 
ATOM     12  H13 MOL d          16.500 -15.921  22.061  0.00  0.00     0.084 H 
ENDROOT
BRANCH   1  13
ATOM     13  C15 MOL d          17.041 -17.479  24.090  0.00  0.00     0.019 C 
ATOM     14  H8  MOL d          17.032 -18.371  24.733  0.00  0.00     0.071 H 
ATOM     15  H9  MOL d          16.699 -16.608  24.668  0.00  0.00     0.071 H 
BRANCH  13  16
ATOM     16  N14 MOL d          18.461 -17.226  23.681  0.00  0.00    -0.357 N 
ATOM     17  C46 MOL d          19.592 -17.594  24.261  0.00  0.00     0.220 C 
ATOM     18  O22 MOL d          19.669 -18.109  25.276  0.00  0.00    -0.274 OA
ATOM     19  H17 MOL d          18.571 -16.697  22.839  0.00  0.00     0.162 HD
BRANCH  17  20
ATOM     20  C12 MOL d          20.955 -17.164  23.612  0.00  0.00     0.037 C 
ATOM     21  H15 MOL d          21.136 -17.808  22.739  0.00  0.00     0.051 H 
ATOM     22  H16 MOL d          20.862 -16.118  23.283  0.00  0.00     0.051 H 
BRANCH  20  23
ATOM     23  C45 MOL d          22.230 -17.271  24.588  0.00  0.00     0.105 C 
ATOM     24  H14 MOL d          23.152 -17.155  23.999  0.00  0.00     0.089 H 
BRANCH  23  25
ATOM     25  C13 MOL d          22.059 -16.065  25.589  0.00  0.00     0.244 C 
ATOM     26  O14 MOL d          21.655 -16.341  26.666  0.00  0.00    -0.271 OA
ATOM     27  N15 MOL d          22.365 -14.909  25.151  0.00  0.00    -0.337 N 
ATOM     28  C16 MOL d          21.977 -13.779  25.878  0.00  0.00     0.091 C 
ATOM     29  C2  MOL d          22.799 -14.560  23.801  0.00  0.00    -0.001 C 
ATOM     30  C34 MOL d          22.240 -12.587  24.974  0.00  0.00    -0.036 C 
ATOM     31  H18 MOL d          22.462 -13.706  26.862  0.00  0.00     0.087 H 
ATOM     32  C1  MOL d          22.915 -13.094  23.742  0.00  0.00    -0.048 C 
ATOM     33  H19 MOL d          22.891 -11.863  25.487  0.00  0.00     0.036 H 
ATOM     34  H20 MOL d          21.290 -12.102  24.708  0.00  0.00     0.036 H 
ATOM     35  H21 MOL d          23.972 -12.793  23.731  0.00  0.00     0.035 H 
ATOM     36  H22 MOL d          22.413 -12.706  22.842  0.00  0.00     0.035 H 
ATOM     37  H23 MOL d          22.060 -14.909  23.066  0.00  0.00     0.064 H 
ATOM     38  H24 MOL d          23.774 -15.023  23.588  0.00  0.00     0.064 H 
BRANCH  28  39
ATOM     39  C17 MOL d          20.404 -13.835  25.942  0.00  0.00     0.240 C 
ATOM     40  O18 MOL d          19.779 -13.789  26.939  0.00  0.00    -0.271 OA
ATOM     41  N19 MOL d          19.785 -14.062  24.742  0.00  0.00    -0.355 N 
ATOM     42  H25 MOL d          20.361 -14.184  23.934  0.00  0.00     0.162 HD
BRANCH  41  43
ATOM     43  C20 MOL d          18.372 -14.135  24.571  0.00  0.00     0.019 C 
ATOM     44  H26 MOL d          17.867 -13.547  25.352  0.00  0.00     0.071 H 
ATOM     45  H27 MOL d          18.039 -15.182  24.628  0.00  0.00     0.071 H 
BRANCH  43  46
ATOM     46  C21 MOL d          18.060 -13.572  23.224  0.00  0.00    -0.040 A 
ATOM     47  C26 MOL d          18.990 -13.005  22.406  0.00  0.00    -0.074 A 
ATOM     48  C25 MOL d          18.733 -12.499  21.242  0.00  0.00    -0.069 A 
ATOM     49  H28 MOL d          20.016 -12.975  22.754  0.00  0.00     0.084 H 
ATOM     50  C24 MOL d          17.523 -12.453  20.721  0.00  0.00     0.007 A 
ATOM     51  H29 MOL d          19.556 -12.091  20.666  0.00  0.00     0.085 H 
ATOM     52  C23 MOL d          16.556 -12.949  21.502  0.00  0.00    -0.069 A 
ATOM     53  C22 MOL d          16.856 -13.480  22.695  0.00  0.00    -0.074 A 
ATOM     54  H34 MOL d          15.526 -12.920  21.168  0.00  0.00     0.085 H 
ATOM     55  H35 MOL d          16.032 -13.873  23.279  0.00  0.00     0.084 H 
BRANCH  50  56
ATOM     56  C27 MOL d          17.214 -11.906  19.437  0.00  0.00     0.102 C 
BRANCH  56  57
ATOM     57  N29 MOL d          17.706 -12.343  18.463  0.00  0.00    -0.385 N 
ATOM     58  H30 MOL d          18.058 -13.312  18.453  0.00  0.00     0.157 HD
ATOM     59  H31 MOL d          17.786 -11.758  17.619  0.00  0.00     0.157 HD
ENDBRANCH  56  57
BRANCH  56  60
ATOM     60  N28 MOL d          16.357 -10.968  19.317  0.00  0.00    -0.385 N 
ATOM     61  H32 MOL d          15.666 -10.997  18.553  0.00  0.00     0.157 HD
ATOM     62  H33 MOL d          16.355 -10.183  19.984  0.00  0.00     0.157 HD
ENDBRANCH  56  60
ENDBRANCH  50  56
ENDBRANCH  43  46
ENDBRANCH  41  43
ENDBRANCH  28  39
ENDBRANCH  23  25
BRANCH  23  63
ATOM     63  N11 MOL d          22.311 -18.421  25.282  0.00  0.00    -0.301 N 
ATOM     64  H7  MOL d          21.852 -18.505  26.167  0.00  0.00     0.173 HD
BRANCH  63  65
ATOM     65  S8  MOL d          23.127 -19.633  24.701  0.00  0.00     0.259 S 
ATOM     66  O1  MOL d          22.536 -20.513  25.269  0.00  0.00    -0.201 OA
ATOM     67  O10 MOL d          24.250 -19.471  24.670  0.00  0.00    -0.201 OA
BRANCH  65  68
ATOM     68  C35 MOL d          22.581 -19.852  23.076  0.00  0.00     0.081 A 
ATOM     69  C7  MOL d          21.361 -20.389  22.762  0.00  0.00    -0.058 A 
ATOM     70  C6  MOL d          20.926 -20.513  21.440  0.00  0.00    -0.048 A 
ATOM     71  H4  MOL d          20.713 -20.728  23.563  0.00  0.00     0.086 H 
ATOM     72  C5  MOL d          21.711 -20.014  20.428  0.00  0.00     0.089 A 
ATOM     73  H6  MOL d          19.982 -20.996  21.215  0.00  0.00     0.087 H 
ATOM     74  C4  MOL d          22.870 -19.431  20.783  0.00  0.00     0.068 A 
ATOM     75 CL   MOL d          23.825 -18.723  19.485  0.00  0.00    -0.081 Cl
ATOM     76  C3  MOL d          23.328 -19.335  21.998  0.00  0.00    -0.037 A 
ATOM     77  H5  MOL d          24.283 -18.856  22.181  0.00  0.00     0.088 H 
BRANCH  72  78
ATOM     78  O9  MOL d          21.386 -20.172  19.136  0.00  0.00    -0.354 OA
BRANCH  78  79
ATOM     79  C10 MOL d          20.092 -20.367  18.791  0.00  0.00     0.010 C 
ATOM     80  H1  MOL d          19.700 -21.248  19.322  0.00  0.00     0.066 H 
ATOM     81  H2  MOL d          20.022 -20.532  17.706  0.00  0.00     0.066 H 
ATOM     82  H3  MOL d          19.501 -19.481  19.066  0.00  0.00     0.066 H 
ENDBRANCH  78  79
ENDBRANCH  72  78
ENDBRANCH  65  68
ENDBRANCH  63  65
ENDBRANCH  23  63
ENDBRANCH  20  23
ENDBRANCH  17  20
ENDBRANCH  13  16
ENDBRANCH   1  13
TORSDOF 16
ENDMDL
MODEL 4
REMARK VINA RESULT:      -5.0      2.427      5.568
REMARK  16 active torsions:
REMARK  status: ('A' for Active; 'I' for Inactive)
REMARK    1  A    between atoms: S8_1  and  C35_3 
REMARK    2  A    between atoms: N11_14  and  S8_1 
REMARK    3  A    between atoms: O9_5  and  C10_4 
REMARK    4  A    between atoms: C5_6  and  O9_5 
REMARK    5  A    between atoms: C45_25  and  C13_13 
REMARK       I    between atoms: C13_13  and  N15_30 
REMARK    6  A    between atoms: C45_25  and  N11_14 
REMARK    7  A    between atoms: C15_16  and  C31_17 
REMARK    8  A    between atoms: N14_29  and  C15_16 
REMARK    9  A    between atoms: C12_26  and  C45_25 
REMARK   10  A    between atoms: C46_27  and  C12_26 
REMARK       I    between atoms: C46_27  and  N14_29 
REMARK   11  A    between atoms: C16_31  and  C17_32 
REMARK       I    between atoms: C17_32  and  N19_37 
REMARK   12  A    between atoms: N19_37  and  C20_38 
REMARK   13  A    between atoms: C20_38  and  C21_39 
REMARK   14  A    between atoms: C24_42  and  C27_43 
REMARK   15  A    between atoms: C27_43  and  N29_44 
REMARK   16  A    between atoms: C27_43  and  N28_45 
ROOT
ATOM      1  C31 MOL d          23.277 -19.662  23.023  0.00  0.00    -0.040 A 
ATOM      2  C32 MOL d          23.185 -20.238  24.210  0.00  0.00    -0.074 A 
ATOM      3  C33 MOL d          23.500 -19.507  25.281  0.00  0.00    -0.062 A 
ATOM      4  C44 MOL d          23.945 -18.229  25.243  0.00  0.00     0.044 A 
ATOM      5  C8  MOL d          24.045 -17.620  24.020  0.00  0.00    -0.062 A 
ATOM      6  C9  MOL d          23.764 -18.406  23.010  0.00  0.00    -0.074 A 
ATOM      7  C40 MOL d          24.166 -17.657  26.285  0.00  0.00     0.099 C 
ATOM      8  N63 MOL d          24.250 -17.074  27.219  0.00  0.00    -0.191 NA
ATOM      9  H10 MOL d          22.866 -21.269  24.309  0.00  0.00     0.084 H 
ATOM     10  H11 MOL d          23.392 -19.971  26.254  0.00  0.00     0.085 H 
ATOM     11  H12 MOL d          24.330 -16.582  23.899  0.00  0.00     0.085 H 
ATOM     12  H13 MOL d          23.950 -17.988  22.027  0.00  0.00     0.084 H 
ENDROOT
BRANCH   1  13
ATOM     13  C15 MOL d          22.948 -20.396  21.841  0.00  0.00     0.019 C 
ATOM     14  H8  MOL d          22.811 -21.449  22.129  0.00  0.00     0.071 H 
ATOM     15  H9  MOL d          23.798 -20.314  21.149  0.00  0.00     0.071 H 
BRANCH  13  16
ATOM     16  N14 MOL d          21.717 -19.960  21.106  0.00  0.00    -0.357 N 
ATOM     17  C46 MOL d          20.446 -20.011  21.470  0.00  0.00     0.220 C 
ATOM     18  O22 MOL d          20.056 -20.513  22.416  0.00  0.00    -0.274 OA
ATOM     19  H17 MOL d          21.882 -19.570  20.200  0.00  0.00     0.162 HD
BRANCH  17  20
ATOM     20  C12 MOL d          19.349 -19.494  20.473  0.00  0.00     0.037 C 
ATOM     21  H15 MOL d          19.848 -19.195  19.540  0.00  0.00     0.051 H 
ATOM     22  H16 MOL d          18.654 -20.322  20.269  0.00  0.00     0.051 H 
BRANCH  20  23
ATOM     23  C45 MOL d          18.490 -18.241  21.006  0.00  0.00     0.105 C 
ATOM     24  H14 MOL d          18.236 -17.585  20.160  0.00  0.00     0.089 H 
BRANCH  23  25
ATOM     25  C13 MOL d          17.188 -18.889  21.614  0.00  0.00     0.244 C 
ATOM     26  O14 MOL d          16.473 -19.432  20.843  0.00  0.00    -0.271 OA
ATOM     27  N15 MOL d          17.020 -18.768  22.871  0.00  0.00    -0.337 N 
ATOM     28  C16 MOL d          15.771 -19.067  23.425  0.00  0.00     0.091 C 
ATOM     29  C2  MOL d          17.868 -18.041  23.811  0.00  0.00    -0.001 C 
ATOM     30  C34 MOL d          15.818 -18.567  24.858  0.00  0.00    -0.036 C 
ATOM     31  H18 MOL d          15.496 -20.128  23.332  0.00  0.00     0.087 H 
ATOM     32  C1  MOL d          17.205 -18.081  25.124  0.00  0.00    -0.048 C 
ATOM     33  H19 MOL d          15.569 -19.386  25.549  0.00  0.00     0.036 H 
ATOM     34  H20 MOL d          15.100 -17.745  24.991  0.00  0.00     0.036 H 
ATOM     35  H21 MOL d          17.731 -18.771  25.798  0.00  0.00     0.035 H 
ATOM     36  H22 MOL d          17.180 -17.076  25.572  0.00  0.00     0.035 H 
ATOM     37  H23 MOL d          17.986 -16.998  23.482  0.00  0.00     0.064 H 
ATOM     38  H24 MOL d          18.856 -18.519  23.874  0.00  0.00     0.064 H 
BRANCH  28  39
ATOM     39  C17 MOL d          14.755 -18.079  22.737  0.00  0.00     0.240 C 
ATOM     40  O18 MOL d          13.647 -18.360  22.451  0.00  0.00    -0.271 OA
ATOM     41  N19 MOL d          15.281 -16.868  22.376  0.00  0.00    -0.355 N 
ATOM     42  H25 MOL d          16.251 -16.705  22.559  0.00  0.00     0.162 HD
BRANCH  41  43
ATOM     43  C20 MOL d          14.535 -15.823  21.756  0.00  0.00     0.019 C 
ATOM     44  H26 MOL d          13.822 -15.392  22.474  0.00  0.00     0.071 H 
ATOM     45  H27 MOL d          13.989 -16.216  20.887  0.00  0.00     0.071 H 
BRANCH  43  46
ATOM     46  C21 MOL d          15.513 -14.782  21.318  0.00  0.00    -0.040 A 
ATOM     47  C26 MOL d          15.931 -14.631  20.031  0.00  0.00    -0.074 A 
ATOM     48  C25 MOL d          16.789 -13.743  19.637  0.00  0.00    -0.069 A 
ATOM     49  H28 MOL d          15.518 -15.299  19.284  0.00  0.00     0.084 H 
ATOM     50  C24 MOL d          17.378 -12.892  20.453  0.00  0.00     0.007 A 
ATOM     51  H29 MOL d          17.034 -13.698  18.583  0.00  0.00     0.085 H 
ATOM     52  C23 MOL d          17.046 -13.027  21.742  0.00  0.00    -0.069 A 
ATOM     53  C22 MOL d          16.143 -13.944  22.116  0.00  0.00    -0.074 A 
ATOM     54  H34 MOL d          17.510 -12.392  22.487  0.00  0.00     0.085 H 
ATOM     55  H35 MOL d          15.910 -14.002  23.172  0.00  0.00     0.084 H 
BRANCH  50  56
ATOM     56  C27 MOL d          18.322 -11.900  20.043  0.00  0.00     0.102 C 
BRANCH  56  57
ATOM     57  N29 MOL d          18.858 -11.974  18.999  0.00  0.00    -0.385 N 
ATOM     58  H30 MOL d          19.259 -11.131  18.565  0.00  0.00     0.157 HD
ATOM     59  H31 MOL d          18.926 -12.883  18.519  0.00  0.00     0.157 HD
ENDBRANCH  56  57
BRANCH  56  60
ATOM     60  N28 MOL d          18.562 -10.885  20.779  0.00  0.00    -0.385 N 
ATOM     61  H32 MOL d          18.377  -9.936  20.424  0.00  0.00     0.157 HD
ATOM     62  H33 MOL d          18.941 -11.015  21.729  0.00  0.00     0.157 HD
ENDBRANCH  56  60
ENDBRANCH  50  56
ENDBRANCH  43  46
ENDBRANCH  41  43
ENDBRANCH  28  39
ENDBRANCH  23  25
BRANCH  23  63
ATOM     63  N11 MOL d          19.103 -17.501  21.948  0.00  0.00    -0.301 N 
ATOM     64  H7  MOL d          18.912 -17.665  22.916  0.00  0.00     0.173 HD
BRANCH  63  65
ATOM     65  S8  MOL d          20.119 -16.377  21.526  0.00  0.00     0.259 S 
ATOM     66  O1  MOL d          19.321 -15.598  21.076  0.00  0.00    -0.201 OA
ATOM     67  O10 MOL d          21.060 -16.761  21.022  0.00  0.00    -0.201 OA
BRANCH  65  68
ATOM     68  C35 MOL d          20.590 -15.576  22.983  0.00  0.00     0.081 A 
ATOM     69  C7  MOL d          20.820 -14.229  23.057  0.00  0.00    -0.058 A 
ATOM     70  C6  MOL d          21.156 -13.601  24.259  0.00  0.00    -0.048 A 
ATOM     71  H4  MOL d          20.740 -13.631  22.155  0.00  0.00     0.086 H 
ATOM     72  C5  MOL d          21.183 -14.342  25.416  0.00  0.00     0.089 A 
ATOM     73  H6  MOL d          21.392 -12.542  24.279  0.00  0.00     0.087 H 
ATOM     74  C4  MOL d          20.882 -15.649  25.314  0.00  0.00     0.068 A 
ATOM     75 CL   MOL d          20.839 -16.566  26.814  0.00  0.00    -0.081 Cl
ATOM     76  C3  MOL d          20.606 -16.277  24.207  0.00  0.00    -0.037 A 
ATOM     77  H5  MOL d          20.388 -17.339  24.226  0.00  0.00     0.088 H 
BRANCH  72  78
ATOM     78  O9  MOL d          21.573 -13.814  26.586  0.00  0.00    -0.354 OA
BRANCH  78  79
ATOM     79  C10 MOL d          20.897 -12.761  27.103  0.00  0.00     0.010 C 
ATOM     80  H1  MOL d          21.267 -12.551  28.118  0.00  0.00     0.066 H 
ATOM     81  H2  MOL d          19.824 -13.000  27.146  0.00  0.00     0.066 H 
ATOM     82  H3  MOL d          21.052 -11.878  26.467  0.00  0.00     0.066 H 
ENDBRANCH  78  79
ENDBRANCH  72  78
ENDBRANCH  65  68
ENDBRANCH  63  65
ENDBRANCH  23  63
ENDBRANCH  20  23
ENDBRANCH  17  20
ENDBRANCH  13  16
ENDBRANCH   1  13
TORSDOF 16
ENDMDL
MODEL 5
REMARK VINA RESULT:      -4.6      2.713      7.083
REMARK  16 active torsions:
REMARK  status: ('A' for Active; 'I' for Inactive)
REMARK    1  A    between atoms: S8_1  and  C35_3 
REMARK    2  A    between atoms: N11_14  and  S8_1 
REMARK    3  A    between atoms: O9_5  and  C10_4 
REMARK    4  A    between atoms: C5_6  and  O9_5 
REMARK    5  A    between atoms: C45_25  and  C13_13 
REMARK       I    between atoms: C13_13  and  N15_30 
REMARK    6  A    between atoms: C45_25  and  N11_14 
REMARK    7  A    between atoms: C15_16  and  C31_17 
REMARK    8  A    between atoms: N14_29  and  C15_16 
REMARK    9  A    between atoms: C12_26  and  C45_25 
REMARK   10  A    between atoms: C46_27  and  C12_26 
REMARK       I    between atoms: C46_27  and  N14_29 
REMARK   11  A    between atoms: C16_31  and  C17_32 
REMARK       I    between atoms: C17_32  and  N19_37 
REMARK   12  A    between atoms: N19_37  and  C20_38 
REMARK   13  A    between atoms: C20_38  and  C21_39 
REMARK   14  A    between atoms: C24_42  and  C27_43 
REMARK   15  A    between atoms: C27_43  and  N29_44 
REMARK   16  A    between atoms: C27_43  and  N28_45 
ROOT
ATOM      1  C31 MOL d          14.412 -13.719  21.626  0.00  0.00    -0.040 A 
ATOM      2  C32 MOL d          15.382 -13.086  20.985  0.00  0.00    -0.074 A 
ATOM      3  C33 MOL d          15.228 -11.779  20.762  0.00  0.00    -0.062 A 
ATOM      4  C44 MOL d          14.136 -11.057  21.107  0.00  0.00     0.044 A 
ATOM      5  C8  MOL d          13.125 -11.701  21.771  0.00  0.00    -0.062 A 
ATOM      6  C9  MOL d          13.320 -12.989  21.918  0.00  0.00    -0.074 A 
ATOM      7  C40 MOL d          14.126  -9.869  20.882  0.00  0.00     0.099 C 
ATOM      8  N63 MOL d          14.147  -8.768  20.806  0.00  0.00    -0.191 NA
ATOM      9  H10 MOL d          16.270 -13.610  20.653  0.00  0.00     0.084 H 
ATOM     10  H11 MOL d          16.038 -11.256  20.267  0.00  0.00     0.085 H 
ATOM     11  H12 MOL d          12.243 -11.191  22.141  0.00  0.00     0.085 H 
ATOM     12  H13 MOL d          12.485 -13.543  22.331  0.00  0.00     0.084 H 
ENDROOT
BRANCH   1  13
ATOM     13  C15 MOL d          14.525 -15.118  21.896  0.00  0.00     0.019 C 
ATOM     14  H8  MOL d          14.120 -15.660  21.028  0.00  0.00     0.071 H 
ATOM     15  H9  MOL d          13.915 -15.338  22.783  0.00  0.00     0.071 H 
BRANCH  13  16
ATOM     16  N14 MOL d          15.908 -15.638  22.152  0.00  0.00    -0.357 N 
ATOM     17  C46 MOL d          16.333 -16.880  22.315  0.00  0.00     0.220 C 
ATOM     18  O22 MOL d          15.660 -17.798  22.386  0.00  0.00    -0.274 OA
ATOM     19  H17 MOL d          16.619 -14.937  22.210  0.00  0.00     0.162 HD
BRANCH  17  20
ATOM     20  C12 MOL d          17.857 -17.132  22.596  0.00  0.00     0.037 C 
ATOM     21  H15 MOL d          18.188 -16.410  23.357  0.00  0.00     0.051 H 
ATOM     22  H16 MOL d          17.969 -18.154  22.985  0.00  0.00     0.051 H 
BRANCH  20  23
ATOM     23  C45 MOL d          18.814 -16.978  21.311  0.00  0.00     0.105 C 
ATOM     24  H14 MOL d          18.230 -16.584  20.466  0.00  0.00     0.089 H 
BRANCH  23  25
ATOM     25  C13 MOL d          19.907 -15.934  21.761  0.00  0.00     0.244 C 
ATOM     26  O14 MOL d          20.696 -16.321  22.553  0.00  0.00    -0.271 OA
ATOM     27  N15 MOL d          19.842 -14.774  21.238  0.00  0.00    -0.337 N 
ATOM     28  C16 MOL d          20.593 -13.733  21.791  0.00  0.00     0.091 C 
ATOM     29  C2  MOL d          18.828 -14.276  20.311  0.00  0.00    -0.001 C 
ATOM     30  C34 MOL d          20.093 -12.458  21.133  0.00  0.00    -0.036 C 
ATOM     31  H18 MOL d          21.679 -13.883  21.703  0.00  0.00     0.087 H 
ATOM     32  C1  MOL d          19.103 -12.849  20.085  0.00  0.00    -0.048 C 
ATOM     33  H19 MOL d          20.934 -11.919  20.673  0.00  0.00     0.036 H 
ATOM     34  H20 MOL d          19.611 -11.814  21.883  0.00  0.00     0.036 H 
ATOM     35  H21 MOL d          19.525 -12.694  19.082  0.00  0.00     0.035 H 
ATOM     36  H22 MOL d          18.180 -12.259  20.190  0.00  0.00     0.035 H 
ATOM     37  H23 MOL d          17.827 -14.402  20.747  0.00  0.00     0.064 H 
ATOM     38  H24 MOL d          18.886 -14.826  19.360  0.00  0.00     0.064 H 
BRANCH  28  39
ATOM     39  C17 MOL d          20.086 -13.587  23.276  0.00  0.00     0.240 C 
ATOM     40  O18 MOL d          19.103 -13.016  23.588  0.00  0.00    -0.271 OA
ATOM     41  N19 MOL d          20.937 -14.080  24.228  0.00  0.00    -0.355 N 
ATOM     42  H25 MOL d          21.803 -14.476  23.923  0.00  0.00     0.162 HD
BRANCH  41  43
ATOM     43  C20 MOL d          20.668 -14.064  25.628  0.00  0.00     0.019 C 
ATOM     44  H26 MOL d          20.072 -13.176  25.887  0.00  0.00     0.071 H 
ATOM     45  H27 MOL d          21.612 -14.049  26.192  0.00  0.00     0.071 H 
BRANCH  43  46
ATOM     46  C21 MOL d          19.902 -15.306  25.945  0.00  0.00    -0.040 A 
ATOM     47  C26 MOL d          18.556 -15.332  26.156  0.00  0.00    -0.074 A 
ATOM     48  C25 MOL d          17.880 -16.398  26.446  0.00  0.00    -0.069 A 
ATOM     49  H28 MOL d          18.015 -14.397  26.075  0.00  0.00     0.084 H 
ATOM     50  C24 MOL d          18.427 -17.587  26.596  0.00  0.00     0.007 A 
ATOM     51  H29 MOL d          16.807 -16.307  26.572  0.00  0.00     0.085 H 
ATOM     52  C23 MOL d          19.758 -17.615  26.453  0.00  0.00    -0.069 A 
ATOM     53  C22 MOL d          20.428 -16.499  26.137  0.00  0.00    -0.074 A 
ATOM     54  H34 MOL d          20.295 -18.545  26.595  0.00  0.00     0.085 H 
ATOM     55  H35 MOL d          21.502 -16.585  26.027  0.00  0.00     0.084 H 
BRANCH  50  56
ATOM     56  C27 MOL d          17.703 -18.779  26.911  0.00  0.00     0.102 C 
BRANCH  56  57
ATOM     57  N29 MOL d          16.609 -18.940  26.512  0.00  0.00    -0.385 N 
ATOM     58  H30 MOL d          15.807 -18.577  27.047  0.00  0.00     0.157 HD
ATOM     59  H31 MOL d          16.452 -19.444  25.628  0.00  0.00     0.157 HD
ENDBRANCH  56  57
BRANCH  56  60
ATOM     60  N28 MOL d          18.249 -19.715  27.584  0.00  0.00    -0.385 N 
ATOM     61  H32 MOL d          18.566 -20.573  27.110  0.00  0.00     0.157 HD
ATOM     62  H33 MOL d          18.374 -19.614  28.601  0.00  0.00     0.157 HD
ENDBRANCH  56  60
ENDBRANCH  50  56
ENDBRANCH  43  46
ENDBRANCH  41  43
ENDBRANCH  28  39
ENDBRANCH  23  25
BRANCH  23  63
ATOM     63  N11 MOL d          19.415 -18.115  20.919  0.00  0.00    -0.301 N 
ATOM     64  H7  MOL d          20.004 -18.117  20.110  0.00  0.00     0.173 HD
BRANCH  63  65
ATOM     65  S8  MOL d          19.193 -19.442  21.734  0.00  0.00     0.259 S 
ATOM     66  O1  MOL d          19.301 -20.214  20.819  0.00  0.00    -0.201 OA
ATOM     67  O10 MOL d          18.349 -19.391  22.492  0.00  0.00    -0.201 OA
BRANCH  65  68
ATOM     68  C35 MOL d          20.662 -19.733  22.598  0.00  0.00     0.081 A 
ATOM     69  C7  MOL d          21.902 -19.541  22.051  0.00  0.00    -0.058 A 
ATOM     70  C6  MOL d          23.073 -19.741  22.787  0.00  0.00    -0.048 A 
ATOM     71  H4  MOL d          21.978 -19.225  21.017  0.00  0.00     0.086 H 
ATOM     72  C5  MOL d          22.978 -20.067  24.119  0.00  0.00     0.089 A 
ATOM     73  H6  MOL d          24.044 -19.640  22.315  0.00  0.00     0.087 H 
ATOM     74  C4  MOL d          21.741 -20.178  24.636  0.00  0.00     0.068 A 
ATOM     75 CL   MOL d          21.636 -20.513  26.361  0.00  0.00    -0.081 Cl
ATOM     76  C3  MOL d          20.629 -20.040  23.974  0.00  0.00    -0.037 A 
ATOM     77  H5  MOL d          19.678 -20.162  24.479  0.00  0.00     0.088 H 
BRANCH  72  78
ATOM     78  O9  MOL d          24.061 -20.348  24.859  0.00  0.00    -0.354 OA
BRANCH  78  79
ATOM     79  C10 MOL d          24.249 -19.711  26.038  0.00  0.00     0.010 C 
ATOM     80  H1  MOL d          25.327 -19.635  26.247  0.00  0.00     0.066 H 
ATOM     81  H2  MOL d          23.759 -20.278  26.844  0.00  0.00     0.066 H 
ATOM     82  H3  MOL d          23.816 -18.701  25.984  0.00  0.00     0.066 H 
ENDBRANCH  78  79
ENDBRANCH  72  78
ENDBRANCH  65  68
ENDBRANCH  63  65
ENDBRANCH  23  63
ENDBRANCH  20  23
ENDBRANCH  17  20
ENDBRANCH  13  16
ENDBRANCH   1  13
TORSDOF 16
ENDMDL
MODEL 6
REMARK VINA RESULT:      -4.0      2.945      7.917
REMARK  16 active torsions:
REMARK  status: ('A' for Active; 'I' for Inactive)
REMARK    1  A    between atoms: S8_1  and  C35_3 
REMARK    2  A    between atoms: N11_14  and  S8_1 
REMARK    3  A    between atoms: O9_5  and  C10_4 
REMARK    4  A    between atoms: C5_6  and  O9_5 
REMARK    5  A    between atoms: C45_25  and  C13_13 
REMARK       I    between atoms: C13_13  and  N15_30 
REMARK    6  A    between atoms: C45_25  and  N11_14 
REMARK    7  A    between atoms: C15_16  and  C31_17 
REMARK    8  A    between atoms: N14_29  and  C15_16 
REMARK    9  A    between atoms: C12_26  and  C45_25 
REMARK   10  A    between atoms: C46_27  and  C12_26 
REMARK       I    between atoms: C46_27  and  N14_29 
REMARK   11  A    between atoms: C16_31  and  C17_32 
REMARK       I    between atoms: C17_32  and  N19_37 
REMARK   12  A    between atoms: N19_37  and  C20_38 
REMARK   13  A    between atoms: C20_38  and  C21_39 
REMARK   14  A    between atoms: C24_42  and  C27_43 
REMARK   15  A    between atoms: C27_43  and  N29_44 
REMARK   16  A    between atoms: C27_43  and  N28_45 
ROOT
ATOM      1  C31 MOL d          16.657 -14.075  21.772  0.00  0.00    -0.040 A 
ATOM      2  C32 MOL d          17.292 -13.854  20.632  0.00  0.00    -0.074 A 
ATOM      3  C33 MOL d          16.674 -13.110  19.712  0.00  0.00    -0.062 A 
ATOM      4  C44 MOL d          15.429 -12.596  19.839  0.00  0.00     0.044 A 
ATOM      5  C8  MOL d          14.760 -12.818  21.015  0.00  0.00    -0.062 A 
ATOM      6  C9  MOL d          15.403 -13.591  21.855  0.00  0.00    -0.074 A 
ATOM      7  C40 MOL d          14.986 -11.908  18.949  0.00  0.00     0.099 C 
ATOM      8  N63 MOL d          14.614 -11.174  18.212  0.00  0.00    -0.191 NA
ATOM      9  H10 MOL d          18.279 -14.262  20.452  0.00  0.00     0.084 H 
ATOM     10  H11 MOL d          17.210 -12.903  18.793  0.00  0.00     0.085 H 
ATOM     11  H12 MOL d          13.787 -12.393  21.229  0.00  0.00     0.085 H 
ATOM     12  H13 MOL d          14.849 -13.881  22.741  0.00  0.00     0.084 H 
ENDROOT
BRANCH   1  13
ATOM     13  C15 MOL d          17.272 -14.861  22.794  0.00  0.00     0.019 C 
ATOM     14  H8  MOL d          16.528 -15.589  23.151  0.00  0.00     0.071 H 
ATOM     15  H9  MOL d          17.546 -14.185  23.617  0.00  0.00     0.071 H 
BRANCH  13  16
ATOM     16  N14 MOL d          18.503 -15.622  22.401  0.00  0.00    -0.357 N 
ATOM     17  C46 MOL d          19.686 -15.689  22.989  0.00  0.00     0.220 C 
ATOM     18  O22 MOL d          20.006 -15.065  23.888  0.00  0.00    -0.274 OA
ATOM     19  H17 MOL d          18.416 -16.163  21.564  0.00  0.00     0.162 HD
BRANCH  17  20
ATOM     20  C12 MOL d          20.813 -16.562  22.332  0.00  0.00     0.037 C 
ATOM     21  H15 MOL d          20.984 -16.188  21.311  0.00  0.00     0.051 H 
ATOM     22  H16 MOL d          21.731 -16.440  22.926  0.00  0.00     0.051 H 
BRANCH  20  23
ATOM     23  C45 MOL d          20.481 -18.134  22.241  0.00  0.00     0.105 C 
ATOM     24  H14 MOL d          20.945 -18.554  21.336  0.00  0.00     0.089 H 
BRANCH  23  25
ATOM     25  C13 MOL d          21.140 -18.748  23.535  0.00  0.00     0.244 C 
ATOM     26  O14 MOL d          20.570 -19.664  24.020  0.00  0.00    -0.271 OA
ATOM     27  N15 MOL d          22.217 -18.204  23.943  0.00  0.00    -0.337 N 
ATOM     28  C16 MOL d          22.695 -18.511  25.221  0.00  0.00     0.091 C 
ATOM     29  C2  MOL d          22.884 -17.032  23.383  0.00  0.00    -0.001 C 
ATOM     30  C34 MOL d          23.808 -17.516  25.503  0.00  0.00    -0.036 C 
ATOM     31  H18 MOL d          22.998 -19.561  25.333  0.00  0.00     0.087 H 
ATOM     32  C1  MOL d          24.018 -16.709  24.263  0.00  0.00    -0.048 C 
ATOM     33  H19 MOL d          24.733 -18.052  25.763  0.00  0.00     0.036 H 
ATOM     34  H20 MOL d          23.520 -16.857  26.335  0.00  0.00     0.036 H 
ATOM     35  H21 MOL d          24.968 -16.985  23.782  0.00  0.00     0.035 H 
ATOM     36  H22 MOL d          24.026 -15.635  24.501  0.00  0.00     0.035 H 
ATOM     37  H23 MOL d          22.185 -16.184  23.346  0.00  0.00     0.064 H 
ATOM     38  H24 MOL d          23.247 -17.254  22.369  0.00  0.00     0.064 H 
BRANCH  28  39
ATOM     39  C17 MOL d          21.559 -18.062  26.217  0.00  0.00     0.240 C 
ATOM     40  O18 MOL d          21.301 -18.620  27.222  0.00  0.00    -0.271 OA
ATOM     41  N19 MOL d          20.788 -17.019  25.781  0.00  0.00    -0.355 N 
ATOM     42  H25 MOL d          20.988 -16.633  24.881  0.00  0.00     0.162 HD
BRANCH  41  43
ATOM     43  C20 MOL d          19.718 -16.447  26.529  0.00  0.00     0.019 C 
ATOM     44  H26 MOL d          19.439 -15.472  26.103  0.00  0.00     0.071 H 
ATOM     45  H27 MOL d          20.020 -16.316  27.579  0.00  0.00     0.071 H 
BRANCH  43  46
ATOM     46  C21 MOL d          18.564 -17.391  26.443  0.00  0.00    -0.040 A 
ATOM     47  C26 MOL d          17.693 -17.429  25.397  0.00  0.00    -0.074 A 
ATOM     48  C25 MOL d          16.680 -18.232  25.314  0.00  0.00    -0.069 A 
ATOM     49  H28 MOL d          17.860 -16.740  24.577  0.00  0.00     0.084 H 
ATOM     50  C24 MOL d          16.359 -19.096  26.256  0.00  0.00     0.007 A 
ATOM     51  H29 MOL d          16.063 -18.190  24.423  0.00  0.00     0.085 H 
ATOM     52  C23 MOL d          17.150 -19.069  27.335  0.00  0.00    -0.069 A 
ATOM     53  C22 MOL d          18.200 -18.239  27.384  0.00  0.00    -0.074 A 
ATOM     54  H34 MOL d          16.938 -19.722  28.174  0.00  0.00     0.085 H 
ATOM     55  H35 MOL d          18.808 -18.268  28.281  0.00  0.00     0.084 H 
BRANCH  50  56
ATOM     56  C27 MOL d          15.251 -19.996  26.186  0.00  0.00     0.102 C 
BRANCH  56  57
ATOM     57  N29 MOL d          14.725 -20.379  27.165  0.00  0.00    -0.385 N 
ATOM     58  H30 MOL d          14.977 -21.295  27.561  0.00  0.00     0.157 HD
ATOM     59  H31 MOL d          14.011 -19.797  27.627  0.00  0.00     0.157 HD
ENDBRANCH  56  57
BRANCH  56  60
ATOM     60  N28 MOL d          14.776 -20.359  25.058  0.00  0.00    -0.385 N 
ATOM     61  H32 MOL d          15.367 -20.877  24.392  0.00  0.00     0.157 HD
ATOM     62  H33 MOL d          13.801 -20.134  24.813  0.00  0.00     0.157 HD
ENDBRANCH  56  60
ENDBRANCH  50  56
ENDBRANCH  43  46
ENDBRANCH  41  43
ENDBRANCH  28  39
ENDBRANCH  23  25
BRANCH  23  63
ATOM     63  N11 MOL d          19.169 -18.431  22.223  0.00  0.00    -0.301 N 
ATOM     64  H7  MOL d          18.558 -18.038  22.910  0.00  0.00     0.173 HD
BRANCH  63  65
ATOM     65  S8  MOL d          18.597 -19.395  21.120  0.00  0.00     0.259 S 
ATOM     66  O1  MOL d          18.514 -20.385  21.798  0.00  0.00    -0.201 OA
ATOM     67  O10 MOL d          19.100 -19.300  20.106  0.00  0.00    -0.201 OA
BRANCH  65  68
ATOM     68  C35 MOL d          16.932 -18.976  20.925  0.00  0.00     0.081 A 
ATOM     69  C7  MOL d          15.997 -19.146  21.910  0.00  0.00    -0.058 A 
ATOM     70  C6  MOL d          14.666 -18.757  21.741  0.00  0.00    -0.048 A 
ATOM     71  H4  MOL d          16.298 -19.596  22.849  0.00  0.00     0.086 H 
ATOM     72  C5  MOL d          14.298 -18.117  20.581  0.00  0.00     0.089 A 
ATOM     73  H6  MOL d          13.932 -18.956  22.514  0.00  0.00     0.087 H 
ATOM     74  C4  MOL d          15.262 -17.906  19.666  0.00  0.00     0.068 A 
ATOM     75 CL   MOL d          14.795 -17.011  18.224  0.00  0.00    -0.081 Cl
ATOM     76  C3  MOL d          16.501 -18.290  19.770  0.00  0.00    -0.037 A 
ATOM     77  H5  MOL d          17.202 -18.083  18.970  0.00  0.00     0.088 H 
BRANCH  72  78
ATOM     78  O9  MOL d          13.023 -17.789  20.327  0.00  0.00    -0.354 OA
BRANCH  78  79
ATOM     79  C10 MOL d          12.064 -18.743  20.380  0.00  0.00     0.010 C 
ATOM     80  H1  MOL d          12.334 -19.493  21.137  0.00  0.00     0.066 H 
ATOM     81  H2  MOL d          11.975 -19.229  19.396  0.00  0.00     0.066 H 
ATOM     82  H3  MOL d          11.102 -18.281  20.649  0.00  0.00     0.066 H 
ENDBRANCH  78  79
ENDBRANCH  72  78
ENDBRANCH  65  68
ENDBRANCH  63  65
ENDBRANCH  23  63
ENDBRANCH  20  23
ENDBRANCH  17  20
ENDBRANCH  13  16
ENDBRANCH   1  13
TORSDOF 16
ENDMDL
MODEL 7
REMARK VINA RESULT:      -3.8      2.696      5.707
REMARK  16 active torsions:
REMARK  status: ('A' for Active; 'I' for Inactive)
REMARK    1  A    between atoms: S8_1  and  C35_3 
REMARK    2  A    between atoms: N11_14  and  S8_1 
REMARK    3  A    between atoms: O9_5  and  C10_4 
REMARK    4  A    between atoms: C5_6  and  O9_5 
REMARK    5  A    between atoms: C45_25  and  C13_13 
REMARK       I    between atoms: C13_13  and  N15_30 
REMARK    6  A    between atoms: C45_25  and  N11_14 
REMARK    7  A    between atoms: C15_16  and  C31_17 
REMARK    8  A    between atoms: N14_29  and  C15_16 
REMARK    9  A    between atoms: C12_26  and  C45_25 
REMARK   10  A    between atoms: C46_27  and  C12_26 
REMARK       I    between atoms: C46_27  and  N14_29 
REMARK   11  A    between atoms: C16_31  and  C17_32 
REMARK       I    between atoms: C17_32  and  N19_37 
REMARK   12  A    between atoms: N19_37  and  C20_38 
REMARK   13  A    between atoms: C20_38  and  C21_39 
REMARK   14  A    between atoms: C24_42  and  C27_43 
REMARK   15  A    between atoms: C27_43  and  N29_44 
REMARK   16  A    between atoms: C27_43  and  N28_45 
ROOT
ATOM      1  C31 MOL d          23.167 -19.560  23.280  0.00  0.00    -0.040 A 
ATOM      2  C32 MOL d          23.322 -20.233  24.409  0.00  0.00    -0.074 A 
ATOM      3  C33 MOL d          23.625 -19.539  25.508  0.00  0.00    -0.062 A 
ATOM      4  C44 MOL d          23.826 -18.202  25.549  0.00  0.00     0.044 A 
ATOM      5  C8  MOL d          23.670 -17.493  24.387  0.00  0.00    -0.062 A 
ATOM      6  C9  MOL d          23.417 -18.238  23.339  0.00  0.00    -0.074 A 
ATOM      7  C40 MOL d          24.063 -17.679  26.614  0.00  0.00     0.099 C 
ATOM      8  N63 MOL d          24.151 -17.164  27.587  0.00  0.00    -0.191 NA
ATOM      9  H10 MOL d          23.206 -21.309  24.440  0.00  0.00     0.084 H 
ATOM     10  H11 MOL d          23.717 -20.089  26.438  0.00  0.00     0.085 H 
ATOM     11  H12 MOL d          23.749 -16.413  24.339  0.00  0.00     0.085 H 
ATOM     12  H13 MOL d          23.408 -17.719  22.387  0.00  0.00     0.084 H 
ENDROOT
BRANCH   1  13
ATOM     13  C15 MOL d          22.839 -20.251  22.073  0.00  0.00     0.019 C 
ATOM     14  H8  MOL d          22.922 -21.330  22.271  0.00  0.00     0.071 H 
ATOM     15  H9  MOL d          23.575 -19.960  21.310  0.00  0.00     0.071 H 
BRANCH  13  16
ATOM     16  N14 MOL d          21.473 -19.995  21.509  0.00  0.00    -0.357 N 
ATOM     17  C46 MOL d          20.284 -20.096  22.081  0.00  0.00     0.220 C 
ATOM     18  O22 MOL d          20.094 -20.512  23.125  0.00  0.00    -0.274 OA
ATOM     19  H17 MOL d          21.458 -19.702  20.553  0.00  0.00     0.162 HD
BRANCH  17  20
ATOM     20  C12 MOL d          19.002 -19.781  21.231  0.00  0.00     0.037 C 
ATOM     21  H15 MOL d          19.042 -20.387  20.314  0.00  0.00     0.051 H 
ATOM     22  H16 MOL d          18.120 -20.068  21.823  0.00  0.00     0.051 H 
BRANCH  20  23
ATOM     23  C45 MOL d          18.838 -18.238  20.805  0.00  0.00     0.105 C 
ATOM     24  H14 MOL d          19.549 -18.004  19.999  0.00  0.00     0.089 H 
BRANCH  23  25
ATOM     25  C13 MOL d          17.355 -18.133  20.282  0.00  0.00     0.244 C 
ATOM     26  O14 MOL d          17.204 -18.295  19.120  0.00  0.00    -0.271 OA
ATOM     27  N15 MOL d          16.457 -17.880  21.150  0.00  0.00    -0.337 N 
ATOM     28  C16 MOL d          15.181 -17.499  20.722  0.00  0.00     0.091 C 
ATOM     29  C2  MOL d          16.652 -17.612  22.572  0.00  0.00    -0.001 C 
ATOM     30  C34 MOL d          14.451 -17.012  21.961  0.00  0.00    -0.036 C 
ATOM     31  H18 MOL d          14.651 -18.292  20.175  0.00  0.00     0.087 H 
ATOM     32  C1  MOL d          15.341 -17.254  23.136  0.00  0.00    -0.048 C 
ATOM     33  H19 MOL d          13.509 -17.567  22.084  0.00  0.00     0.036 H 
ATOM     34  H20 MOL d          14.234 -15.937  21.870  0.00  0.00     0.036 H 
ATOM     35  H21 MOL d          14.950 -18.077  23.751  0.00  0.00     0.035 H 
ATOM     36  H22 MOL d          15.423 -16.344  23.749  0.00  0.00     0.035 H 
ATOM     37  H23 MOL d          17.358 -16.780  22.705  0.00  0.00     0.064 H 
ATOM     38  H24 MOL d          17.044 -18.509  23.073  0.00  0.00     0.064 H 
BRANCH  28  39
ATOM     39  C17 MOL d          15.390 -16.177  19.890  0.00  0.00     0.240 C 
ATOM     40  O18 MOL d          15.464 -16.138  18.715  0.00  0.00    -0.271 OA
ATOM     41  N19 MOL d          15.599 -15.051  20.639  0.00  0.00    -0.355 N 
ATOM     42  H25 MOL d          15.617 -15.146  21.634  0.00  0.00     0.162 HD
BRANCH  41  43
ATOM     43  C20 MOL d          15.795 -13.750  20.091  0.00  0.00     0.019 C 
ATOM     44  H26 MOL d          15.579 -13.759  19.012  0.00  0.00     0.071 H 
ATOM     45  H27 MOL d          16.833 -13.425  20.254  0.00  0.00     0.071 H 
BRANCH  43  46
ATOM     46  C21 MOL d          14.854 -12.827  20.794  0.00  0.00    -0.040 A 
ATOM     47  C26 MOL d          13.782 -13.250  21.520  0.00  0.00    -0.074 A 
ATOM     48  C25 MOL d          12.948 -12.463  22.123  0.00  0.00    -0.069 A 
ATOM     49  H28 MOL d          13.615 -14.318  21.599  0.00  0.00     0.084 H 
ATOM     50  C24 MOL d          13.031 -11.148  22.082  0.00  0.00     0.007 A 
ATOM     51  H29 MOL d          12.140 -12.909  22.692  0.00  0.00     0.085 H 
ATOM     52  C23 MOL d          14.036 -10.672  21.337  0.00  0.00    -0.069 A 
ATOM     53  C22 MOL d          14.892 -11.511  20.739  0.00  0.00    -0.074 A 
ATOM     54  H34 MOL d          14.158  -9.601  21.218  0.00  0.00     0.085 H 
ATOM     55  H35 MOL d          15.690 -11.067  20.156  0.00  0.00     0.084 H 
BRANCH  50  56
ATOM     56  C27 MOL d          12.128 -10.258  22.742  0.00  0.00     0.102 C 
BRANCH  56  57
ATOM     57  N29 MOL d          12.383  -9.116  22.853  0.00  0.00    -0.385 N 
ATOM     58  H30 MOL d          13.042  -8.804  23.581  0.00  0.00     0.157 HD
ATOM     59  H31 MOL d          11.948  -8.428  22.223  0.00  0.00     0.157 HD
ENDBRANCH  56  57
BRANCH  56  60
ATOM     60  N28 MOL d          11.002 -10.675  23.177  0.00  0.00    -0.385 N 
ATOM     61  H32 MOL d          10.699 -11.640  22.979  0.00  0.00     0.157 HD
ATOM     62  H33 MOL d          10.397 -10.048  23.725  0.00  0.00     0.157 HD
ENDBRANCH  56  60
ENDBRANCH  50  56
ENDBRANCH  43  46
ENDBRANCH  41  43
ENDBRANCH  28  39
ENDBRANCH  23  25
BRANCH  23  63
ATOM     63  N11 MOL d          19.024 -17.357  21.804  0.00  0.00    -0.301 N 
ATOM     64  H7  MOL d          18.429 -17.379  22.608  0.00  0.00     0.173 HD
BRANCH  63  65
ATOM     65  S8  MOL d          20.177 -16.291  21.708  0.00  0.00     0.259 S 
ATOM     66  O1  MOL d          19.614 -15.508  20.990  0.00  0.00    -0.201 OA
ATOM     67  O10 MOL d          21.212 -16.732  21.562  0.00  0.00    -0.201 OA
BRANCH  65  68
ATOM     68  C35 MOL d          20.174 -15.436  23.210  0.00  0.00     0.081 A 
ATOM     69  C7  MOL d          20.790 -14.226  23.384  0.00  0.00    -0.058 A 
ATOM     70  C6  MOL d          20.734 -13.536  24.597  0.00  0.00    -0.048 A 
ATOM     71  H4  MOL d          21.338 -13.791  22.556  0.00  0.00     0.086 H 
ATOM     72  C5  MOL d          19.976 -14.048  25.624  0.00  0.00     0.089 A 
ATOM     73  H6  MOL d          21.280 -12.608  24.728  0.00  0.00     0.087 H 
ATOM     74  C4  MOL d          19.329 -15.204  25.390  0.00  0.00     0.068 A 
ATOM     75 CL   MOL d          18.298 -15.803  26.683  0.00  0.00    -0.081 Cl
ATOM     76  C3  MOL d          19.391 -15.896  24.289  0.00  0.00    -0.037 A 
ATOM     77  H5  MOL d          18.840 -16.826  24.202  0.00  0.00     0.088 H 
BRANCH  72  78
ATOM     78  O9  MOL d          19.945 -13.473  26.835  0.00  0.00    -0.354 OA
BRANCH  78  79
ATOM     79  C10 MOL d          20.957 -12.659  27.216  0.00  0.00     0.010 C 
ATOM     80  H1  MOL d          20.570 -11.642  27.375  0.00  0.00     0.066 H 
ATOM     81  H2  MOL d          21.728 -12.640  26.431  0.00  0.00     0.066 H 
ATOM     82  H3  MOL d          21.397 -13.033  28.152  0.00  0.00     0.066 H 
ENDBRANCH  78  79
ENDBRANCH  72  78
ENDBRANCH  65  68
ENDBRANCH  63  65
ENDBRANCH  23  63
ENDBRANCH  20  23
ENDBRANCH  17  20
ENDBRANCH  13  16
ENDBRANCH   1  13
TORSDOF 16
ENDMDL
MODEL 8
REMARK VINA RESULT:      -3.7      1.925      2.349
REMARK  16 active torsions:
REMARK  status: ('A' for Active; 'I' for Inactive)
REMARK    1  A    between atoms: S8_1  and  C35_3 
REMARK    2  A    between atoms: N11_14  and  S8_1 
REMARK    3  A    between atoms: O9_5  and  C10_4 
REMARK    4  A    between atoms: C5_6  and  O9_5 
REMARK    5  A    between atoms: C45_25  and  C13_13 
REMARK       I    between atoms: C13_13  and  N15_30 
REMARK    6  A    between atoms: C45_25  and  N11_14 
REMARK    7  A    between atoms: C15_16  and  C31_17 
REMARK    8  A    between atoms: N14_29  and  C15_16 
REMARK    9  A    between atoms: C12_26  and  C45_25 
REMARK   10  A    between atoms: C46_27  and  C12_26 
REMARK       I    between atoms: C46_27  and  N14_29 
REMARK   11  A    between atoms: C16_31  and  C17_32 
REMARK       I    between atoms: C17_32  and  N19_37 
REMARK   12  A    between atoms: N19_37  and  C20_38 
REMARK   13  A    between atoms: C20_38  and  C21_39 
REMARK   14  A    between atoms: C24_42  and  C27_43 
REMARK   15  A    between atoms: C27_43  and  N29_44 
REMARK   16  A    between atoms: C27_43  and  N28_45 
ROOT
ATOM      1  C31 MOL d          20.798 -17.392  22.292  0.00  0.00    -0.040 A 
ATOM      2  C32 MOL d          22.111 -17.553  22.339  0.00  0.00    -0.074 A 
ATOM      3  C33 MOL d          22.617 -18.222  23.377  0.00  0.00    -0.062 A 
ATOM      4  C44 MOL d          21.893 -18.715  24.408  0.00  0.00     0.044 A 
ATOM      5  C8  MOL d          20.532 -18.555  24.372  0.00  0.00    -0.062 A 
ATOM      6  C9  MOL d          20.106 -17.853  23.351  0.00  0.00    -0.074 A 
ATOM      7  C40 MOL d          22.461 -19.335  25.278  0.00  0.00     0.099 C 
ATOM      8  N63 MOL d          22.935 -20.011  26.011  0.00  0.00    -0.191 NA
ATOM      9  H10 MOL d          22.753 -17.156  21.562  0.00  0.00     0.084 H 
ATOM     10  H11 MOL d          23.689 -18.382  23.396  0.00  0.00     0.085 H 
ATOM     11  H12 MOL d          19.869 -18.971  25.121  0.00  0.00     0.085 H 
ATOM     12  H13 MOL d          19.050 -17.608  23.360  0.00  0.00     0.084 H 
ENDROOT
BRANCH   1  13
ATOM     13  C15 MOL d          20.201 -16.688  21.201  0.00  0.00     0.019 C 
ATOM     14  H8  MOL d          20.353 -17.287  20.291  0.00  0.00     0.071 H 
ATOM     15  H9  MOL d          20.724 -15.726  21.097  0.00  0.00     0.071 H 
BRANCH  13  16
ATOM     16  N14 MOL d          18.735 -16.399  21.317  0.00  0.00    -0.357 N 
ATOM     17  C46 MOL d          17.692 -17.163  21.035  0.00  0.00     0.220 C 
ATOM     18  O22 MOL d          17.748 -18.188  20.538  0.00  0.00    -0.274 OA
ATOM     19  H17 MOL d          18.509 -15.487  21.661  0.00  0.00     0.162 HD
BRANCH  17  20
ATOM     20  C12 MOL d          16.247 -16.583  21.237  0.00  0.00     0.037 C 
ATOM     21  H15 MOL d          15.702 -17.254  21.917  0.00  0.00     0.051 H 
ATOM     22  H16 MOL d          16.339 -15.588  21.697  0.00  0.00     0.051 H 
BRANCH  20  23
ATOM     23  C45 MOL d          15.386 -16.432  19.885  0.00  0.00     0.105 C 
ATOM     24  H14 MOL d          14.317 -16.385  20.137  0.00  0.00     0.089 H 
BRANCH  23  25
ATOM     25  C13 MOL d          15.870 -15.066  19.265  0.00  0.00     0.244 C 
ATOM     26  O14 MOL d          16.432 -15.140  18.226  0.00  0.00    -0.271 OA
ATOM     27  N15 MOL d          15.617 -14.011  19.934  0.00  0.00    -0.337 N 
ATOM     28  C16 MOL d          16.253 -12.815  19.588  0.00  0.00     0.091 C 
ATOM     29  C2  MOL d          14.983 -13.926  21.247  0.00  0.00    -0.001 C 
ATOM     30  C34 MOL d          15.961 -11.842  20.718  0.00  0.00    -0.036 C 
ATOM     31  H18 MOL d          15.969 -12.441  18.594  0.00  0.00     0.087 H 
ATOM     32  C1  MOL d          15.021 -12.516  21.662  0.00  0.00    -0.048 C 
ATOM     33  H19 MOL d          15.499 -10.928  20.316  0.00  0.00     0.036 H 
ATOM     34  H20 MOL d          16.895 -11.583  21.239  0.00  0.00     0.036 H 
ATOM     35  H21 MOL d          14.019 -12.068  21.590  0.00  0.00     0.035 H 
ATOM     36  H22 MOL d          15.388 -12.430  22.696  0.00  0.00     0.035 H 
ATOM     37  H23 MOL d          15.533 -14.546  21.970  0.00  0.00     0.064 H 
ATOM     38  H24 MOL d          13.941 -14.273  21.184  0.00  0.00     0.064 H 
BRANCH  28  39
ATOM     39  C17 MOL d          17.796 -13.093  19.750  0.00  0.00     0.240 C 
ATOM     40  O18 MOL d          18.327 -14.092  19.422  0.00  0.00    -0.271 OA
ATOM     41  N19 MOL d          18.491 -12.121  20.417  0.00  0.00    -0.355 N 
ATOM     42  H25 MOL d          17.982 -11.330  20.756  0.00  0.00     0.162 HD
BRANCH  41  43
ATOM     43  C20 MOL d          19.895 -12.165  20.661  0.00  0.00     0.019 C 
ATOM     44  H26 MOL d          20.293 -11.143  20.754  0.00  0.00     0.071 H 
ATOM     45  H27 MOL d          20.404 -12.683  19.835  0.00  0.00     0.071 H 
BRANCH  43  46
ATOM     46  C21 MOL d          20.099 -12.912  21.938  0.00  0.00    -0.040 A 
ATOM     47  C26 MOL d          19.107 -13.156  22.839  0.00  0.00    -0.074 A 
ATOM     48  C25 MOL d          19.271 -13.789  23.957  0.00  0.00    -0.069 A 
ATOM     49  H28 MOL d          18.113 -12.794  22.605  0.00  0.00     0.084 H 
ATOM     50  C24 MOL d          20.435 -14.254  24.365  0.00  0.00     0.007 A 
ATOM     51  H29 MOL d          18.405 -13.945  24.591  0.00  0.00     0.085 H 
ATOM     52  C23 MOL d          21.460 -13.999  23.543  0.00  0.00    -0.069 A 
ATOM     53  C22 MOL d          21.256 -13.355  22.386  0.00  0.00    -0.074 A 
ATOM     54  H34 MOL d          22.461 -14.314  23.817  0.00  0.00     0.085 H 
ATOM     55  H35 MOL d          22.124 -13.184  21.760  0.00  0.00     0.084 H 
BRANCH  50  56
ATOM     56  C27 MOL d          20.641 -14.961  25.590  0.00  0.00     0.102 C 
BRANCH  56  57
ATOM     57  N29 MOL d          19.732 -15.410  26.185  0.00  0.00    -0.385 N 
ATOM     58  H30 MOL d          19.414 -14.963  27.056  0.00  0.00     0.157 HD
ATOM     59  H31 MOL d          19.253 -16.252  25.834  0.00  0.00     0.157 HD
ENDBRANCH  56  57
BRANCH  56  60
ATOM     60  N28 MOL d          21.820 -15.166  26.034  0.00  0.00    -0.385 N 
ATOM     61  H32 MOL d          21.993 -15.931  26.701  0.00  0.00     0.157 HD
ATOM     62  H33 MOL d          22.598 -14.566  25.725  0.00  0.00     0.157 HD
ENDBRANCH  56  60
ENDBRANCH  50  56
ENDBRANCH  43  46
ENDBRANCH  41  43
ENDBRANCH  28  39
ENDBRANCH  23  25
BRANCH  23  63
ATOM     63  N11 MOL d          15.569 -17.420  18.990  0.00  0.00    -0.301 N 
ATOM     64  H7  MOL d          16.420 -17.469  18.466  0.00  0.00     0.173 HD
BRANCH  63  65
ATOM     65  S8  MOL d          14.444 -18.497  18.768  0.00  0.00     0.259 S 
ATOM     66  O1  MOL d          15.157 -19.410  18.446  0.00  0.00    -0.201 OA
ATOM     67  O10 MOL d          13.530 -18.113  18.215  0.00  0.00    -0.201 OA
BRANCH  65  68
ATOM     68  C35 MOL d          13.937 -19.000  20.342  0.00  0.00     0.081 A 
ATOM     69  C7  MOL d          12.622 -19.133  20.697  0.00  0.00    -0.058 A 
ATOM     70  C6  MOL d          12.241 -19.585  21.963  0.00  0.00    -0.048 A 
ATOM     71  H4  MOL d          11.853 -18.880  19.976  0.00  0.00     0.086 H 
ATOM     72  C5  MOL d          13.211 -19.979  22.853  0.00  0.00     0.089 A 
ATOM     73  H6  MOL d          11.193 -19.625  22.240  0.00  0.00     0.087 H 
ATOM     74  C4  MOL d          14.489 -19.899  22.441  0.00  0.00     0.068 A 
ATOM     75 CL   MOL d          15.715 -20.485  23.559  0.00  0.00    -0.081 Cl
ATOM     76  C3  MOL d          14.885 -19.445  21.286  0.00  0.00    -0.037 A 
ATOM     77  H5  MOL d          15.943 -19.409  21.052  0.00  0.00     0.088 H 
BRANCH  72  78
ATOM     78  O9  MOL d          12.914 -20.348  24.108  0.00  0.00    -0.354 OA
BRANCH  78  79
ATOM     79  C10 MOL d          13.702 -19.937  25.130  0.00  0.00     0.010 C 
ATOM     80  H1  MOL d          13.267 -19.038  25.590  0.00  0.00     0.066 H 
ATOM     81  H2  MOL d          14.707 -19.704  24.748  0.00  0.00     0.066 H 
ATOM     82  H3  MOL d          13.772 -20.736  25.883  0.00  0.00     0.066 H 
ENDBRANCH  78  79
ENDBRANCH  72  78
ENDBRANCH  65  68
ENDBRANCH  63  65
ENDBRANCH  23  63
ENDBRANCH  20  23
ENDBRANCH  17  20
ENDBRANCH  13  16
ENDBRANCH   1  13
TORSDOF 16
ENDMDL
MODEL 9
REMARK VINA RESULT:      -3.4      3.029      6.184
REMARK  16 active torsions:
REMARK  status: ('A' for Active; 'I' for Inactive)
REMARK    1  A    between atoms: S8_1  and  C35_3 
REMARK    2  A    between atoms: N11_14  and  S8_1 
REMARK    3  A    between atoms: O9_5  and  C10_4 
REMARK    4  A    between atoms: C5_6  and  O9_5 
REMARK    5  A    between atoms: C45_25  and  C13_13 
REMARK       I    between atoms: C13_13  and  N15_30 
REMARK    6  A    between atoms: C45_25  and  N11_14 
REMARK    7  A    between atoms: C15_16  and  C31_17 
REMARK    8  A    between atoms: N14_29  and  C15_16 
REMARK    9  A    between atoms: C12_26  and  C45_25 
REMARK   10  A    between atoms: C46_27  and  C12_26 
REMARK       I    between atoms: C46_27  and  N14_29 
REMARK   11  A    between atoms: C16_31  and  C17_32 
REMARK       I    between atoms: C17_32  and  N19_37 
REMARK   12  A    between atoms: N19_37  and  C20_38 
REMARK   13  A    between atoms: C20_38  and  C21_39 
REMARK   14  A    between atoms: C24_42  and  C27_43 
REMARK   15  A    between atoms: C27_43  and  N29_44 
REMARK   16  A    between atoms: C27_43  and  N28_45 
ROOT
ATOM      1  C31 MOL d          19.298 -20.119  19.124  0.00  0.00    -0.040 A 
ATOM      2  C32 MOL d          19.775 -19.753  20.303  0.00  0.00    -0.074 A 
ATOM      3  C33 MOL d          21.101 -19.727  20.455  0.00  0.00    -0.062 A 
ATOM      4  C44 MOL d          21.996 -20.085  19.505  0.00  0.00     0.044 A 
ATOM      5  C8  MOL d          21.516 -20.467  18.280  0.00  0.00    -0.062 A 
ATOM      6  C9  MOL d          20.207 -20.513  18.213  0.00  0.00    -0.074 A 
ATOM      7  C40 MOL d          23.177 -19.987  19.749  0.00  0.00     0.099 C 
ATOM      8  N63 MOL d          24.251 -19.784  19.900  0.00  0.00    -0.191 NA
ATOM      9  H10 MOL d          19.112 -19.484  21.117  0.00  0.00     0.084 H 
ATOM     10  H11 MOL d          21.489 -19.395  21.410  0.00  0.00     0.085 H 
ATOM     11  H12 MOL d          22.159 -20.709  17.443  0.00  0.00     0.085 H 
ATOM     12  H13 MOL d          19.801 -20.926  17.296  0.00  0.00     0.084 H 
ENDROOT
BRANCH   1  13
ATOM     13  C15 MOL d          17.886 -20.162  18.904  0.00  0.00     0.019 C 
ATOM     14  H8  MOL d          17.524 -21.144  19.242  0.00  0.00     0.071 H 
ATOM     15  H9  MOL d          17.713 -20.060  17.823  0.00  0.00     0.071 H 
BRANCH  13  16
ATOM     16  N14 MOL d          17.071 -19.111  19.597  0.00  0.00    -0.357 N 
ATOM     17  C46 MOL d          16.066 -19.239  20.448  0.00  0.00     0.220 C 
ATOM     18  O22 MOL d          15.568 -20.225  20.729  0.00  0.00    -0.274 OA
ATOM     19  H17 MOL d          17.327 -18.168  19.384  0.00  0.00     0.162 HD
BRANCH  17  20
ATOM     20  C12 MOL d          15.376 -17.945  21.008  0.00  0.00     0.037 C 
ATOM     21  H15 MOL d          15.201 -17.258  20.166  0.00  0.00     0.051 H 
ATOM     22  H16 MOL d          14.411 -18.236  21.450  0.00  0.00     0.051 H 
BRANCH  20  23
ATOM     23  C45 MOL d          16.223 -17.160  22.128  0.00  0.00     0.105 C 
ATOM     24  H14 MOL d          15.868 -16.121  22.193  0.00  0.00     0.089 H 
BRANCH  23  25
ATOM     25  C13 MOL d          15.914 -17.934  23.467  0.00  0.00     0.244 C 
ATOM     26  O14 MOL d          14.953 -17.580  24.059  0.00  0.00    -0.271 OA
ATOM     27  N15 MOL d          16.724 -18.863  23.791  0.00  0.00    -0.337 N 
ATOM     28  C16 MOL d          16.672 -19.393  25.084  0.00  0.00     0.091 C 
ATOM     29  C2  MOL d          17.947 -19.255  23.096  0.00  0.00    -0.001 C 
ATOM     30  C34 MOL d          17.912 -20.256  25.234  0.00  0.00    -0.036 C 
ATOM     31  H18 MOL d          15.732 -19.921  25.301  0.00  0.00     0.087 H 
ATOM     32  C1  MOL d          18.606 -20.286  23.912  0.00  0.00    -0.048 C 
ATOM     33  H19 MOL d          17.625 -21.276  25.531  0.00  0.00     0.036 H 
ATOM     34  H20 MOL d          18.578 -19.826  25.998  0.00  0.00     0.036 H 
ATOM     35  H21 MOL d          18.496 -21.274  23.443  0.00  0.00     0.035 H 
ATOM     36  H22 MOL d          19.674 -20.054  24.034  0.00  0.00     0.035 H 
ATOM     37  H23 MOL d          18.610 -18.385  22.982  0.00  0.00     0.064 H 
ATOM     38  H24 MOL d          17.702 -19.660  22.103  0.00  0.00     0.064 H 
BRANCH  28  39
ATOM     39  C17 MOL d          16.963 -18.182  26.050  0.00  0.00     0.240 C 
ATOM     40  O18 MOL d          16.988 -18.263  27.226  0.00  0.00    -0.271 OA
ATOM     41  N19 MOL d          17.080 -16.966  25.433  0.00  0.00    -0.355 N 
ATOM     42  H25 MOL d          16.963 -16.931  24.441  0.00  0.00     0.162 HD
BRANCH  41  43
ATOM     43  C20 MOL d          17.358 -15.746  26.116  0.00  0.00     0.019 C 
ATOM     44  H26 MOL d          17.277 -15.895  27.203  0.00  0.00     0.071 H 
ATOM     45  H27 MOL d          16.648 -14.967  25.798  0.00  0.00     0.071 H 
BRANCH  43  46
ATOM     46  C21 MOL d          18.751 -15.345  25.756  0.00  0.00    -0.040 A 
ATOM     47  C26 MOL d          19.094 -14.097  25.332  0.00  0.00    -0.074 A 
ATOM     48  C25 MOL d          20.294 -13.737  25.003  0.00  0.00    -0.069 A 
ATOM     49  H28 MOL d          18.309 -13.353  25.266  0.00  0.00     0.084 H 
ATOM     50  C24 MOL d          21.327 -14.556  25.018  0.00  0.00     0.007 A 
ATOM     51  H29 MOL d          20.458 -12.710  24.699  0.00  0.00     0.085 H 
ATOM     52  C23 MOL d          21.041 -15.814  25.377  0.00  0.00    -0.069 A 
ATOM     53  C22 MOL d          19.793 -16.150  25.728  0.00  0.00    -0.074 A 
ATOM     54  H34 MOL d          21.825 -16.563  25.383  0.00  0.00     0.085 H 
ATOM     55  H35 MOL d          19.625 -17.181  26.016  0.00  0.00     0.084 H 
BRANCH  50  56
ATOM     56  C27 MOL d          22.661 -14.184  24.666  0.00  0.00     0.102 C 
BRANCH  56  57
ATOM     57  N29 MOL d          23.073 -13.112  24.919  0.00  0.00    -0.385 N 
ATOM     58  H30 MOL d          23.926 -13.010  25.488  0.00  0.00     0.157 HD
ATOM     59  H31 MOL d          22.581 -12.276  24.573  0.00  0.00     0.157 HD
ENDBRANCH  56  57
BRANCH  56  60
ATOM     60  N28 MOL d          23.449 -15.025  24.117  0.00  0.00    -0.385 N 
ATOM     61  H32 MOL d          23.445 -15.144  23.094  0.00  0.00     0.157 HD
ATOM     62  H33 MOL d          24.090 -15.585  24.698  0.00  0.00     0.157 HD
ENDBRANCH  56  60
ENDBRANCH  50  56
ENDBRANCH  43  46
ENDBRANCH  41  43
ENDBRANCH  28  39
ENDBRANCH  23  25
BRANCH  23  63
ATOM     63  N11 MOL d          17.552 -17.143  21.918  0.00  0.00    -0.301 N 
ATOM     64  H7  MOL d          18.111 -17.927  22.188  0.00  0.00     0.173 HD
BRANCH  63  65
ATOM     65  S8  MOL d          18.225 -15.890  21.246  0.00  0.00     0.259 S 
ATOM     66  O1  MOL d          18.175 -16.271  20.107  0.00  0.00    -0.201 OA
ATOM     67  O10 MOL d          19.135 -15.495  21.796  0.00  0.00    -0.201 OA
BRANCH  65  68
ATOM     68  C35 MOL d          17.029 -14.642  21.239  0.00  0.00     0.081 A 
ATOM     69  C7  MOL d          16.579 -14.030  22.378  0.00  0.00    -0.058 A 
ATOM     70  C6  MOL d          15.644 -12.992  22.338  0.00  0.00    -0.048 A 
ATOM     71  H4  MOL d          16.959 -14.361  23.338  0.00  0.00     0.086 H 
ATOM     72  C5  MOL d          15.219 -12.521  21.120  0.00  0.00     0.089 A 
ATOM     73  H6  MOL d          15.259 -12.565  23.257  0.00  0.00     0.087 H 
ATOM     74  C4  MOL d          15.738 -13.101  20.023  0.00  0.00     0.068 A 
ATOM     75 CL   MOL d          15.248 -12.431  18.471  0.00  0.00    -0.081 Cl
ATOM     76  C3  MOL d          16.577 -14.096  20.019  0.00  0.00    -0.037 A 
ATOM     77  H5  MOL d          16.930 -14.505  19.079  0.00  0.00     0.088 H 
BRANCH  72  78
ATOM     78  O9  MOL d          14.267 -11.582  21.017  0.00  0.00    -0.354 OA
BRANCH  78  79
ATOM     79  C10 MOL d          12.966 -11.952  20.947  0.00  0.00     0.010 C 
ATOM     80  H1  MOL d          12.365 -11.307  21.604  0.00  0.00     0.066 H 
ATOM     81  H2  MOL d          12.866 -13.000  21.269  0.00  0.00     0.066 H 
ATOM     82  H3  MOL d          12.611 -11.852  19.910  0.00  0.00     0.066 H 
ENDBRANCH  78  79
ENDBRANCH  72  78
ENDBRANCH  65  68
ENDBRANCH  63  65
ENDBRANCH  23  63
ENDBRANCH  20  23
ENDBRANCH  17  20
ENDBRANCH  13  16
ENDBRANCH   1  13
TORSDOF 16
ENDMDL
MODEL 10
REMARK VINA RESULT:      -3.2      2.742      7.003
REMARK  16 active torsions:
REMARK  status: ('A' for Active; 'I' for Inactive)
REMARK    1  A    between atoms: S8_1  and  C35_3 
REMARK    2  A    between atoms: N11_14  and  S8_1 
REMARK    3  A    between atoms: O9_5  and  C10_4 
REMARK    4  A    between atoms: C5_6  and  O9_5 
REMARK    5  A    between atoms: C45_25  and  C13_13 
REMARK       I    between atoms: C13_13  and  N15_30 
REMARK    6  A    between atoms: C45_25  and  N11_14 
REMARK    7  A    between atoms: C15_16  and  C31_17 
REMARK    8  A    between atoms: N14_29  and  C15_16 
REMARK    9  A    between atoms: C12_26  and  C45_25 
REMARK   10  A    between atoms: C46_27  and  C12_26 
REMARK       I    between atoms: C46_27  and  N14_29 
REMARK   11  A    between atoms: C16_31  and  C17_32 
REMARK       I    between atoms: C17_32  and  N19_37 
REMARK   12  A    between atoms: N19_37  and  C20_38 
REMARK   13  A    between atoms: C20_38  and  C21_39 
REMARK   14  A    between atoms: C24_42  and  C27_43 
REMARK   15  A    between atoms: C27_43  and  N29_44 
REMARK   16  A    between atoms: C27_43  and  N28_45 
ROOT
ATOM      1  C31 MOL d          12.352 -12.976  22.036  0.00  0.00    -0.040 A 
ATOM      2  C32 MOL d          12.654 -11.852  21.405  0.00  0.00    -0.074 A 
ATOM      3  C33 MOL d          12.347 -10.701  22.007  0.00  0.00    -0.062 A 
ATOM      4  C44 MOL d          11.713 -10.595  23.198  0.00  0.00     0.044 A 
ATOM      5  C8  MOL d          11.394 -11.751  23.861  0.00  0.00    -0.062 A 
ATOM      6  C9  MOL d          11.683 -12.843  23.196  0.00  0.00    -0.074 A 
ATOM      7  C40 MOL d          11.518  -9.494  23.660  0.00  0.00     0.099 C 
ATOM      8  N63 MOL d          11.446  -8.513  24.161  0.00  0.00    -0.191 NA
ATOM      9  H10 MOL d          13.134 -11.866  20.434  0.00  0.00     0.084 H 
ATOM     10  H11 MOL d          12.626  -9.783  21.504  0.00  0.00     0.085 H 
ATOM     11  H12 MOL d          10.944 -11.761  24.847  0.00  0.00     0.085 H 
ATOM     12  H13 MOL d          11.334 -13.768  23.642  0.00  0.00     0.084 H 
ENDROOT
BRANCH   1  13
ATOM     13  C15 MOL d          12.662 -14.238  21.440  0.00  0.00     0.019 C 
ATOM     14  H8  MOL d          12.466 -14.155  20.360  0.00  0.00     0.071 H 
ATOM     15  H9  MOL d          11.988 -14.989  21.877  0.00  0.00     0.071 H 
BRANCH  13  16
ATOM     16  N14 MOL d          14.067 -14.730  21.613  0.00  0.00    -0.357 N 
ATOM     17  C46 MOL d          14.513 -15.921  21.978  0.00  0.00     0.220 C 
ATOM     18  O22 MOL d          13.858 -16.783  22.334  0.00  0.00    -0.274 OA
ATOM     19  H17 MOL d          14.779 -14.053  21.422  0.00  0.00     0.162 HD
BRANCH  17  20
ATOM     20  C12 MOL d          16.061 -16.149  22.097  0.00  0.00     0.037 C 
ATOM     21  H15 MOL d          16.501 -15.266  22.583  0.00  0.00     0.051 H 
ATOM     22  H16 MOL d          16.229 -17.036  22.726  0.00  0.00     0.051 H 
BRANCH  20  23
ATOM     23  C45 MOL d          16.819 -16.379  20.696  0.00  0.00     0.105 C 
ATOM     24  H14 MOL d          16.109 -16.234  19.869  0.00  0.00     0.089 H 
BRANCH  23  25
ATOM     25  C13 MOL d          17.936 -15.266  20.668  0.00  0.00     0.244 C 
ATOM     26  O14 MOL d          18.901 -15.485  21.316  0.00  0.00    -0.271 OA
ATOM     27  N15 MOL d          17.699 -14.234  19.959  0.00  0.00    -0.337 N 
ATOM     28  C16 MOL d          18.506 -13.102  20.110  0.00  0.00     0.091 C 
ATOM     29  C2  MOL d          16.480 -13.933  19.214  0.00  0.00    -0.001 C 
ATOM     30  C34 MOL d          17.810 -11.986  19.350  0.00  0.00    -0.036 C 
ATOM     31  H18 MOL d          19.549 -13.266  19.804  0.00  0.00     0.087 H 
ATOM     32  C1  MOL d          16.628 -12.579  18.656  0.00  0.00    -0.048 C 
ATOM     33  H19 MOL d          18.499 -11.550  18.612  0.00  0.00     0.036 H 
ATOM     34  H20 MOL d          17.481 -11.205  20.051  0.00  0.00     0.036 H 
ATOM     35  H21 MOL d          16.804 -12.629  17.572  0.00  0.00     0.035 H 
ATOM     36  H22 MOL d          15.726 -11.981  18.855  0.00  0.00     0.035 H 
ATOM     37  H23 MOL d          15.610 -13.969  19.885  0.00  0.00     0.064 H 
ATOM     38  H24 MOL d          16.346 -14.662  18.401  0.00  0.00     0.064 H 
BRANCH  28  39
ATOM     39  C17 MOL d          18.342 -12.662  21.614  0.00  0.00     0.240 C 
ATOM     40  O18 MOL d          17.516 -11.916  22.000  0.00  0.00    -0.271 OA
ATOM     41  N19 MOL d          19.315 -13.123  22.460  0.00  0.00    -0.355 N 
ATOM     42  H25 MOL d          20.048 -13.681  22.072  0.00  0.00     0.162 HD
BRANCH  41  43
ATOM     43  C20 MOL d          19.350 -12.856  23.860  0.00  0.00     0.019 C 
ATOM     44  H26 MOL d          18.347 -12.981  24.293  0.00  0.00     0.071 H 
ATOM     45  H27 MOL d          19.702 -11.830  24.039  0.00  0.00     0.071 H 
BRANCH  43  46
ATOM     46  C21 MOL d          20.297 -13.836  24.473  0.00  0.00    -0.040 A 
ATOM     47  C26 MOL d          20.869 -14.865  23.788  0.00  0.00    -0.074 A 
ATOM     48  C25 MOL d          21.680 -15.732  24.308  0.00  0.00    -0.069 A 
ATOM     49  H28 MOL d          20.629 -14.967  22.736  0.00  0.00     0.084 H 
ATOM     50  C24 MOL d          22.028 -15.729  25.579  0.00  0.00     0.007 A 
ATOM     51  H29 MOL d          22.093 -16.499  23.664  0.00  0.00     0.085 H 
ATOM     52  C23 MOL d          21.455 -14.770  26.316  0.00  0.00    -0.069 A 
ATOM     53  C22 MOL d          20.634 -13.878  25.746  0.00  0.00    -0.074 A 
ATOM     54  H34 MOL d          21.658 -14.714  27.379  0.00  0.00     0.085 H 
ATOM     55  H35 MOL d          20.206 -13.121  26.392  0.00  0.00     0.084 H 
BRANCH  50  56
ATOM     56  C27 MOL d          22.925 -16.669  26.175  0.00  0.00     0.102 C 
BRANCH  56  57
ATOM     57  N29 MOL d          22.522 -17.665  26.651  0.00  0.00    -0.385 N 
ATOM     58  H30 MOL d          22.162 -17.667  27.616  0.00  0.00     0.157 HD
ATOM     59  H31 MOL d          22.530 -18.537  26.102  0.00  0.00     0.157 HD
ENDBRANCH  56  57
BRANCH  56  60
ATOM     60  N28 MOL d          24.186 -16.470  26.154  0.00  0.00    -0.385 N 
ATOM     61  H32 MOL d          24.828 -17.258  25.987  0.00  0.00     0.157 HD
ATOM     62  H33 MOL d          24.561 -15.523  26.304  0.00  0.00     0.157 HD
ENDBRANCH  56  60
ENDBRANCH  50  56
ENDBRANCH  43  46
ENDBRANCH  41  43
ENDBRANCH  28  39
ENDBRANCH  23  25
BRANCH  23  63
ATOM     63  N11 MOL d          17.390 -17.589  20.558  0.00  0.00    -0.301 N 
ATOM     64  H7  MOL d          17.791 -17.856  19.682  0.00  0.00     0.173 HD
BRANCH  63  65
ATOM     65  S8  MOL d          17.428 -18.583  21.777  0.00  0.00     0.259 S 
ATOM     66  O1  MOL d          17.197 -19.594  21.168  0.00  0.00    -0.201 OA
ATOM     67  O10 MOL d          16.896 -18.207  22.706  0.00  0.00    -0.201 OA
BRANCH  65  68
ATOM     68  C35 MOL d          19.096 -18.800  22.175  0.00  0.00     0.081 A 
ATOM     69  C7  MOL d          19.552 -18.894  23.462  0.00  0.00    -0.058 A 
ATOM     70  C6  MOL d          20.901 -19.115  23.754  0.00  0.00    -0.048 A 
ATOM     71  H4  MOL d          18.846 -18.795  24.279  0.00  0.00     0.086 H 
ATOM     72  C5  MOL d          21.784 -19.317  22.721  0.00  0.00     0.089 A 
ATOM     73  H6  MOL d          21.246 -19.126  24.782  0.00  0.00     0.087 H 
ATOM     74  C4  MOL d          21.284 -19.285  21.472  0.00  0.00     0.068 A 
ATOM     75 CL   MOL d          22.411 -19.629  20.165  0.00  0.00    -0.081 Cl
ATOM     76  C3  MOL d          20.044 -19.042  21.159  0.00  0.00    -0.037 A 
ATOM     77  H5  MOL d          19.740 -19.027  20.119  0.00  0.00     0.088 H 
BRANCH  72  78
ATOM     78  O9  MOL d          23.101 -19.455  22.932  0.00  0.00    -0.354 OA
BRANCH  78  79
ATOM     79  C10 MOL d          23.890 -18.356  22.981  0.00  0.00     0.010 C 
ATOM     80  H1  MOL d          24.161 -18.145  24.027  0.00  0.00     0.066 H 
ATOM     81  H2  MOL d          23.347 -17.495  22.562  0.00  0.00     0.066 H 
ATOM     82  H3  MOL d          24.804 -18.533  22.395  0.00  0.00     0.066 H 
ENDBRANCH  78  79
ENDBRANCH  72  78
ENDBRANCH  65  68
ENDBRANCH  63  65
ENDBRANCH  23  63
ENDBRANCH  20  23
ENDBRANCH  17  20
ENDBRANCH  13  16
ENDBRANCH   1  13
TORSDOF 16
ENDMDL
