MODEL 1
REMARK VINA RESULT:      -5.1      0.000      0.000
REMARK  5 active torsions:
REMARK  status: ('A' for Active; 'I' for Inactive)
REMARK    1  A    between atoms: C4_2  and  C2_3 
REMARK       I    between atoms: C4_2  and  N_7 
REMARK    2  A    between atoms: C2_3  and  C1_4 
REMARK    3  A    between atoms: C2_3  and  C3_6 
REMARK    4  A    between atoms: C1_4  and  S_5 
REMARK    5  A    between atoms: C8_8  and  C9_9 
ROOT
ATOM      1  O1  X8Z d          29.940   3.540 -43.397  0.00  0.00    -0.273 OA
ATOM      2  C4  X8Z d          28.916   4.260 -43.618  0.00  0.00     0.225 C 
ATOM      3  N   X8Z d          29.073   5.471 -44.197  0.00  0.00    -0.337 N 
ATOM      4  C8  X8Z d          30.430   6.014 -44.573  0.00  0.00     0.098 C 
ATOM      5  C5  X8Z d          28.008   6.483 -44.547  0.00  0.00    -0.001 C 
ATOM      6  C6  X8Z d          28.718   7.662 -45.103  0.00  0.00    -0.048 C 
ATOM      7  C7  X8Z d          30.166   7.312 -45.285  0.00  0.00    -0.035 C 
ATOM      8  H8  X8Z d          30.947   5.312 -45.244  0.00  0.00     0.089 H 
ATOM      9  H9  X8Z d          27.444   6.768 -43.647  0.00  0.00     0.064 H 
ATOM     10  H10 X8Z d          27.318   6.067 -45.295  0.00  0.00     0.064 H 
ATOM     11  H11 X8Z d          28.626   8.511 -44.409  0.00  0.00     0.035 H 
ATOM     12  H12 X8Z d          28.278   7.933 -46.075  0.00  0.00     0.035 H 
ATOM     13  H13 X8Z d          30.391   7.202 -46.356  0.00  0.00     0.036 H 
ATOM     14  H14 X8Z d          30.797   8.106 -44.857  0.00  0.00     0.036 H 
ENDROOT
BRANCH   2  15
ATOM     15  C2  X8Z d          27.539   3.731 -43.205  0.00  0.00     0.028 C 
ATOM     16  H1  X8Z d          26.793   3.981 -43.974  0.00  0.00     0.055 H 
BRANCH  15  17
ATOM     17  C1  X8Z d          27.628   2.206 -43.076  0.00  0.00    -0.015 C 
ATOM     18  H2  X8Z d          27.287   1.926 -42.069  0.00  0.00     0.049 H 
ATOM     19  H3  X8Z d          28.680   1.912 -43.203  0.00  0.00     0.049 H 
BRANCH  17  20
ATOM     20  S   X8Z d          26.646   1.297 -44.271  0.00  0.00    -0.181 SA
ATOM     21  H4  X8Z d          26.992   0.353 -44.340  0.00  0.00     0.101 HD
ENDBRANCH  17  20
ENDBRANCH  15  17
BRANCH  15  22
ATOM     22  C3  X8Z d          27.157   4.426 -41.889  0.00  0.00    -0.064 C 
ATOM     23  H5  X8Z d          27.189   5.517 -42.028  0.00  0.00     0.028 H 
ATOM     24  H6  X8Z d          27.867   4.135 -41.101  0.00  0.00     0.028 H 
ATOM     25  H7  X8Z d          26.141   4.124 -41.596  0.00  0.00     0.028 H 
ENDBRANCH  15  22
ENDBRANCH   2  15
BRANCH   4  26
ATOM     26  C9  X8Z d          31.298   6.245 -43.314  0.00  0.00     0.196 C 
ATOM     27  O3  X8Z d          30.900   6.885 -42.361  0.00  0.00    -0.646 OA
ATOM     28  O2  X8Z d          32.474   5.721 -43.322  0.00  0.00    -0.646 OA
ENDBRANCH   4  26
TORSDOF 5
ENDMDL
MODEL 2
REMARK VINA RESULT:      -4.2      1.680      1.939
REMARK  5 active torsions:
REMARK  status: ('A' for Active; 'I' for Inactive)
REMARK    1  A    between atoms: C4_2  and  C2_3 
REMARK       I    between atoms: C4_2  and  N_7 
REMARK    2  A    between atoms: C2_3  and  C1_4 
REMARK    3  A    between atoms: C2_3  and  C3_6 
REMARK    4  A    between atoms: C1_4  and  S_5 
REMARK    5  A    between atoms: C8_8  and  C9_9 
ROOT
ATOM      1  O1  X8Z d          30.486   3.977 -43.146  0.00  0.00    -0.273 OA
ATOM      2  C4  X8Z d          29.399   4.540 -43.491  0.00  0.00     0.225 C 
ATOM      3  N   X8Z d          29.443   5.611 -44.314  0.00  0.00    -0.337 N 
ATOM      4  C8  X8Z d          30.745   6.181 -44.825  0.00  0.00     0.098 C 
ATOM      5  C5  X8Z d          28.290   6.427 -44.846  0.00  0.00    -0.001 C 
ATOM      6  C6  X8Z d          28.887   7.521 -45.653  0.00  0.00    -0.048 C 
ATOM      7  C7  X8Z d          30.361   7.272 -45.787  0.00  0.00    -0.035 C 
ATOM      8  H8  X8Z d          31.322   5.403 -45.344  0.00  0.00     0.089 H 
ATOM      9  H9  X8Z d          27.704   6.844 -44.014  0.00  0.00     0.064 H 
ATOM     10  H10 X8Z d          27.639   5.803 -45.476  0.00  0.00     0.064 H 
ATOM     11  H11 X8Z d          28.719   8.486 -45.150  0.00  0.00     0.035 H 
ATOM     12  H12 X8Z d          28.423   7.541 -46.650  0.00  0.00     0.035 H 
ATOM     13  H13 X8Z d          30.593   6.959 -46.816  0.00  0.00     0.036 H 
ATOM     14  H14 X8Z d          30.917   8.191 -45.548  0.00  0.00     0.036 H 
ENDROOT
BRANCH   2  15
ATOM     15  C2  X8Z d          28.078   3.989 -42.948  0.00  0.00     0.028 C 
ATOM     16  H1  X8Z d          28.251   3.462 -41.998  0.00  0.00     0.055 H 
BRANCH  15  17
ATOM     17  C1  X8Z d          27.132   5.169 -42.696  0.00  0.00    -0.015 C 
ATOM     18  H2  X8Z d          26.098   4.796 -42.739  0.00  0.00     0.049 H 
ATOM     19  H3  X8Z d          27.288   5.910 -43.494  0.00  0.00     0.049 H 
BRANCH  17  20
ATOM     20  S   X8Z d          27.365   5.989 -41.118  0.00  0.00    -0.181 SA
ATOM     21  H4  X8Z d          27.043   5.386 -40.376  0.00  0.00     0.101 HD
ENDBRANCH  17  20
ENDBRANCH  15  17
BRANCH  15  22
ATOM     22  C3  X8Z d          27.535   2.993 -43.985  0.00  0.00    -0.064 C 
ATOM     23  H5  X8Z d          26.609   2.537 -43.605  0.00  0.00     0.028 H 
ATOM     24  H6  X8Z d          28.283   2.207 -44.165  0.00  0.00     0.028 H 
ATOM     25  H7  X8Z d          27.325   3.521 -44.926  0.00  0.00     0.028 H 
ENDBRANCH  15  22
ENDBRANCH   2  15
BRANCH   4  26
ATOM     26  C9  X8Z d          31.590   6.749 -43.661  0.00  0.00     0.196 C 
ATOM     27  O3  X8Z d          31.230   7.707 -43.006  0.00  0.00    -0.646 OA
ATOM     28  O2  X8Z d          32.703   6.153 -43.415  0.00  0.00    -0.646 OA
ENDBRANCH   4  26
TORSDOF 5
ENDMDL
MODEL 3
REMARK VINA RESULT:      -3.8      3.055      4.926
REMARK  5 active torsions:
REMARK  status: ('A' for Active; 'I' for Inactive)
REMARK    1  A    between atoms: C4_2  and  C2_3 
REMARK       I    between atoms: C4_2  and  N_7 
REMARK    2  A    between atoms: C2_3  and  C1_4 
REMARK    3  A    between atoms: C2_3  and  C3_6 
REMARK    4  A    between atoms: C1_4  and  S_5 
REMARK    5  A    between atoms: C8_8  and  C9_9 
ROOT
ATOM      1  O1  X8Z d          28.081   7.512 -44.857  0.00  0.00    -0.273 OA
ATOM      2  C4  X8Z d          29.175   6.929 -44.571  0.00  0.00     0.225 C 
ATOM      3  N   X8Z d          29.144   5.671 -44.080  0.00  0.00    -0.337 N 
ATOM      4  C8  X8Z d          27.849   4.935 -43.834  0.00  0.00     0.098 C 
ATOM      5  C5  X8Z d          30.307   4.798 -43.676  0.00  0.00    -0.001 C 
ATOM      6  C6  X8Z d          29.723   3.540 -43.147  0.00  0.00    -0.048 C 
ATOM      7  C7  X8Z d          28.244   3.548 -43.405  0.00  0.00    -0.035 C 
ATOM      8  H8  X8Z d          27.256   4.891 -44.759  0.00  0.00     0.089 H 
ATOM      9  H9  X8Z d          30.904   5.296 -42.898  0.00  0.00     0.064 H 
ATOM     10  H10 X8Z d          30.944   4.584 -44.547  0.00  0.00     0.064 H 
ATOM     11  H11 X8Z d          29.909   3.471 -42.064  0.00  0.00     0.035 H 
ATOM     12  H12 X8Z d          30.182   2.677 -43.653  0.00  0.00     0.035 H 
ATOM     13  H13 X8Z d          28.001   2.829 -44.201  0.00  0.00     0.036 H 
ATOM     14  H14 X8Z d          27.705   3.275 -42.486  0.00  0.00     0.036 H 
ENDROOT
BRANCH   2  15
ATOM     15  C2  X8Z d          30.490   7.684 -44.784  0.00  0.00     0.028 C 
ATOM     16  H1  X8Z d          30.289   8.688 -45.185  0.00  0.00     0.055 H 
BRANCH  15  17
ATOM     17  C1  X8Z d          31.190   7.822 -43.427  0.00  0.00    -0.015 C 
ATOM     18  H2  X8Z d          31.884   8.674 -43.483  0.00  0.00     0.049 H 
ATOM     19  H3  X8Z d          31.757   6.899 -43.237  0.00  0.00     0.049 H 
BRANCH  17  20
ATOM     20  S   X8Z d          30.084   8.093 -42.041  0.00  0.00    -0.181 SA
ATOM     21  H4  X8Z d          29.188   7.676 -42.241  0.00  0.00     0.101 HD
ENDBRANCH  17  20
ENDBRANCH  15  17
BRANCH  15  22
ATOM     22  C3  X8Z d          31.315   6.889 -45.809  0.00  0.00    -0.064 C 
ATOM     23  H5  X8Z d          31.019   7.185 -46.826  0.00  0.00     0.028 H 
ATOM     24  H6  X8Z d          31.132   5.813 -45.672  0.00  0.00     0.028 H 
ATOM     25  H7  X8Z d          32.384   7.100 -45.662  0.00  0.00     0.028 H 
ENDBRANCH  15  22
ENDBRANCH   2  15
BRANCH   4  26
ATOM     26  C9  X8Z d          27.019   5.634 -42.732  0.00  0.00     0.196 C 
ATOM     27  O3  X8Z d          27.385   5.676 -41.575  0.00  0.00    -0.646 OA
ATOM     28  O2  X8Z d          25.912   6.176 -43.103  0.00  0.00    -0.646 OA
ENDBRANCH   4  26
TORSDOF 5
ENDMDL
MODEL 4
REMARK VINA RESULT:      -2.9      3.004      4.878
REMARK  5 active torsions:
REMARK  status: ('A' for Active; 'I' for Inactive)
REMARK    1  A    between atoms: C4_2  and  C2_3 
REMARK       I    between atoms: C4_2  and  N_7 
REMARK    2  A    between atoms: C2_3  and  C1_4 
REMARK    3  A    between atoms: C2_3  and  C3_6 
REMARK    4  A    between atoms: C1_4  and  S_5 
REMARK    5  A    between atoms: C8_8  and  C9_9 
ROOT
ATOM      1  O1  X8Z d          29.039   6.670 -44.144  0.00  0.00    -0.273 OA
ATOM      2  C4  X8Z d          29.559   5.526 -43.946  0.00  0.00     0.225 C 
ATOM      3  N   X8Z d          28.761   4.485 -43.625  0.00  0.00    -0.337 N 
ATOM      4  C8  X8Z d          27.267   4.634 -43.469  0.00  0.00     0.098 C 
ATOM      5  C5  X8Z d          29.159   3.055 -43.348  0.00  0.00    -0.001 C 
ATOM      6  C6  X8Z d          27.912   2.335 -42.985  0.00  0.00    -0.048 C 
ATOM      7  C7  X8Z d          26.742   3.244 -43.229  0.00  0.00    -0.035 C 
ATOM      8  H8  X8Z d          26.829   5.051 -44.387  0.00  0.00     0.089 H 
ATOM      9  H9  X8Z d          29.877   3.015 -42.516  0.00  0.00     0.064 H 
ATOM     10  H10 X8Z d          29.610   2.604 -44.244  0.00  0.00     0.064 H 
ATOM     11  H11 X8Z d          27.944   2.051 -41.923  0.00  0.00     0.035 H 
ATOM     12  H12 X8Z d          27.813   1.431 -43.604  0.00  0.00     0.035 H 
ATOM     13  H13 X8Z d          26.182   2.901 -44.111  0.00  0.00     0.036 H 
ATOM     14  H14 X8Z d          26.081   3.243 -42.350  0.00  0.00     0.036 H 
ENDROOT
BRANCH   2  15
ATOM     15  C2  X8Z d          31.079   5.376 -44.067  0.00  0.00     0.028 C 
ATOM     16  H1  X8Z d          31.329   4.383 -44.469  0.00  0.00     0.055 H 
BRANCH  15  17
ATOM     17  C1  X8Z d          31.593   6.448 -45.035  0.00  0.00    -0.015 C 
ATOM     18  H2  X8Z d          30.901   6.500 -45.889  0.00  0.00     0.049 H 
ATOM     19  H3  X8Z d          32.589   6.143 -45.388  0.00  0.00     0.049 H 
BRANCH  17  20
ATOM     20  S   X8Z d          31.729   8.090 -44.326  0.00  0.00    -0.181 SA
ATOM     21  H4  X8Z d          31.651   8.030 -43.323  0.00  0.00     0.101 HD
ENDBRANCH  17  20
ENDBRANCH  15  17
BRANCH  15  22
ATOM     22  C3  X8Z d          31.666   5.510 -42.653  0.00  0.00    -0.064 C 
ATOM     23  H5  X8Z d          31.801   6.575 -42.412  0.00  0.00     0.028 H 
ATOM     24  H6  X8Z d          32.640   4.999 -42.611  0.00  0.00     0.028 H 
ATOM     25  H7  X8Z d          30.980   5.052 -41.926  0.00  0.00     0.028 H 
ENDBRANCH  15  22
ENDBRANCH   2  15
BRANCH   4  26
ATOM     26  C9  X8Z d          26.928   5.561 -42.278  0.00  0.00     0.196 C 
ATOM     27  O3  X8Z d          27.106   5.225 -41.124  0.00  0.00    -0.646 OA
ATOM     28  O2  X8Z d          26.445   6.717 -42.569  0.00  0.00    -0.646 OA
ENDBRANCH   4  26
TORSDOF 5
ENDMDL
MODEL 5
REMARK VINA RESULT:      -2.4      2.698      4.574
REMARK  5 active torsions:
REMARK  status: ('A' for Active; 'I' for Inactive)
REMARK    1  A    between atoms: C4_2  and  C2_3 
REMARK       I    between atoms: C4_2  and  N_7 
REMARK    2  A    between atoms: C2_3  and  C1_4 
REMARK    3  A    between atoms: C2_3  and  C3_6 
REMARK    4  A    between atoms: C1_4  and  S_5 
REMARK    5  A    between atoms: C8_8  and  C9_9 
ROOT
ATOM      1  O1  X8Z d          29.145   7.760 -44.026  0.00  0.00    -0.273 OA
ATOM      2  C4  X8Z d          29.686   6.610 -43.993  0.00  0.00     0.225 C 
ATOM      3  N   X8Z d          28.910   5.520 -43.802  0.00  0.00    -0.337 N 
ATOM      4  C8  X8Z d          27.416   5.620 -43.603  0.00  0.00     0.098 C 
ATOM      5  C5  X8Z d          29.335   4.073 -43.727  0.00  0.00    -0.001 C 
ATOM      6  C6  X8Z d          28.106   3.290 -43.445  0.00  0.00    -0.048 C 
ATOM      7  C7  X8Z d          26.918   4.203 -43.545  0.00  0.00    -0.035 C 
ATOM      8  H8  X8Z d          26.956   6.150 -44.449  0.00  0.00     0.089 H 
ATOM      9  H9  X8Z d          30.069   3.934 -42.920  0.00  0.00     0.064 H 
ATOM     10  H10 X8Z d          29.776   3.756 -44.684  0.00  0.00     0.064 H 
ATOM     11  H11 X8Z d          28.162   2.865 -42.431  0.00  0.00     0.035 H 
ATOM     12  H12 X8Z d          28.009   2.476 -44.179  0.00  0.00     0.035 H 
ATOM     13  H13 X8Z d          26.346   3.971 -44.456  0.00  0.00     0.036 H 
ATOM     14  H14 X8Z d          26.273   4.071 -42.663  0.00  0.00     0.036 H 
ENDROOT
BRANCH   2  15
ATOM     15  C2  X8Z d          31.205   6.504 -44.158  0.00  0.00     0.028 C 
ATOM     16  H1  X8Z d          31.704   7.288 -43.569  0.00  0.00     0.055 H 
BRANCH  15  17
ATOM     17  C1  X8Z d          31.651   5.133 -43.637  0.00  0.00    -0.015 C 
ATOM     18  H2  X8Z d          32.633   4.901 -44.076  0.00  0.00     0.049 H 
ATOM     19  H3  X8Z d          30.916   4.384 -43.968  0.00  0.00     0.049 H 
BRANCH  17  20
ATOM     20  S   X8Z d          31.797   5.023 -41.853  0.00  0.00    -0.181 SA
ATOM     21  H4  X8Z d          32.746   5.225 -41.581  0.00  0.00     0.101 HD
ENDBRANCH  17  20
ENDBRANCH  15  17
BRANCH  15  22
ATOM     22  C3  X8Z d          31.521   6.715 -45.647  0.00  0.00    -0.064 C 
ATOM     23  H5  X8Z d          31.161   7.706 -45.960  0.00  0.00     0.028 H 
ATOM     24  H6  X8Z d          31.019   5.938 -46.242  0.00  0.00     0.028 H 
ATOM     25  H7  X8Z d          32.607   6.653 -45.804  0.00  0.00     0.028 H 
ENDBRANCH  15  22
ENDBRANCH   2  15
BRANCH   4  26
ATOM     26  C9  X8Z d          27.086   6.372 -42.293  0.00  0.00     0.196 C 
ATOM     27  O3  X8Z d          26.990   5.801 -41.225  0.00  0.00    -0.646 OA
ATOM     28  O2  X8Z d          26.917   7.644 -42.386  0.00  0.00    -0.646 OA
ENDBRANCH   4  26
TORSDOF 5
ENDMDL
MODEL 6
REMARK VINA RESULT:      -2.2      2.808      4.562
REMARK  5 active torsions:
REMARK  status: ('A' for Active; 'I' for Inactive)
REMARK    1  A    between atoms: C4_2  and  C2_3 
REMARK       I    between atoms: C4_2  and  N_7 
REMARK    2  A    between atoms: C2_3  and  C1_4 
REMARK    3  A    between atoms: C2_3  and  C3_6 
REMARK    4  A    between atoms: C1_4  and  S_5 
REMARK    5  A    between atoms: C8_8  and  C9_9 
ROOT
ATOM      1  O1  X8Z d          29.283   7.298 -44.840  0.00  0.00    -0.273 OA
ATOM      2  C4  X8Z d          29.637   6.316 -44.113  0.00  0.00     0.225 C 
ATOM      3  N   X8Z d          28.688   5.538 -43.548  0.00  0.00    -0.337 N 
ATOM      4  C8  X8Z d          27.213   5.807 -43.730  0.00  0.00     0.098 C 
ATOM      5  C5  X8Z d          28.877   4.334 -42.656  0.00  0.00    -0.001 C 
ATOM      6  C6  X8Z d          27.518   3.887 -42.262  0.00  0.00    -0.048 C 
ATOM      7  C7  X8Z d          26.505   4.666 -43.050  0.00  0.00    -0.035 C 
ATOM      8  H8  X8Z d          26.960   5.827 -44.800  0.00  0.00     0.089 H 
ATOM      9  H9  X8Z d          29.461   4.609 -41.766  0.00  0.00     0.064 H 
ATOM     10  H10 X8Z d          29.396   3.534 -43.203  0.00  0.00     0.064 H 
ATOM     11  H11 X8Z d          27.367   4.066 -41.187  0.00  0.00     0.035 H 
ATOM     12  H12 X8Z d          27.405   2.813 -42.474  0.00  0.00     0.035 H 
ATOM     13  H13 X8Z d          26.040   4.015 -43.805  0.00  0.00     0.036 H 
ATOM     14  H14 X8Z d          25.730   5.059 -42.376  0.00  0.00     0.036 H 
ENDROOT
BRANCH   2  15
ATOM     15  C2  X8Z d          31.131   6.060 -43.895  0.00  0.00     0.028 C 
ATOM     16  H1  X8Z d          31.562   6.856 -43.270  0.00  0.00     0.055 H 
BRANCH  15  17
ATOM     17  C1  X8Z d          31.288   4.719 -43.170  0.00  0.00    -0.015 C 
ATOM     18  H2  X8Z d          32.097   4.156 -43.660  0.00  0.00     0.049 H 
ATOM     19  H3  X8Z d          30.344   4.163 -43.267  0.00  0.00     0.049 H 
BRANCH  17  20
ATOM     20  S   X8Z d          31.680   4.855 -41.425  0.00  0.00    -0.181 SA
ATOM     21  H4  X8Z d          32.378   4.168 -41.184  0.00  0.00     0.101 HD
ENDBRANCH  17  20
ENDBRANCH  15  17
BRANCH  15  22
ATOM     22  C3  X8Z d          31.807   6.082 -45.275  0.00  0.00    -0.064 C 
ATOM     23  H5  X8Z d          31.059   5.863 -46.052  0.00  0.00     0.028 H 
ATOM     24  H6  X8Z d          32.602   5.323 -45.306  0.00  0.00     0.028 H 
ATOM     25  H7  X8Z d          32.242   7.076 -45.455  0.00  0.00     0.028 H 
ENDBRANCH  15  22
ENDBRANCH   2  15
BRANCH   4  26
ATOM     26  C9  X8Z d          26.817   7.157 -43.089  0.00  0.00     0.196 C 
ATOM     27  O3  X8Z d          26.358   8.073 -43.741  0.00  0.00    -0.646 OA
ATOM     28  O2  X8Z d          26.996   7.266 -41.820  0.00  0.00    -0.646 OA
ENDBRANCH   4  26
TORSDOF 5
ENDMDL
