MODEL 1
REMARK VINA RESULT:      -6.3      0.000      0.000
REMARK  15 active torsions:
REMARK  status: ('A' for Active; 'I' for Inactive)
REMARK    1  A    between atoms: C27_27  and  C15_15 
REMARK    2  A    between atoms: C16_16  and  C28_28 
REMARK    3  A    between atoms: C35_35  and  C17_17 
REMARK    4  A    between atoms: C35_35  and  C18_18 
REMARK    5  A    between atoms: C19_19  and  C32_32 
REMARK    6  A    between atoms: C33_33  and  C20_20 
REMARK    7  A    between atoms: C23_23  and  O43_43 
REMARK    8  A    between atoms: C24_24  and  O44_44 
REMARK    9  A    between atoms: C34_34  and  C26_26 
REMARK       I    between atoms: N36_36  and  C27_27 
REMARK   10  A    between atoms: O43_43  and  C30_30 
REMARK   11  A    between atoms: O44_44  and  C31_31 
REMARK   12  A    between atoms: C32_32  and  N37_37 
REMARK   13  A    between atoms: N37_37  and  C33_33 
REMARK   14  A    between atoms: N37_37  and  C34_34 
REMARK   15  A    between atoms: C35_35  and  N36_36 
ROOT
ATOM      1  C1  O2N d         -11.103  41.439  -1.245  0.00  0.00    -0.082 A 
ATOM      2  C2  O2N d         -12.104  42.245  -1.741  0.00  0.00    -0.082 A 
ATOM      3  C3  O2N d          -9.858  42.016  -1.031  0.00  0.00    -0.067 A 
ATOM      4  C4  O2N d         -11.899  43.588  -2.014  0.00  0.00    -0.074 A 
ATOM      5  C15 O2N d          -9.632  43.354  -1.300  0.00  0.00     0.040 A 
ATOM      6  C19 O2N d         -10.659  44.156  -1.797  0.00  0.00    -0.017 A 
ATOM      7  H1  O2N d         -11.281  40.392  -1.028  0.00  0.00     0.083 H 
ATOM      8  H2  O2N d         -13.081  41.815  -1.924  0.00  0.00     0.083 H 
ATOM      9  H3  O2N d          -9.048  41.406  -0.647  0.00  0.00     0.085 H 
ATOM     10  H4  O2N d         -12.713  44.193  -2.399  0.00  0.00     0.084 H 
ENDROOT
BRANCH   5  11
ATOM     11  C27 O2N d          -8.294  43.922  -1.025  0.00  0.00     0.253 C 
ATOM     12  N36 O2N d          -8.084  44.537   0.210  0.00  0.00    -0.344 N 
ATOM     13  H33 O2N d          -8.849  44.608   0.851  0.00  0.00     0.163 HD
ATOM     14  O39 O2N d          -7.445  43.839  -1.916  0.00  0.00    -0.268 OA
BRANCH  12  15
ATOM     15  C35 O2N d          -6.794  45.079   0.594  0.00  0.00     0.063 C 
ATOM     16  H32 O2N d          -6.029  44.659  -0.075  0.00  0.00     0.088 H 
BRANCH  15  17
ATOM     17  C17 O2N d          -6.452  44.597   2.016  0.00  0.00    -0.031 A 
ATOM     18  C6  O2N d          -5.175  44.778   2.533  0.00  0.00    -0.072 A 
ATOM     19  C11 O2N d          -4.820  44.334   3.813  0.00  0.00    -0.050 A 
ATOM     20  H6  O2N d          -4.430  45.279   1.925  0.00  0.00     0.084 H 
ATOM     21  C23 O2N d          -5.839  43.728   4.592  0.00  0.00     0.068 A 
ATOM     22  H11 O2N d          -3.811  44.448   4.192  0.00  0.00     0.087 H 
ATOM     23  C12 O2N d          -7.112  43.494   4.097  0.00  0.00    -0.050 A 
ATOM     24  C7  O2N d          -7.391  43.945   2.798  0.00  0.00    -0.072 A 
ATOM     25  H12 O2N d          -7.862  42.984   4.690  0.00  0.00     0.087 H 
ATOM     26  H7  O2N d          -8.381  43.777   2.391  0.00  0.00     0.084 H 
BRANCH  21  27
ATOM     27  O43 O2N d          -5.477  43.293   5.878  0.00  0.00    -0.356 OA
BRANCH  27  28
ATOM     28  C30 O2N d          -4.170  43.603   6.407  0.00  0.00     0.010 C 
ATOM     29  H20 O2N d          -3.399  43.128   5.783  0.00  0.00     0.066 H 
ATOM     30  H21 O2N d          -4.093  43.224   7.437  0.00  0.00     0.066 H 
ATOM     31  H22 O2N d          -4.023  44.693   6.406  0.00  0.00     0.066 H 
ENDBRANCH  27  28
ENDBRANCH  21  27
ENDBRANCH  15  17
BRANCH  15  32
ATOM     32  C18 O2N d          -6.805  46.587   0.359  0.00  0.00    -0.031 A 
ATOM     33  C8  O2N d          -6.584  47.399   1.464  0.00  0.00    -0.072 A 
ATOM     34  C13 O2N d          -6.545  48.782   1.296  0.00  0.00    -0.050 A 
ATOM     35  H8  O2N d          -6.442  46.963   2.446  0.00  0.00     0.084 H 
ATOM     36  C24 O2N d          -6.738  49.373   0.052  0.00  0.00     0.068 A 
ATOM     37  H13 O2N d          -6.360  49.413   2.157  0.00  0.00     0.087 H 
ATOM     38  C14 O2N d          -6.969  48.615  -1.080  0.00  0.00    -0.050 A 
ATOM     39  C9  O2N d          -6.961  47.215  -0.872  0.00  0.00    -0.072 A 
ATOM     40  H14 O2N d          -7.142  49.060  -2.053  0.00  0.00     0.087 H 
ATOM     41  H9  O2N d          -7.087  46.581  -1.742  0.00  0.00     0.084 H 
BRANCH  36  42
ATOM     42  O44 O2N d          -6.697  50.767   0.037  0.00  0.00    -0.356 OA
BRANCH  42  43
ATOM     43  C31 O2N d          -5.505  51.268  -0.570  0.00  0.00     0.010 C 
ATOM     44  H23 O2N d          -4.690  51.267   0.169  0.00  0.00     0.066 H 
ATOM     45  H24 O2N d          -5.678  52.295  -0.924  0.00  0.00     0.066 H 
ATOM     46  H25 O2N d          -5.230  50.628  -1.421  0.00  0.00     0.066 H 
ENDBRANCH  42  43
ENDBRANCH  36  42
ENDBRANCH  15  32
ENDBRANCH  12  15
ENDBRANCH   5  11
BRANCH   6  47
ATOM     47  C32 O2N d         -10.488  45.611  -2.086  0.00  0.00     0.109 C 
ATOM     48  H26 O2N d         -11.253  45.903  -2.820  0.00  0.00     0.083 H 
ATOM     49  H27 O2N d          -9.489  45.756  -2.521  0.00  0.00     0.083 H 
BRANCH  47  50
ATOM     50  N37 O2N d         -10.614  46.533  -0.883  0.00  0.00    -0.060 N 
ATOM     51  H34 O2N d          -9.677  46.707  -0.555  0.00  0.00     0.281 HD
BRANCH  50  52
ATOM     52  C33 O2N d         -11.408  45.977   0.347  0.00  0.00     0.109 C 
ATOM     53  H28 O2N d         -12.487  45.997   0.130  0.00  0.00     0.083 H 
ATOM     54  H29 O2N d         -11.095  44.943   0.552  0.00  0.00     0.083 H 
BRANCH  52  55
ATOM     55  C20 O2N d         -11.113  46.850   1.558  0.00  0.00    -0.013 A 
ATOM     56  C5  O2N d          -9.874  46.834   2.257  0.00  0.00    -0.071 A 
ATOM     57  C10 O2N d          -9.617  47.677   3.385  0.00  0.00    -0.047 A 
ATOM     58  H5  O2N d          -9.095  46.158   1.923  0.00  0.00     0.084 H 
ATOM     59  C21 O2N d         -10.663  48.479   3.774  0.00  0.00     0.106 A 
ATOM     60  H10 O2N d          -8.662  47.683   3.897  0.00  0.00     0.087 H 
ATOM     61  C22 O2N d         -11.866  48.509   3.091  0.00  0.00     0.122 A 
ATOM     62  O41 O2N d         -10.677  49.350   4.820  0.00  0.00    -0.323 OA
ATOM     63  C16 O2N d         -12.145  47.710   1.981  0.00  0.00     0.085 A 
ATOM     64  O42 O2N d         -12.783  49.401   3.662  0.00  0.00    -0.322 OA
ATOM     65  C29 O2N d         -11.977  49.963   4.719  0.00  0.00     0.115 A 
ATOM     66  H18 O2N d         -11.844  51.037   4.525  0.00  0.00     0.118 H 
ATOM     67  H19 O2N d         -12.505  49.825   5.674  0.00  0.00     0.118 H 
BRANCH  63  68
ATOM     68  C28 O2N d         -13.480  47.881   1.292  0.00  0.00     0.212 C 
ATOM     69  O38 O2N d         -14.334  46.974   1.556  0.00  0.00    -0.644 OA
ATOM     70  O40 O2N d         -13.834  48.897   0.612  0.00  0.00    -0.644 OA
ENDBRANCH  63  68
ENDBRANCH  52  55
ENDBRANCH  50  52
BRANCH  50  71
ATOM     71  C34 O2N d         -11.185  47.839  -1.345  0.00  0.00     0.099 C 
ATOM     72  H30 O2N d         -11.521  47.703  -2.383  0.00  0.00     0.082 H 
ATOM     73  H31 O2N d         -12.052  48.064  -0.706  0.00  0.00     0.082 H 
BRANCH  71  74
ATOM     74  C26 O2N d         -10.279  49.039  -1.316  0.00  0.00    -0.087 C 
ATOM     75  C25 O2N d         -10.372  49.948  -0.329  0.00  0.00    -0.123 C 
ATOM     76  H15 O2N d          -9.709  50.812  -0.320  0.00  0.00     0.066 H 
ATOM     77  H16 O2N d         -11.109  49.819   0.463  0.00  0.00     0.066 H 
ATOM     78  H17 O2N d          -9.540  49.174  -2.104  0.00  0.00     0.078 H 
ENDBRANCH  71  74
ENDBRANCH  50  71
ENDBRANCH  47  50
ENDBRANCH   6  47
TORSDOF 15
ENDMDL
MODEL 2
REMARK VINA RESULT:      -5.8      2.325      6.793
REMARK  15 active torsions:
REMARK  status: ('A' for Active; 'I' for Inactive)
REMARK    1  A    between atoms: C27_27  and  C15_15 
REMARK    2  A    between atoms: C16_16  and  C28_28 
REMARK    3  A    between atoms: C35_35  and  C17_17 
REMARK    4  A    between atoms: C35_35  and  C18_18 
REMARK    5  A    between atoms: C19_19  and  C32_32 
REMARK    6  A    between atoms: C33_33  and  C20_20 
REMARK    7  A    between atoms: C23_23  and  O43_43 
REMARK    8  A    between atoms: C24_24  and  O44_44 
REMARK    9  A    between atoms: C34_34  and  C26_26 
REMARK       I    between atoms: N36_36  and  C27_27 
REMARK   10  A    between atoms: O43_43  and  C30_30 
REMARK   11  A    between atoms: O44_44  and  C31_31 
REMARK   12  A    between atoms: C32_32  and  N37_37 
REMARK   13  A    between atoms: N37_37  and  C33_33 
REMARK   14  A    between atoms: N37_37  and  C34_34 
REMARK   15  A    between atoms: C35_35  and  N36_36 
ROOT
ATOM      1  C1  O2N d          -6.670  42.403   1.270  0.00  0.00    -0.082 A 
ATOM      2  C2  O2N d          -5.867  42.981   2.227  0.00  0.00    -0.082 A 
ATOM      3  C3  O2N d          -7.442  43.247   0.480  0.00  0.00    -0.067 A 
ATOM      4  C4  O2N d          -5.808  44.354   2.406  0.00  0.00    -0.074 A 
ATOM      5  C15 O2N d          -7.399  44.620   0.645  0.00  0.00     0.040 A 
ATOM      6  C19 O2N d          -6.575  45.187   1.616  0.00  0.00    -0.017 A 
ATOM      7  H1  O2N d          -6.700  41.328   1.136  0.00  0.00     0.083 H 
ATOM      8  H2  O2N d          -5.263  42.342   2.861  0.00  0.00     0.083 H 
ATOM      9  H3  O2N d          -8.089  42.821  -0.278  0.00  0.00     0.085 H 
ATOM     10  H4  O2N d          -5.158  44.774   3.167  0.00  0.00     0.084 H 
ENDROOT
BRANCH   5  11
ATOM     11  C27 O2N d          -8.219  45.471  -0.244  0.00  0.00     0.253 C 
ATOM     12  N36 O2N d          -9.559  45.669   0.090  0.00  0.00    -0.344 N 
ATOM     13  H33 O2N d          -9.930  45.204   0.894  0.00  0.00     0.163 HD
ATOM     14  O39 O2N d          -7.674  45.939  -1.248  0.00  0.00    -0.268 OA
BRANCH  12  15
ATOM     15  C35 O2N d         -10.432  46.527  -0.690  0.00  0.00     0.063 C 
ATOM     16  H32 O2N d          -9.878  46.871  -1.576  0.00  0.00     0.088 H 
BRANCH  15  17
ATOM     17  C17 O2N d         -10.769  47.782   0.136  0.00  0.00    -0.031 A 
ATOM     18  C6  O2N d         -10.559  49.050  -0.393  0.00  0.00    -0.072 A 
ATOM     19  C11 O2N d         -10.834  50.214   0.335  0.00  0.00    -0.050 A 
ATOM     20  H6  O2N d         -10.172  49.140  -1.401  0.00  0.00     0.084 H 
ATOM     21  C23 O2N d         -11.386  50.051   1.632  0.00  0.00     0.068 A 
ATOM     22  H11 O2N d         -10.632  51.198  -0.074  0.00  0.00     0.087 H 
ATOM     23  C12 O2N d         -11.571  48.805   2.208  0.00  0.00    -0.050 A 
ATOM     24  C7  O2N d         -11.254  47.682   1.429  0.00  0.00    -0.072 A 
ATOM     25  H12 O2N d         -11.946  48.702   3.220  0.00  0.00     0.087 H 
ATOM     26  H7  O2N d         -11.393  46.696   1.857  0.00  0.00     0.084 H 
BRANCH  21  27
ATOM     27  O43 O2N d         -11.665  51.224   2.353  0.00  0.00    -0.356 OA
BRANCH  27  28
ATOM     28  C30 O2N d         -12.861  51.314   3.156  0.00  0.00     0.010 C 
ATOM     29  H20 O2N d         -12.676  50.864   4.142  0.00  0.00     0.066 H 
ATOM     30  H21 O2N d         -13.680  50.778   2.655  0.00  0.00     0.066 H 
ATOM     31  H22 O2N d         -13.139  52.371   3.282  0.00  0.00     0.066 H 
ENDBRANCH  27  28
ENDBRANCH  21  27
ENDBRANCH  15  17
BRANCH  15  32
ATOM     32  C18 O2N d         -11.608  45.698  -1.199  0.00  0.00    -0.031 A 
ATOM     33  C8  O2N d         -12.870  46.273  -1.114  0.00  0.00    -0.072 A 
ATOM     34  C13 O2N d         -13.971  45.573  -1.601  0.00  0.00    -0.050 A 
ATOM     35  H8  O2N d         -12.995  47.256  -0.674  0.00  0.00     0.084 H 
ATOM     36  C24 O2N d         -13.845  44.305  -2.157  0.00  0.00     0.068 A 
ATOM     37  H13 O2N d         -14.953  46.029  -1.545  0.00  0.00     0.087 H 
ATOM     38  C14 O2N d         -12.616  43.681  -2.262  0.00  0.00    -0.050 A 
ATOM     39  C9  O2N d         -11.519  44.442  -1.791  0.00  0.00    -0.072 A 
ATOM     40  H14 O2N d         -12.502  42.685  -2.673  0.00  0.00     0.087 H 
ATOM     41  H9  O2N d         -10.530  44.012  -1.900  0.00  0.00     0.084 H 
BRANCH  36  42
ATOM     42  O44 O2N d         -15.035  43.714  -2.581  0.00  0.00    -0.356 OA
BRANCH  42  43
ATOM     43  C31 O2N d         -15.916  44.651  -3.200  0.00  0.00     0.010 C 
ATOM     44  H23 O2N d         -16.200  44.283  -4.198  0.00  0.00     0.066 H 
ATOM     45  H24 O2N d         -15.409  45.622  -3.297  0.00  0.00     0.066 H 
ATOM     46  H25 O2N d         -16.818  44.769  -2.582  0.00  0.00     0.066 H 
ENDBRANCH  42  43
ENDBRANCH  36  42
ENDBRANCH  15  32
ENDBRANCH  12  15
ENDBRANCH   5  11
BRANCH   6  47
ATOM     47  C32 O2N d          -6.465  46.661   1.830  0.00  0.00     0.109 C 
ATOM     48  H26 O2N d          -7.155  46.939   2.640  0.00  0.00     0.083 H 
ATOM     49  H27 O2N d          -6.771  47.163   0.900  0.00  0.00     0.083 H 
BRANCH  47  50
ATOM     50  N37 O2N d          -5.078  47.164   2.200  0.00  0.00    -0.060 N 
ATOM     51  H34 O2N d          -4.501  46.347   2.327  0.00  0.00     0.281 HD
BRANCH  50  52
ATOM     52  C33 O2N d          -4.962  47.989   3.526  0.00  0.00     0.109 C 
ATOM     53  H28 O2N d          -4.641  47.328   4.345  0.00  0.00     0.083 H 
ATOM     54  H29 O2N d          -4.225  48.795   3.395  0.00  0.00     0.083 H 
BRANCH  52  55
ATOM     55  C20 O2N d          -6.322  48.586   3.854  0.00  0.00    -0.013 A 
ATOM     56  C5  O2N d          -6.867  49.718   3.185  0.00  0.00    -0.071 A 
ATOM     57  C10 O2N d          -8.157  50.252   3.503  0.00  0.00    -0.047 A 
ATOM     58  H5  O2N d          -6.283  50.194   2.405  0.00  0.00     0.084 H 
ATOM     59  C21 O2N d          -8.821  49.621   4.527  0.00  0.00     0.106 A 
ATOM     60  H10 O2N d          -8.580  51.096   2.972  0.00  0.00     0.087 H 
ATOM     61  C22 O2N d          -8.304  48.512   5.173  0.00  0.00     0.122 A 
ATOM     62  O41 O2N d         -10.045  49.947   5.026  0.00  0.00    -0.323 OA
ATOM     63  C16 O2N d          -7.056  47.959   4.879  0.00  0.00     0.085 A 
ATOM     64  O42 O2N d          -9.154  48.033   6.177  0.00  0.00    -0.322 OA
ATOM     65  C29 O2N d         -10.276  48.927   6.017  0.00  0.00     0.115 A 
ATOM     66  H18 O2N d         -11.153  48.337   5.716  0.00  0.00     0.118 H 
ATOM     67  H19 O2N d         -10.476  49.414   6.983  0.00  0.00     0.118 H 
BRANCH  63  68
ATOM     68  C28 O2N d          -6.632  46.712   5.622  0.00  0.00     0.212 C 
ATOM     69  O38 O2N d          -5.969  46.928   6.687  0.00  0.00    -0.644 OA
ATOM     70  O40 O2N d          -6.999  45.526   5.340  0.00  0.00    -0.644 OA
ENDBRANCH  63  68
ENDBRANCH  52  55
ENDBRANCH  50  52
BRANCH  50  71
ATOM     71  C34 O2N d          -4.528  47.934   1.038  0.00  0.00     0.099 C 
ATOM     72  H30 O2N d          -4.011  48.817   1.443  0.00  0.00     0.082 H 
ATOM     73  H31 O2N d          -3.801  47.286   0.527  0.00  0.00     0.082 H 
BRANCH  71  74
ATOM     74  C26 O2N d          -5.506  48.419   0.004  0.00  0.00    -0.087 C 
ATOM     75  C25 O2N d          -5.162  48.477  -1.295  0.00  0.00    -0.123 C 
ATOM     76  H15 O2N d          -5.880  48.830  -2.034  0.00  0.00     0.066 H 
ATOM     77  H16 O2N d          -4.164  48.171  -1.609  0.00  0.00     0.066 H 
ATOM     78  H17 O2N d          -6.505  48.727   0.310  0.00  0.00     0.078 H 
ENDBRANCH  71  74
ENDBRANCH  50  71
ENDBRANCH  47  50
ENDBRANCH   6  47
TORSDOF 15
ENDMDL
MODEL 3
REMARK VINA RESULT:      -5.8      2.552      6.105
REMARK  15 active torsions:
REMARK  status: ('A' for Active; 'I' for Inactive)
REMARK    1  A    between atoms: C27_27  and  C15_15 
REMARK    2  A    between atoms: C16_16  and  C28_28 
REMARK    3  A    between atoms: C35_35  and  C17_17 
REMARK    4  A    between atoms: C35_35  and  C18_18 
REMARK    5  A    between atoms: C19_19  and  C32_32 
REMARK    6  A    between atoms: C33_33  and  C20_20 
REMARK    7  A    between atoms: C23_23  and  O43_43 
REMARK    8  A    between atoms: C24_24  and  O44_44 
REMARK    9  A    between atoms: C34_34  and  C26_26 
REMARK       I    between atoms: N36_36  and  C27_27 
REMARK   10  A    between atoms: O43_43  and  C30_30 
REMARK   11  A    between atoms: O44_44  and  C31_31 
REMARK   12  A    between atoms: C32_32  and  N37_37 
REMARK   13  A    between atoms: N37_37  and  C33_33 
REMARK   14  A    between atoms: N37_37  and  C34_34 
REMARK   15  A    between atoms: C35_35  and  N36_36 
ROOT
ATOM      1  C1  O2N d         -10.919  49.767  -0.834  0.00  0.00    -0.082 A 
ATOM      2  C2  O2N d         -10.418  48.785  -1.660  0.00  0.00    -0.082 A 
ATOM      3  C3  O2N d         -10.731  49.616   0.534  0.00  0.00    -0.067 A 
ATOM      4  C4  O2N d          -9.739  47.683  -1.165  0.00  0.00    -0.074 A 
ATOM      5  C15 O2N d         -10.058  48.522   1.048  0.00  0.00     0.040 A 
ATOM      6  C19 O2N d          -9.553  47.541   0.197  0.00  0.00    -0.017 A 
ATOM      7  H1  O2N d         -11.441  50.627  -1.237  0.00  0.00     0.083 H 
ATOM      8  H2  O2N d         -10.560  48.877  -2.730  0.00  0.00     0.083 H 
ATOM      9  H3  O2N d         -11.119  50.369   1.211  0.00  0.00     0.085 H 
ATOM     10  H4  O2N d          -9.352  46.933  -1.846  0.00  0.00     0.084 H 
ENDROOT
BRANCH   5  11
ATOM     11  C27 O2N d          -9.861  48.429   2.511  0.00  0.00     0.253 C 
ATOM     12  N36 O2N d          -8.766  49.090   3.070  0.00  0.00    -0.344 N 
ATOM     13  H33 O2N d          -8.133  49.572   2.464  0.00  0.00     0.163 HD
ATOM     14  O39 O2N d         -10.666  47.749   3.154  0.00  0.00    -0.268 OA
BRANCH  12  15
ATOM     15  C35 O2N d          -8.516  49.101   4.499  0.00  0.00     0.063 C 
ATOM     16  H32 O2N d          -7.787  49.896   4.717  0.00  0.00     0.088 H 
BRANCH  15  17
ATOM     17  C17 O2N d          -7.854  47.771   4.902  0.00  0.00    -0.031 A 
ATOM     18  C6  O2N d          -7.635  47.471   6.241  0.00  0.00    -0.072 A 
ATOM     19  C11 O2N d          -7.017  46.281   6.645  0.00  0.00    -0.050 A 
ATOM     20  H6  O2N d          -7.952  48.181   6.996  0.00  0.00     0.084 H 
ATOM     21  C23 O2N d          -6.662  45.359   5.627  0.00  0.00     0.068 A 
ATOM     22  H11 O2N d          -6.818  46.074   7.690  0.00  0.00     0.087 H 
ATOM     23  C12 O2N d          -6.828  45.639   4.280  0.00  0.00    -0.050 A 
ATOM     24  C7  O2N d          -7.433  46.860   3.947  0.00  0.00    -0.072 A 
ATOM     25  H12 O2N d          -6.504  44.943   3.516  0.00  0.00     0.087 H 
ATOM     26  H7  O2N d          -7.578  47.101   2.901  0.00  0.00     0.084 H 
BRANCH  21  27
ATOM     27  O43 O2N d          -6.049  44.165   6.041  0.00  0.00    -0.356 OA
BRANCH  27  28
ATOM     28  C30 O2N d          -4.782  44.202   6.732  0.00  0.00     0.010 C 
ATOM     29  H20 O2N d          -4.928  44.600   7.747  0.00  0.00     0.066 H 
ATOM     30  H21 O2N d          -4.083  44.848   6.182  0.00  0.00     0.066 H 
ATOM     31  H22 O2N d          -4.368  43.184   6.794  0.00  0.00     0.066 H 
ENDBRANCH  27  28
ENDBRANCH  21  27
ENDBRANCH  15  17
BRANCH  15  32
ATOM     32  C18 O2N d          -9.807  49.478   5.221  0.00  0.00    -0.031 A 
ATOM     33  C8  O2N d         -10.181  50.816   5.186  0.00  0.00    -0.072 A 
ATOM     34  C13 O2N d         -11.372  51.206   5.797  0.00  0.00    -0.050 A 
ATOM     35  H8  O2N d          -9.554  51.548   4.691  0.00  0.00     0.084 H 
ATOM     36  C24 O2N d         -12.190  50.294   6.454  0.00  0.00     0.068 A 
ATOM     37  H13 O2N d         -11.667  52.248   5.758  0.00  0.00     0.087 H 
ATOM     38  C14 O2N d         -11.865  48.952   6.525  0.00  0.00    -0.050 A 
ATOM     39  C9  O2N d         -10.668  48.592   5.859  0.00  0.00    -0.072 A 
ATOM     40  H14 O2N d         -12.480  48.231   7.050  0.00  0.00     0.087 H 
ATOM     41  H9  O2N d         -10.401  47.542   5.846  0.00  0.00     0.084 H 
BRANCH  36  42
ATOM     42  O44 O2N d         -13.337  50.829   7.039  0.00  0.00    -0.356 OA
BRANCH  42  43
ATOM     43  C31 O2N d         -14.341  51.145   6.074  0.00  0.00     0.010 C 
ATOM     44  H23 O2N d         -14.943  51.992   6.436  0.00  0.00     0.066 H 
ATOM     45  H24 O2N d         -14.991  50.271   5.922  0.00  0.00     0.066 H 
ATOM     46  H25 O2N d         -13.862  51.417   5.122  0.00  0.00     0.066 H 
ENDBRANCH  42  43
ENDBRANCH  36  42
ENDBRANCH  15  32
ENDBRANCH  12  15
ENDBRANCH   5  11
BRANCH   6  47
ATOM     47  C32 O2N d          -8.798  46.349   0.685  0.00  0.00     0.109 C 
ATOM     48  H26 O2N d          -8.537  46.521   1.740  0.00  0.00     0.083 H 
ATOM     49  H27 O2N d          -7.878  46.262   0.090  0.00  0.00     0.083 H 
BRANCH  47  50
ATOM     50  N37 O2N d          -9.541  45.025   0.595  0.00  0.00    -0.060 N 
ATOM     51  H34 O2N d          -9.502  44.738  -0.371  0.00  0.00     0.281 HD
BRANCH  50  52
ATOM     52  C33 O2N d         -11.059  45.045   0.980  0.00  0.00     0.109 C 
ATOM     53  H28 O2N d         -11.284  44.192   1.639  0.00  0.00     0.083 H 
ATOM     54  H29 O2N d         -11.295  45.984   1.502  0.00  0.00     0.083 H 
BRANCH  52  55
ATOM     55  C20 O2N d         -11.890  44.942  -0.291  0.00  0.00    -0.013 A 
ATOM     56  C5  O2N d         -11.449  44.277  -1.468  0.00  0.00    -0.071 A 
ATOM     57  C10 O2N d         -12.257  44.182  -2.646  0.00  0.00    -0.047 A 
ATOM     58  H5  O2N d         -10.464  43.824  -1.474  0.00  0.00     0.084 H 
ATOM     59  C21 O2N d         -13.477  44.812  -2.578  0.00  0.00     0.106 A 
ATOM     60  H10 O2N d         -11.930  43.649  -3.531  0.00  0.00     0.087 H 
ATOM     61  C22 O2N d         -13.917  45.450  -1.432  0.00  0.00     0.122 A 
ATOM     62  O41 O2N d         -14.414  44.881  -3.564  0.00  0.00    -0.323 OA
ATOM     63  C16 O2N d         -13.161  45.550  -0.264  0.00  0.00     0.085 A 
ATOM     64  O42 O2N d         -15.189  46.015  -1.590  0.00  0.00    -0.322 OA
ATOM     65  C29 O2N d         -15.501  45.585  -2.932  0.00  0.00     0.115 A 
ATOM     66  H18 O2N d         -16.374  44.917  -2.892  0.00  0.00     0.118 H 
ATOM     67  H19 O2N d         -15.745  46.470  -3.537  0.00  0.00     0.118 H 
BRANCH  63  68
ATOM     68  C28 O2N d         -13.782  46.226   0.938  0.00  0.00     0.212 C 
ATOM     69  O38 O2N d         -14.576  45.491   1.608  0.00  0.00    -0.644 OA
ATOM     70  O40 O2N d         -13.468  47.378   1.379  0.00  0.00    -0.644 OA
ENDBRANCH  63  68
ENDBRANCH  52  55
ENDBRANCH  50  52
BRANCH  50  71
ATOM     71  C34 O2N d          -8.796  44.006   1.402  0.00  0.00     0.099 C 
ATOM     72  H30 O2N d          -8.769  44.365   2.441  0.00  0.00     0.082 H 
ATOM     73  H31 O2N d          -9.364  43.066   1.353  0.00  0.00     0.082 H 
BRANCH  71  74
ATOM     74  C26 O2N d          -7.381  43.700   0.993  0.00  0.00    -0.087 C 
ATOM     75  C25 O2N d          -6.748  42.612   1.466  0.00  0.00    -0.123 C 
ATOM     76  H15 O2N d          -5.724  42.402   1.162  0.00  0.00     0.066 H 
ATOM     77  H16 O2N d          -7.261  41.939   2.154  0.00  0.00     0.066 H 
ATOM     78  H17 O2N d          -6.863  44.368   0.307  0.00  0.00     0.078 H 
ENDBRANCH  71  74
ENDBRANCH  50  71
ENDBRANCH  47  50
ENDBRANCH   6  47
TORSDOF 15
ENDMDL
MODEL 4
REMARK VINA RESULT:      -5.8      2.406      7.691
REMARK  15 active torsions:
REMARK  status: ('A' for Active; 'I' for Inactive)
REMARK    1  A    between atoms: C27_27  and  C15_15 
REMARK    2  A    between atoms: C16_16  and  C28_28 
REMARK    3  A    between atoms: C35_35  and  C17_17 
REMARK    4  A    between atoms: C35_35  and  C18_18 
REMARK    5  A    between atoms: C19_19  and  C32_32 
REMARK    6  A    between atoms: C33_33  and  C20_20 
REMARK    7  A    between atoms: C23_23  and  O43_43 
REMARK    8  A    between atoms: C24_24  and  O44_44 
REMARK    9  A    between atoms: C34_34  and  C26_26 
REMARK       I    between atoms: N36_36  and  C27_27 
REMARK   10  A    between atoms: O43_43  and  C30_30 
REMARK   11  A    between atoms: O44_44  and  C31_31 
REMARK   12  A    between atoms: C32_32  and  N37_37 
REMARK   13  A    between atoms: N37_37  and  C33_33 
REMARK   14  A    between atoms: N37_37  and  C34_34 
REMARK   15  A    between atoms: C35_35  and  N36_36 
ROOT
ATOM      1  C1  O2N d         -13.007  50.508   2.966  0.00  0.00    -0.082 A 
ATOM      2  C2  O2N d         -12.402  50.316   4.188  0.00  0.00    -0.082 A 
ATOM      3  C3  O2N d         -12.486  49.825   1.874  0.00  0.00    -0.067 A 
ATOM      4  C4  O2N d         -11.318  49.467   4.347  0.00  0.00    -0.074 A 
ATOM      5  C15 O2N d         -11.402  48.976   2.011  0.00  0.00     0.040 A 
ATOM      6  C19 O2N d         -10.806  48.789   3.258  0.00  0.00    -0.017 A 
ATOM      7  H1  O2N d         -13.860  51.169   2.859  0.00  0.00     0.083 H 
ATOM      8  H2  O2N d         -12.786  50.845   5.052  0.00  0.00     0.083 H 
ATOM      9  H3  O2N d         -12.936  49.960   0.897  0.00  0.00     0.085 H 
ATOM     10  H4  O2N d         -10.871  49.336   5.327  0.00  0.00     0.084 H 
ENDROOT
BRANCH   5  11
ATOM     11  C27 O2N d         -10.908  48.251   0.820  0.00  0.00     0.253 C 
ATOM     12  N36 O2N d         -11.293  46.920   0.656  0.00  0.00    -0.344 N 
ATOM     13  H33 O2N d         -11.856  46.489   1.361  0.00  0.00     0.163 HD
ATOM     14  O39 O2N d         -10.161  48.861   0.050  0.00  0.00    -0.268 OA
BRANCH  12  15
ATOM     15  C35 O2N d         -10.903  46.140  -0.504  0.00  0.00     0.063 C 
ATOM     16  H32 O2N d         -10.436  46.816  -1.236  0.00  0.00     0.088 H 
BRANCH  15  17
ATOM     17  C17 O2N d         -12.167  45.569  -1.172  0.00  0.00    -0.031 A 
ATOM     18  C6  O2N d         -13.401  46.179  -0.980  0.00  0.00    -0.072 A 
ATOM     19  C11 O2N d         -14.576  45.677  -1.553  0.00  0.00    -0.050 A 
ATOM     20  H6  O2N d         -13.455  47.071  -0.366  0.00  0.00     0.084 H 
ATOM     21  C23 O2N d         -14.452  44.537  -2.388  0.00  0.00     0.068 A 
ATOM     22  H11 O2N d         -15.539  46.139  -1.366  0.00  0.00     0.087 H 
ATOM     23  C12 O2N d         -13.247  43.879  -2.572  0.00  0.00    -0.050 A 
ATOM     24  C7  O2N d         -12.114  44.424  -1.949  0.00  0.00    -0.072 A 
ATOM     25  H12 O2N d         -13.182  42.979  -3.173  0.00  0.00     0.087 H 
ATOM     26  H7  O2N d         -11.159  43.929  -2.080  0.00  0.00     0.084 H 
BRANCH  21  27
ATOM     27  O43 O2N d         -15.634  44.044  -2.965  0.00  0.00    -0.356 OA
BRANCH  27  28
ATOM     28  C30 O2N d         -15.970  44.379  -4.329  0.00  0.00     0.010 C 
ATOM     29  H20 O2N d         -16.054  45.471  -4.429  0.00  0.00     0.066 H 
ATOM     30  H21 O2N d         -16.928  43.911  -4.596  0.00  0.00     0.066 H 
ATOM     31  H22 O2N d         -15.182  44.009  -5.002  0.00  0.00     0.066 H 
ENDBRANCH  27  28
ENDBRANCH  21  27
ENDBRANCH  15  17
BRANCH  15  32
ATOM     32  C18 O2N d          -9.830  45.139  -0.084  0.00  0.00    -0.031 A 
ATOM     33  C8  O2N d          -8.876  44.800  -1.036  0.00  0.00    -0.072 A 
ATOM     34  C13 O2N d          -7.853  43.920  -0.690  0.00  0.00    -0.050 A 
ATOM     35  H8  O2N d          -8.927  45.215  -2.035  0.00  0.00     0.084 H 
ATOM     36  C24 O2N d          -7.768  43.358   0.580  0.00  0.00     0.068 A 
ATOM     37  H13 O2N d          -7.103  43.666  -1.430  0.00  0.00     0.087 H 
ATOM     38  C14 O2N d          -8.692  43.654   1.563  0.00  0.00    -0.050 A 
ATOM     39  C9  O2N d          -9.692  44.581   1.183  0.00  0.00    -0.072 A 
ATOM     40  H14 O2N d          -8.654  43.209   2.551  0.00  0.00     0.087 H 
ATOM     41  H9  O2N d         -10.408  44.881   1.940  0.00  0.00     0.084 H 
BRANCH  36  42
ATOM     42  O44 O2N d          -6.706  42.476   0.777  0.00  0.00    -0.356 OA
BRANCH  42  43
ATOM     43  C31 O2N d          -5.906  42.833   1.904  0.00  0.00     0.010 C 
ATOM     44  H23 O2N d          -5.652  41.927   2.475  0.00  0.00     0.066 H 
ATOM     45  H24 O2N d          -6.468  43.526   2.547  0.00  0.00     0.066 H 
ATOM     46  H25 O2N d          -4.982  43.321   1.559  0.00  0.00     0.066 H 
ENDBRANCH  42  43
ENDBRANCH  36  42
ENDBRANCH  15  32
ENDBRANCH  12  15
ENDBRANCH   5  11
BRANCH   6  47
ATOM     47  C32 O2N d          -9.650  47.871   3.478  0.00  0.00     0.109 C 
ATOM     48  H26 O2N d          -9.405  47.396   2.516  0.00  0.00     0.083 H 
ATOM     49  H27 O2N d          -9.961  47.100   4.198  0.00  0.00     0.083 H 
BRANCH  47  50
ATOM     50  N37 O2N d          -8.387  48.529   4.013  0.00  0.00    -0.060 N 
ATOM     51  H34 O2N d          -8.450  49.507   3.776  0.00  0.00     0.281 HD
BRANCH  50  52
ATOM     52  C33 O2N d          -7.028  48.025   3.419  0.00  0.00     0.109 C 
ATOM     53  H28 O2N d          -6.193  48.515   3.941  0.00  0.00     0.083 H 
ATOM     54  H29 O2N d          -6.951  46.936   3.545  0.00  0.00     0.083 H 
BRANCH  52  55
ATOM     55  C20 O2N d          -6.980  48.373   1.938  0.00  0.00    -0.013 A 
ATOM     56  C5  O2N d          -6.992  47.400   0.900  0.00  0.00    -0.071 A 
ATOM     57  C10 O2N d          -6.961  47.755  -0.487  0.00  0.00    -0.047 A 
ATOM     58  H5  O2N d          -7.025  46.350   1.169  0.00  0.00     0.084 H 
ATOM     59  C21 O2N d          -6.880  49.101  -0.751  0.00  0.00     0.106 A 
ATOM     60  H10 O2N d          -6.999  47.012  -1.275  0.00  0.00     0.087 H 
ATOM     61  C22 O2N d          -6.882  50.053   0.253  0.00  0.00     0.122 A 
ATOM     62  O41 O2N d          -6.820  49.688  -1.977  0.00  0.00    -0.323 OA
ATOM     63  C16 O2N d          -6.924  49.743   1.613  0.00  0.00     0.085 A 
ATOM     64  O42 O2N d          -6.798  51.359  -0.248  0.00  0.00    -0.322 OA
ATOM     65  C29 O2N d          -6.822  51.095  -1.667  0.00  0.00     0.115 A 
ATOM     66  H18 O2N d          -7.730  51.546  -2.092  0.00  0.00     0.118 H 
ATOM     67  H19 O2N d          -5.935  51.557  -2.124  0.00  0.00     0.118 H 
BRANCH  63  68
ATOM     68  C28 O2N d          -6.977  50.881   2.607  0.00  0.00     0.212 C 
ATOM     69  O38 O2N d          -8.152  51.231   2.951  0.00  0.00    -0.644 OA
ATOM     70  O40 O2N d          -5.971  51.389   3.200  0.00  0.00    -0.644 OA
ENDBRANCH  63  68
ENDBRANCH  52  55
ENDBRANCH  50  52
BRANCH  50  71
ATOM     71  C34 O2N d          -8.392  48.421   5.507  0.00  0.00     0.099 C 
ATOM     72  H30 O2N d          -7.759  49.231   5.898  0.00  0.00     0.082 H 
ATOM     73  H31 O2N d          -9.429  48.570   5.845  0.00  0.00     0.082 H 
BRANCH  71  74
ATOM     74  C26 O2N d          -7.902  47.133   6.110  0.00  0.00    -0.087 C 
ATOM     75  C25 O2N d          -6.682  47.057   6.671  0.00  0.00    -0.123 C 
ATOM     76  H15 O2N d          -6.340  46.118   7.104  0.00  0.00     0.066 H 
ATOM     77  H16 O2N d          -6.037  47.934   6.693  0.00  0.00     0.066 H 
ATOM     78  H17 O2N d          -8.542  46.253   6.091  0.00  0.00     0.078 H 
ENDBRANCH  71  74
ENDBRANCH  50  71
ENDBRANCH  47  50
ENDBRANCH   6  47
TORSDOF 15
ENDMDL
MODEL 5
REMARK VINA RESULT:      -5.6      2.152      4.654
REMARK  15 active torsions:
REMARK  status: ('A' for Active; 'I' for Inactive)
REMARK    1  A    between atoms: C27_27  and  C15_15 
REMARK    2  A    between atoms: C16_16  and  C28_28 
REMARK    3  A    between atoms: C35_35  and  C17_17 
REMARK    4  A    between atoms: C35_35  and  C18_18 
REMARK    5  A    between atoms: C19_19  and  C32_32 
REMARK    6  A    between atoms: C33_33  and  C20_20 
REMARK    7  A    between atoms: C23_23  and  O43_43 
REMARK    8  A    between atoms: C24_24  and  O44_44 
REMARK    9  A    between atoms: C34_34  and  C26_26 
REMARK       I    between atoms: N36_36  and  C27_27 
REMARK   10  A    between atoms: O43_43  and  C30_30 
REMARK   11  A    between atoms: O44_44  and  C31_31 
REMARK   12  A    between atoms: C32_32  and  N37_37 
REMARK   13  A    between atoms: N37_37  and  C33_33 
REMARK   14  A    between atoms: N37_37  and  C34_34 
REMARK   15  A    between atoms: C35_35  and  N36_36 
ROOT
ATOM      1  C1  O2N d          -6.463  42.294   1.193  0.00  0.00    -0.082 A 
ATOM      2  C2  O2N d          -7.608  41.589   0.894  0.00  0.00    -0.082 A 
ATOM      3  C3  O2N d          -6.560  43.677   1.270  0.00  0.00    -0.067 A 
ATOM      4  C4  O2N d          -8.825  42.217   0.683  0.00  0.00    -0.074 A 
ATOM      5  C15 O2N d          -7.765  44.324   1.060  0.00  0.00     0.040 A 
ATOM      6  C19 O2N d          -8.915  43.593   0.763  0.00  0.00    -0.017 A 
ATOM      7  H1  O2N d          -5.520  41.787   1.364  0.00  0.00     0.083 H 
ATOM      8  H2  O2N d          -7.555  40.509   0.820  0.00  0.00     0.083 H 
ATOM      9  H3  O2N d          -5.675  44.261   1.498  0.00  0.00     0.085 H 
ATOM     10  H4  O2N d          -9.707  41.629   0.455  0.00  0.00     0.084 H 
ENDROOT
BRANCH   5  11
ATOM     11  C27 O2N d          -7.815  45.797   1.185  0.00  0.00     0.253 C 
ATOM     12  N36 O2N d          -7.473  46.364   2.413  0.00  0.00    -0.344 N 
ATOM     13  H33 O2N d          -7.242  45.760   3.176  0.00  0.00     0.163 HD
ATOM     14  O39 O2N d          -8.182  46.441   0.198  0.00  0.00    -0.268 OA
BRANCH  12  15
ATOM     15  C35 O2N d          -7.442  47.800   2.620  0.00  0.00     0.063 C 
ATOM     16  H32 O2N d          -6.807  48.010   3.494  0.00  0.00     0.088 H 
BRANCH  15  17
ATOM     17  C17 O2N d          -8.859  48.285   2.975  0.00  0.00    -0.031 A 
ATOM     18  C6  O2N d          -9.043  49.483   3.654  0.00  0.00    -0.072 A 
ATOM     19  C11 O2N d         -10.315  49.947   4.013  0.00  0.00    -0.050 A 
ATOM     20  H6  O2N d          -8.175  50.078   3.915  0.00  0.00     0.084 H 
ATOM     21  C23 O2N d         -11.427  49.164   3.610  0.00  0.00     0.068 A 
ATOM     22  H11 O2N d         -10.445  50.865   4.575  0.00  0.00     0.087 H 
ATOM     23  C12 O2N d         -11.281  47.945   2.967  0.00  0.00    -0.050 A 
ATOM     24  C7  O2N d          -9.977  47.531   2.659  0.00  0.00    -0.072 A 
ATOM     25  H12 O2N d         -12.141  47.336   2.712  0.00  0.00     0.087 H 
ATOM     26  H7  O2N d          -9.838  46.583   2.152  0.00  0.00     0.084 H 
BRANCH  21  27
ATOM     27  O43 O2N d         -12.699  49.640   3.967  0.00  0.00    -0.356 OA
BRANCH  27  28
ATOM     28  C30 O2N d         -12.876  50.388   5.189  0.00  0.00     0.010 C 
ATOM     29  H20 O2N d         -13.359  49.750   5.944  0.00  0.00     0.066 H 
ATOM     30  H21 O2N d         -13.509  51.266   4.993  0.00  0.00     0.066 H 
ATOM     31  H22 O2N d         -11.896  50.719   5.562  0.00  0.00     0.066 H 
ENDBRANCH  27  28
ENDBRANCH  21  27
ENDBRANCH  15  17
BRANCH  15  32
ATOM     32  C18 O2N d          -6.767  48.455   1.417  0.00  0.00    -0.031 A 
ATOM     33  C8  O2N d          -5.430  48.144   1.198  0.00  0.00    -0.072 A 
ATOM     34  C13 O2N d          -4.779  48.685   0.092  0.00  0.00    -0.050 A 
ATOM     35  H8  O2N d          -4.901  47.489   1.879  0.00  0.00     0.084 H 
ATOM     36  C24 O2N d          -5.426  49.542  -0.792  0.00  0.00     0.068 A 
ATOM     37  H13 O2N d          -3.740  48.432  -0.085  0.00  0.00     0.087 H 
ATOM     38  C14 O2N d          -6.752  49.891  -0.620  0.00  0.00    -0.050 A 
ATOM     39  C9  O2N d          -7.387  49.289   0.494  0.00  0.00    -0.072 A 
ATOM     40  H14 O2N d          -7.267  50.573  -1.287  0.00  0.00     0.087 H 
ATOM     41  H9  O2N d          -8.442  49.494   0.637  0.00  0.00     0.084 H 
BRANCH  36  42
ATOM     42  O44 O2N d          -4.644  50.026  -1.841  0.00  0.00    -0.356 OA
BRANCH  42  43
ATOM     43  C31 O2N d          -3.687  50.991  -1.403  0.00  0.00     0.010 C 
ATOM     44  H23 O2N d          -4.069  51.507  -0.509  0.00  0.00     0.066 H 
ATOM     45  H24 O2N d          -3.514  51.724  -2.204  0.00  0.00     0.066 H 
ATOM     46  H25 O2N d          -2.742  50.484  -1.159  0.00  0.00     0.066 H 
ENDBRANCH  42  43
ENDBRANCH  36  42
ENDBRANCH  15  32
ENDBRANCH  12  15
ENDBRANCH   5  11
BRANCH   6  47
ATOM     47  C32 O2N d         -10.249  44.227   0.549  0.00  0.00     0.109 C 
ATOM     48  H26 O2N d         -10.329  45.089   1.228  0.00  0.00     0.083 H 
ATOM     49  H27 O2N d         -11.022  43.487   0.803  0.00  0.00     0.083 H 
BRANCH  47  50
ATOM     50  N37 O2N d         -10.518  44.718  -0.866  0.00  0.00    -0.060 N 
ATOM     51  H34 O2N d          -9.891  45.491  -1.026  0.00  0.00     0.281 HD
BRANCH  50  52
ATOM     52  C33 O2N d         -11.958  45.259  -1.159  0.00  0.00     0.109 C 
ATOM     53  H28 O2N d         -12.212  45.080  -2.214  0.00  0.00     0.083 H 
ATOM     54  H29 O2N d         -12.685  44.744  -0.514  0.00  0.00     0.083 H 
BRANCH  52  55
ATOM     55  C20 O2N d         -11.989  46.753  -0.872  0.00  0.00    -0.013 A 
ATOM     56  C5  O2N d         -10.967  47.655  -1.281  0.00  0.00    -0.071 A 
ATOM     57  C10 O2N d         -11.027  49.060  -1.012  0.00  0.00    -0.047 A 
ATOM     58  H5  O2N d         -10.110  47.263  -1.818  0.00  0.00     0.084 H 
ATOM     59  C21 O2N d         -12.122  49.477  -0.294  0.00  0.00     0.106 A 
ATOM     60  H10 O2N d         -10.261  49.748  -1.350  0.00  0.00     0.087 H 
ATOM     61  C22 O2N d         -13.126  48.608   0.097  0.00  0.00     0.122 A 
ATOM     62  O41 O2N d         -12.400  50.749   0.103  0.00  0.00    -0.323 OA
ATOM     63  C16 O2N d         -13.104  47.236  -0.161  0.00  0.00     0.085 A 
ATOM     64  O42 O2N d         -14.144  49.253   0.811  0.00  0.00    -0.322 OA
ATOM     65  C29 O2N d         -13.684  50.619   0.744  0.00  0.00     0.115 A 
ATOM     66  H18 O2N d         -14.420  51.209   0.179  0.00  0.00     0.118 H 
ATOM     67  H19 O2N d         -13.606  51.013   1.768  0.00  0.00     0.118 H 
BRANCH  63  68
ATOM     68  C28 O2N d         -14.292  46.406   0.272  0.00  0.00     0.212 C 
ATOM     69  O38 O2N d         -14.581  46.497   1.509  0.00  0.00    -0.644 OA
ATOM     70  O40 O2N d         -15.069  45.768  -0.509  0.00  0.00    -0.644 OA
ENDBRANCH  63  68
ENDBRANCH  52  55
ENDBRANCH  50  52
BRANCH  50  71
ATOM     71  C34 O2N d         -10.150  43.626  -1.824  0.00  0.00     0.099 C 
ATOM     72  H30 O2N d          -9.745  44.104  -2.728  0.00  0.00     0.082 H 
ATOM     73  H31 O2N d          -9.366  43.019  -1.347  0.00  0.00     0.082 H 
BRANCH  71  74
ATOM     74  C26 O2N d         -11.244  42.690  -2.259  0.00  0.00    -0.087 C 
ATOM     75  C25 O2N d         -11.329  41.447  -1.751  0.00  0.00    -0.123 C 
ATOM     76  H15 O2N d         -12.126  40.780  -2.075  0.00  0.00     0.066 H 
ATOM     77  H16 O2N d         -10.601  41.109  -1.014  0.00  0.00     0.066 H 
ATOM     78  H17 O2N d         -11.975  43.021  -2.995  0.00  0.00     0.078 H 
ENDBRANCH  71  74
ENDBRANCH  50  71
ENDBRANCH  47  50
ENDBRANCH   6  47
TORSDOF 15
ENDMDL
MODEL 6
REMARK VINA RESULT:      -5.5      2.560      7.869
REMARK  15 active torsions:
REMARK  status: ('A' for Active; 'I' for Inactive)
REMARK    1  A    between atoms: C27_27  and  C15_15 
REMARK    2  A    between atoms: C16_16  and  C28_28 
REMARK    3  A    between atoms: C35_35  and  C17_17 
REMARK    4  A    between atoms: C35_35  and  C18_18 
REMARK    5  A    between atoms: C19_19  and  C32_32 
REMARK    6  A    between atoms: C33_33  and  C20_20 
REMARK    7  A    between atoms: C23_23  and  O43_43 
REMARK    8  A    between atoms: C24_24  and  O44_44 
REMARK    9  A    between atoms: C34_34  and  C26_26 
REMARK       I    between atoms: N36_36  and  C27_27 
REMARK   10  A    between atoms: O43_43  and  C30_30 
REMARK   11  A    between atoms: O44_44  and  C31_31 
REMARK   12  A    between atoms: C32_32  and  N37_37 
REMARK   13  A    between atoms: N37_37  and  C33_33 
REMARK   14  A    between atoms: N37_37  and  C34_34 
REMARK   15  A    between atoms: C35_35  and  N36_36 
ROOT
ATOM      1  C1  O2N d         -12.453  49.945   4.047  0.00  0.00    -0.082 A 
ATOM      2  C2  O2N d         -11.655  49.705   5.144  0.00  0.00    -0.082 A 
ATOM      3  C3  O2N d         -12.047  49.419   2.827  0.00  0.00    -0.067 A 
ATOM      4  C4  O2N d         -10.490  48.959   5.057  0.00  0.00    -0.074 A 
ATOM      5  C15 O2N d         -10.886  48.675   2.719  0.00  0.00     0.040 A 
ATOM      6  C19 O2N d         -10.094  48.438   3.842  0.00  0.00    -0.017 A 
ATOM      7  H1  O2N d         -13.366  50.523   4.133  0.00  0.00     0.083 H 
ATOM      8  H2  O2N d         -11.948  50.112   6.105  0.00  0.00     0.083 H 
ATOM      9  H3  O2N d         -12.650  49.596   1.944  0.00  0.00     0.085 H 
ATOM     10  H4  O2N d          -9.891  48.786   5.944  0.00  0.00     0.084 H 
ENDROOT
BRANCH   5  11
ATOM     11  C27 O2N d         -10.518  48.114   1.401  0.00  0.00     0.253 C 
ATOM     12  N36 O2N d         -11.269  47.046   0.909  0.00  0.00    -0.344 N 
ATOM     13  H33 O2N d         -12.004  46.672   1.475  0.00  0.00     0.163 HD
ATOM     14  O39 O2N d          -9.548  48.610   0.820  0.00  0.00    -0.268 OA
BRANCH  12  15
ATOM     15  C35 O2N d         -11.020  46.461  -0.395  0.00  0.00     0.063 C 
ATOM     16  H32 O2N d         -10.625  47.246  -1.057  0.00  0.00     0.088 H 
BRANCH  15  17
ATOM     17  C17 O2N d         -12.357  46.001  -1.002  0.00  0.00    -0.031 A 
ATOM     18  C6  O2N d         -12.392  45.387  -2.248  0.00  0.00    -0.072 A 
ATOM     19  C11 O2N d         -13.591  44.974  -2.842  0.00  0.00    -0.050 A 
ATOM     20  H6  O2N d         -11.460  45.223  -2.778  0.00  0.00     0.084 H 
ATOM     21  C23 O2N d         -14.781  45.163  -2.093  0.00  0.00     0.068 A 
ATOM     22  H11 O2N d         -13.609  44.530  -3.831  0.00  0.00     0.087 H 
ATOM     23  C12 O2N d         -14.792  45.806  -0.866  0.00  0.00    -0.050 A 
ATOM     24  C7  O2N d         -13.556  46.214  -0.342  0.00  0.00    -0.072 A 
ATOM     25  H12 O2N d         -15.718  45.987  -0.333  0.00  0.00     0.087 H 
ATOM     26  H7  O2N d         -13.539  46.715   0.618  0.00  0.00     0.084 H 
BRANCH  21  27
ATOM     27  O43 O2N d         -15.979  44.740  -2.693  0.00  0.00    -0.356 OA
BRANCH  27  28
ATOM     28  C30 O2N d         -15.990  44.320  -4.074  0.00  0.00     0.010 C 
ATOM     29  H20 O2N d         -17.013  44.389  -4.471  0.00  0.00     0.066 H 
ATOM     30  H21 O2N d         -15.640  43.279  -4.144  0.00  0.00     0.066 H 
ATOM     31  H22 O2N d         -15.324  44.970  -4.661  0.00  0.00     0.066 H 
ENDBRANCH  27  28
ENDBRANCH  21  27
ENDBRANCH  15  17
BRANCH  15  32
ATOM     32  C18 O2N d          -9.923  45.407  -0.258  0.00  0.00    -0.031 A 
ATOM     33  C8  O2N d         -10.076  44.465   0.751  0.00  0.00    -0.072 A 
ATOM     34  C13 O2N d          -9.123  43.459   0.893  0.00  0.00    -0.050 A 
ATOM     35  H8  O2N d         -10.928  44.512   1.420  0.00  0.00     0.084 H 
ATOM     36  C24 O2N d          -8.011  43.381   0.061  0.00  0.00     0.068 A 
ATOM     37  H13 O2N d          -9.251  42.718   1.673  0.00  0.00     0.087 H 
ATOM     38  C14 O2N d          -7.805  44.295  -0.955  0.00  0.00    -0.050 A 
ATOM     39  C9  O2N d          -8.816  45.277  -1.090  0.00  0.00    -0.072 A 
ATOM     40  H14 O2N d          -6.934  44.262  -1.600  0.00  0.00     0.087 H 
ATOM     41  H9  O2N d          -8.720  45.983  -1.906  0.00  0.00     0.084 H 
BRANCH  36  42
ATOM     42  O44 O2N d          -7.128  42.337   0.334  0.00  0.00    -0.356 OA
BRANCH  42  43
ATOM     43  C31 O2N d          -6.541  42.448   1.630  0.00  0.00     0.010 C 
ATOM     44  H23 O2N d          -6.940  41.657   2.283  0.00  0.00     0.066 H 
ATOM     45  H24 O2N d          -6.781  43.432   2.058  0.00  0.00     0.066 H 
ATOM     46  H25 O2N d          -5.449  42.340   1.548  0.00  0.00     0.066 H 
ENDBRANCH  42  43
ENDBRANCH  36  42
ENDBRANCH  15  32
ENDBRANCH  12  15
ENDBRANCH   5  11
BRANCH   6  47
ATOM     47  C32 O2N d          -8.842  47.624   3.798  0.00  0.00     0.109 C 
ATOM     48  H26 O2N d          -8.420  47.705   2.785  0.00  0.00     0.083 H 
ATOM     49  H27 O2N d          -9.111  46.577   4.000  0.00  0.00     0.083 H 
BRANCH  47  50
ATOM     50  N37 O2N d          -7.765  48.032   4.791  0.00  0.00    -0.060 N 
ATOM     51  H34 O2N d          -8.096  48.867   5.248  0.00  0.00     0.281 HD
BRANCH  50  52
ATOM     52  C33 O2N d          -6.362  48.393   4.194  0.00  0.00     0.109 C 
ATOM     53  H28 O2N d          -5.765  48.924   4.950  0.00  0.00     0.083 H 
ATOM     54  H29 O2N d          -5.840  47.472   3.895  0.00  0.00     0.083 H 
BRANCH  52  55
ATOM     55  C20 O2N d          -6.560  49.286   2.978  0.00  0.00    -0.013 A 
ATOM     56  C5  O2N d          -7.107  50.598   3.046  0.00  0.00    -0.071 A 
ATOM     57  C10 O2N d          -7.268  51.424   1.888  0.00  0.00    -0.047 A 
ATOM     58  H5  O2N d          -7.412  50.987   4.011  0.00  0.00     0.084 H 
ATOM     59  C21 O2N d          -6.896  50.851   0.697  0.00  0.00     0.106 A 
ATOM     60  H10 O2N d          -7.658  52.434   1.948  0.00  0.00     0.087 H 
ATOM     61  C22 O2N d          -6.352  49.580   0.625  0.00  0.00     0.122 A 
ATOM     62  O41 O2N d          -6.968  51.419  -0.539  0.00  0.00    -0.323 OA
ATOM     63  C16 O2N d          -6.169  48.754   1.734  0.00  0.00     0.085 A 
ATOM     64  O42 O2N d          -6.043  49.205  -0.689  0.00  0.00    -0.322 OA
ATOM     65  C29 O2N d          -6.389  50.415  -1.394  0.00  0.00     0.115 A 
ATOM     66  H18 O2N d          -5.477  50.827  -1.851  0.00  0.00     0.118 H 
ATOM     67  H19 O2N d          -7.113  50.166  -2.184  0.00  0.00     0.118 H 
BRANCH  63  68
ATOM     68  C28 O2N d          -5.512  47.408   1.526  0.00  0.00     0.212 C 
ATOM     69  O38 O2N d          -6.322  46.431   1.428  0.00  0.00    -0.644 OA
ATOM     70  O40 O2N d          -4.271  47.220   1.311  0.00  0.00    -0.644 OA
ENDBRANCH  63  68
ENDBRANCH  52  55
ENDBRANCH  50  52
BRANCH  50  71
ATOM     71  C34 O2N d          -7.646  46.959   5.829  0.00  0.00     0.099 C 
ATOM     72  H30 O2N d          -7.308  47.437   6.760  0.00  0.00     0.082 H 
ATOM     73  H31 O2N d          -8.650  46.533   5.980  0.00  0.00     0.082 H 
BRANCH  71  74
ATOM     74  C26 O2N d          -6.710  45.817   5.542  0.00  0.00    -0.087 C 
ATOM     75  C25 O2N d          -5.775  45.452   6.437  0.00  0.00    -0.123 C 
ATOM     76  H15 O2N d          -5.105  44.623   6.216  0.00  0.00     0.066 H 
ATOM     77  H16 O2N d          -5.689  45.984   7.383  0.00  0.00     0.066 H 
ATOM     78  H17 O2N d          -6.791  45.280   4.598  0.00  0.00     0.078 H 
ENDBRANCH  71  74
ENDBRANCH  50  71
ENDBRANCH  47  50
ENDBRANCH   6  47
TORSDOF 15
ENDMDL
MODEL 7
REMARK VINA RESULT:      -5.0      2.500      8.070
REMARK  15 active torsions:
REMARK  status: ('A' for Active; 'I' for Inactive)
REMARK    1  A    between atoms: C27_27  and  C15_15 
REMARK    2  A    between atoms: C16_16  and  C28_28 
REMARK    3  A    between atoms: C35_35  and  C17_17 
REMARK    4  A    between atoms: C35_35  and  C18_18 
REMARK    5  A    between atoms: C19_19  and  C32_32 
REMARK    6  A    between atoms: C33_33  and  C20_20 
REMARK    7  A    between atoms: C23_23  and  O43_43 
REMARK    8  A    between atoms: C24_24  and  O44_44 
REMARK    9  A    between atoms: C34_34  and  C26_26 
REMARK       I    between atoms: N36_36  and  C27_27 
REMARK   10  A    between atoms: O43_43  and  C30_30 
REMARK   11  A    between atoms: O44_44  and  C31_31 
REMARK   12  A    between atoms: C32_32  and  N37_37 
REMARK   13  A    between atoms: N37_37  and  C33_33 
REMARK   14  A    between atoms: N37_37  and  C34_34 
REMARK   15  A    between atoms: C35_35  and  N36_36 
ROOT
ATOM      1  C1  O2N d         -12.380  49.690   4.356  0.00  0.00    -0.082 A 
ATOM      2  C2  O2N d         -11.483  49.534   5.389  0.00  0.00    -0.082 A 
ATOM      3  C3  O2N d         -12.010  49.214   3.104  0.00  0.00    -0.067 A 
ATOM      4  C4  O2N d         -10.255  48.917   5.210  0.00  0.00    -0.074 A 
ATOM      5  C15 O2N d         -10.788  48.598   2.904  0.00  0.00     0.040 A 
ATOM      6  C19 O2N d          -9.895  48.444   3.963  0.00  0.00    -0.017 A 
ATOM      7  H1  O2N d         -13.340  50.167   4.513  0.00  0.00     0.083 H 
ATOM      8  H2  O2N d         -11.746  49.905   6.372  0.00  0.00     0.083 H 
ATOM      9  H3  O2N d         -12.692  49.328   2.269  0.00  0.00     0.085 H 
ATOM     10  H4  O2N d          -9.576  48.806   6.049  0.00  0.00     0.084 H 
ENDROOT
BRANCH   5  11
ATOM     11  C27 O2N d         -10.460  48.084   1.556  0.00  0.00     0.253 C 
ATOM     12  N36 O2N d         -11.125  46.941   1.111  0.00  0.00    -0.344 N 
ATOM     13  H33 O2N d         -11.770  46.488   1.725  0.00  0.00     0.163 HD
ATOM     14  O39 O2N d          -9.596  48.684   0.911  0.00  0.00    -0.268 OA
BRANCH  12  15
ATOM     15  C35 O2N d         -10.911  46.389  -0.214  0.00  0.00     0.063 C 
ATOM     16  H32 O2N d         -10.410  47.151  -0.830  0.00  0.00     0.088 H 
BRANCH  15  17
ATOM     17  C17 O2N d         -12.276  46.117  -0.870  0.00  0.00    -0.031 A 
ATOM     18  C6  O2N d         -12.351  45.476  -2.101  0.00  0.00    -0.072 A 
ATOM     19  C11 O2N d         -13.573  45.230  -2.739  0.00  0.00    -0.050 A 
ATOM     20  H6  O2N d         -11.433  45.157  -2.583  0.00  0.00     0.084 H 
ATOM     21  C23 O2N d         -14.751  45.619  -2.051  0.00  0.00     0.068 A 
ATOM     22  H11 O2N d         -13.617  44.762  -3.716  0.00  0.00     0.087 H 
ATOM     23  C12 O2N d         -14.716  46.295  -0.842  0.00  0.00    -0.050 A 
ATOM     24  C7  O2N d         -13.455  46.529  -0.272  0.00  0.00    -0.072 A 
ATOM     25  H12 O2N d         -15.625  46.630  -0.357  0.00  0.00     0.087 H 
ATOM     26  H7  O2N d         -13.402  47.052   0.675  0.00  0.00     0.084 H 
BRANCH  21  27
ATOM     27  O43 O2N d         -15.973  45.362  -2.694  0.00  0.00    -0.356 OA
BRANCH  27  28
ATOM     28  C30 O2N d         -16.049  44.363  -3.734  0.00  0.00     0.010 C 
ATOM     29  H20 O2N d         -17.059  43.928  -3.751  0.00  0.00     0.066 H 
ATOM     30  H21 O2N d         -15.313  43.571  -3.536  0.00  0.00     0.066 H 
ATOM     31  H22 O2N d         -15.834  44.828  -4.707  0.00  0.00     0.066 H 
ENDBRANCH  27  28
ENDBRANCH  21  27
ENDBRANCH  15  17
BRANCH  15  32
ATOM     32  C18 O2N d          -9.948  45.209  -0.104  0.00  0.00    -0.031 A 
ATOM     33  C8  O2N d         -10.022  44.441   1.051  0.00  0.00    -0.072 A 
ATOM     34  C13 O2N d          -9.192  43.329   1.183  0.00  0.00    -0.050 A 
ATOM     35  H8  O2N d         -10.718  44.702   1.840  0.00  0.00     0.084 H 
ATOM     36  C24 O2N d          -8.278  42.977   0.196  0.00  0.00     0.068 A 
ATOM     37  H13 O2N d          -9.260  42.724   2.079  0.00  0.00     0.087 H 
ATOM     38  C14 O2N d          -8.157  43.708  -0.970  0.00  0.00    -0.050 A 
ATOM     39  C9  O2N d          -9.045  44.805  -1.081  0.00  0.00    -0.072 A 
ATOM     40  H14 O2N d          -7.436  43.460  -1.741  0.00  0.00     0.087 H 
ATOM     41  H9  O2N d          -9.019  45.376  -2.002  0.00  0.00     0.084 H 
BRANCH  36  42
ATOM     42  O44 O2N d          -7.496  41.856   0.474  0.00  0.00    -0.356 OA
BRANCH  42  43
ATOM     43  C31 O2N d          -8.085  40.650  -0.013  0.00  0.00     0.010 C 
ATOM     44  H23 O2N d          -7.696  40.431  -1.019  0.00  0.00     0.066 H 
ATOM     45  H24 O2N d          -9.177  40.768  -0.060  0.00  0.00     0.066 H 
ATOM     46  H25 O2N d          -7.835  39.820   0.666  0.00  0.00     0.066 H 
ENDBRANCH  42  43
ENDBRANCH  36  42
ENDBRANCH  15  32
ENDBRANCH  12  15
ENDBRANCH   5  11
BRANCH   6  47
ATOM     47  C32 O2N d          -8.570  47.769   3.820  0.00  0.00     0.109 C 
ATOM     48  H26 O2N d          -8.746  46.758   3.423  0.00  0.00     0.083 H 
ATOM     49  H27 O2N d          -8.116  47.697   4.819  0.00  0.00     0.083 H 
BRANCH  47  50
ATOM     50  N37 O2N d          -7.579  48.468   2.903  0.00  0.00    -0.060 N 
ATOM     51  H34 O2N d          -8.116  48.866   2.148  0.00  0.00     0.281 HD
BRANCH  50  52
ATOM     52  C33 O2N d          -6.489  47.567   2.231  0.00  0.00     0.109 C 
ATOM     53  H28 O2N d          -6.844  47.230   1.245  0.00  0.00     0.083 H 
ATOM     54  H29 O2N d          -5.558  48.140   2.110  0.00  0.00     0.083 H 
BRANCH  52  55
ATOM     55  C20 O2N d          -6.233  46.359   3.122  0.00  0.00    -0.013 A 
ATOM     56  C5  O2N d          -7.030  45.181   3.099  0.00  0.00    -0.071 A 
ATOM     57  C10 O2N d          -6.758  44.052   3.936  0.00  0.00    -0.047 A 
ATOM     58  H5  O2N d          -7.875  45.136   2.421  0.00  0.00     0.084 H 
ATOM     59  C21 O2N d          -5.696  44.197   4.796  0.00  0.00     0.106 A 
ATOM     60  H10 O2N d          -7.350  43.146   3.896  0.00  0.00     0.087 H 
ATOM     61  C22 O2N d          -4.909  45.335   4.815  0.00  0.00     0.122 A 
ATOM     62  O41 O2N d          -5.249  43.282   5.700  0.00  0.00    -0.323 OA
ATOM     63  C16 O2N d          -5.138  46.447   4.003  0.00  0.00     0.085 A 
ATOM     64  O42 O2N d          -3.882  45.259   5.765  0.00  0.00    -0.322 OA
ATOM     65  C29 O2N d          -4.089  43.922   6.266  0.00  0.00     0.115 A 
ATOM     66  H18 O2N d          -3.203  43.317   6.025  0.00  0.00     0.118 H 
ATOM     67  H19 O2N d          -4.213  43.971   7.358  0.00  0.00     0.118 H 
BRANCH  63  68
ATOM     68  C28 O2N d          -4.169  47.605   4.083  0.00  0.00     0.212 C 
ATOM     69  O38 O2N d          -3.372  47.699   3.093  0.00  0.00    -0.644 OA
ATOM     70  O40 O2N d          -4.192  48.526   4.960  0.00  0.00    -0.644 OA
ENDBRANCH  63  68
ENDBRANCH  52  55
ENDBRANCH  50  52
BRANCH  50  71
ATOM     71  C34 O2N d          -6.949  49.598   3.659  0.00  0.00     0.099 C 
ATOM     72  H30 O2N d          -7.645  49.887   4.460  0.00  0.00     0.082 H 
ATOM     73  H31 O2N d          -6.016  49.220   4.102  0.00  0.00     0.082 H 
BRANCH  71  74
ATOM     74  C26 O2N d          -6.609  50.843   2.886  0.00  0.00    -0.087 C 
ATOM     75  C25 O2N d          -7.193  51.099   1.702  0.00  0.00    -0.123 C 
ATOM     76  H15 O2N d          -6.938  52.005   1.154  0.00  0.00     0.066 H 
ATOM     77  H16 O2N d          -7.922  50.402   1.292  0.00  0.00     0.066 H 
ATOM     78  H17 O2N d          -5.882  51.545   3.290  0.00  0.00     0.078 H 
ENDBRANCH  71  74
ENDBRANCH  50  71
ENDBRANCH  47  50
ENDBRANCH   6  47
TORSDOF 15
ENDMDL
MODEL 8
REMARK VINA RESULT:      -4.9      2.220      4.523
REMARK  15 active torsions:
REMARK  status: ('A' for Active; 'I' for Inactive)
REMARK    1  A    between atoms: C27_27  and  C15_15 
REMARK    2  A    between atoms: C16_16  and  C28_28 
REMARK    3  A    between atoms: C35_35  and  C17_17 
REMARK    4  A    between atoms: C35_35  and  C18_18 
REMARK    5  A    between atoms: C19_19  and  C32_32 
REMARK    6  A    between atoms: C33_33  and  C20_20 
REMARK    7  A    between atoms: C23_23  and  O43_43 
REMARK    8  A    between atoms: C24_24  and  O44_44 
REMARK    9  A    between atoms: C34_34  and  C26_26 
REMARK       I    between atoms: N36_36  and  C27_27 
REMARK   10  A    between atoms: O43_43  and  C30_30 
REMARK   11  A    between atoms: O44_44  and  C31_31 
REMARK   12  A    between atoms: C32_32  and  N37_37 
REMARK   13  A    between atoms: N37_37  and  C33_33 
REMARK   14  A    between atoms: N37_37  and  C34_34 
REMARK   15  A    between atoms: C35_35  and  N36_36 
ROOT
ATOM      1  C1  O2N d          -7.952  41.913   0.247  0.00  0.00    -0.082 A 
ATOM      2  C2  O2N d          -8.885  42.428  -0.625  0.00  0.00    -0.082 A 
ATOM      3  C3  O2N d          -7.374  42.785   1.161  0.00  0.00    -0.067 A 
ATOM      4  C4  O2N d          -9.257  43.763  -0.601  0.00  0.00    -0.074 A 
ATOM      5  C15 O2N d          -7.730  44.121   1.199  0.00  0.00     0.040 A 
ATOM      6  C19 O2N d          -8.681  44.624   0.312  0.00  0.00    -0.017 A 
ATOM      7  H1  O2N d          -7.677  40.865   0.221  0.00  0.00     0.083 H 
ATOM      8  H2  O2N d          -9.343  41.768  -1.353  0.00  0.00     0.083 H 
ATOM      9  H3  O2N d          -6.631  42.411   1.857  0.00  0.00     0.085 H 
ATOM     10  H4  O2N d         -10.001  44.131  -1.299  0.00  0.00     0.084 H 
ENDROOT
BRANCH   5  11
ATOM     11  C27 O2N d          -7.104  44.997   2.214  0.00  0.00     0.253 C 
ATOM     12  N36 O2N d          -6.285  46.035   1.770  0.00  0.00    -0.344 N 
ATOM     13  H33 O2N d          -6.117  46.132   0.789  0.00  0.00     0.163 HD
ATOM     14  O39 O2N d          -7.325  44.743   3.402  0.00  0.00    -0.268 OA
BRANCH  12  15
ATOM     15  C35 O2N d          -5.667  46.978   2.683  0.00  0.00     0.063 C 
ATOM     16  H32 O2N d          -4.839  47.478   2.158  0.00  0.00     0.088 H 
BRANCH  15  17
ATOM     17  C17 O2N d          -5.043  46.203   3.858  0.00  0.00    -0.031 A 
ATOM     18  C6  O2N d          -5.396  46.504   5.167  0.00  0.00    -0.072 A 
ATOM     19  C11 O2N d          -4.835  45.836   6.262  0.00  0.00    -0.050 A 
ATOM     20  H6  O2N d          -6.130  47.282   5.347  0.00  0.00     0.084 H 
ATOM     21  C23 O2N d          -3.916  44.792   5.981  0.00  0.00     0.068 A 
ATOM     22  H11 O2N d          -5.091  46.104   7.281  0.00  0.00     0.087 H 
ATOM     23  C12 O2N d          -3.509  44.489   4.691  0.00  0.00    -0.050 A 
ATOM     24  C7  O2N d          -4.096  45.215   3.644  0.00  0.00    -0.072 A 
ATOM     25  H12 O2N d          -2.768  43.722   4.500  0.00  0.00     0.087 H 
ATOM     26  H7  O2N d          -3.797  44.994   2.626  0.00  0.00     0.084 H 
BRANCH  21  27
ATOM     27  O43 O2N d          -3.363  44.121   7.084  0.00  0.00    -0.356 OA
BRANCH  27  28
ATOM     28  C30 O2N d          -3.560  42.700   7.241  0.00  0.00     0.010 C 
ATOM     29  H20 O2N d          -4.259  42.338   6.473  0.00  0.00     0.066 H 
ATOM     30  H21 O2N d          -3.974  42.495   8.239  0.00  0.00     0.066 H 
ATOM     31  H22 O2N d          -2.595  42.182   7.132  0.00  0.00     0.066 H 
ENDBRANCH  27  28
ENDBRANCH  21  27
ENDBRANCH  15  17
BRANCH  15  32
ATOM     32  C18 O2N d          -6.684  48.062   3.032  0.00  0.00    -0.031 A 
ATOM     33  C8  O2N d          -6.857  49.085   2.108  0.00  0.00    -0.072 A 
ATOM     34  C13 O2N d          -7.802  50.077   2.361  0.00  0.00    -0.050 A 
ATOM     35  H8  O2N d          -6.265  49.111   1.201  0.00  0.00     0.084 H 
ATOM     36  C24 O2N d          -8.567  50.081   3.522  0.00  0.00     0.068 A 
ATOM     37  H13 O2N d          -7.944  50.868   1.633  0.00  0.00     0.087 H 
ATOM     38  C14 O2N d          -8.432  49.093   4.479  0.00  0.00    -0.050 A 
ATOM     39  C9  O2N d          -7.490  48.083   4.165  0.00  0.00    -0.072 A 
ATOM     40  H14 O2N d          -9.005  49.091   5.399  0.00  0.00     0.087 H 
ATOM     41  H9  O2N d          -7.389  47.261   4.864  0.00  0.00     0.084 H 
BRANCH  36  42
ATOM     42  O44 O2N d          -9.455  51.149   3.653  0.00  0.00    -0.356 OA
BRANCH  42  43
ATOM     43  C31 O2N d         -10.187  51.098   4.878  0.00  0.00     0.010 C 
ATOM     44  H23 O2N d         -10.985  51.856   4.860  0.00  0.00     0.066 H 
ATOM     45  H24 O2N d          -9.508  51.301   5.719  0.00  0.00     0.066 H 
ATOM     46  H25 O2N d         -10.632  50.099   4.998  0.00  0.00     0.066 H 
ENDBRANCH  42  43
ENDBRANCH  36  42
ENDBRANCH  15  32
ENDBRANCH  12  15
ENDBRANCH   5  11
BRANCH   6  47
ATOM     47  C32 O2N d          -9.125  46.049   0.317  0.00  0.00     0.109 C 
ATOM     48  H26 O2N d          -8.878  46.485  -0.663  0.00  0.00     0.083 H 
ATOM     49  H27 O2N d          -8.568  46.576   1.104  0.00  0.00     0.083 H 
BRANCH  47  50
ATOM     50  N37 O2N d         -10.610  46.267   0.567  0.00  0.00    -0.060 N 
ATOM     51  H34 O2N d         -11.045  45.359   0.529  0.00  0.00     0.281 HD
BRANCH  50  52
ATOM     52  C33 O2N d         -11.372  47.156  -0.473  0.00  0.00     0.109 C 
ATOM     53  H28 O2N d         -11.967  47.916   0.056  0.00  0.00     0.083 H 
ATOM     54  H29 O2N d         -10.649  47.653  -1.135  0.00  0.00     0.083 H 
BRANCH  52  55
ATOM     55  C20 O2N d         -12.294  46.268  -1.297  0.00  0.00    -0.013 A 
ATOM     56  C5  O2N d         -11.864  45.529  -2.434  0.00  0.00    -0.071 A 
ATOM     57  C10 O2N d         -12.748  44.688  -3.184  0.00  0.00    -0.047 A 
ATOM     58  H5  O2N d         -10.828  45.605  -2.745  0.00  0.00     0.084 H 
ATOM     59  C21 O2N d         -14.053  44.673  -2.754  0.00  0.00     0.106 A 
ATOM     60  H10 O2N d         -12.411  44.105  -4.032  0.00  0.00     0.087 H 
ATOM     61  C22 O2N d         -14.475  45.379  -1.642  0.00  0.00     0.122 A 
ATOM     62  O41 O2N d         -15.084  43.973  -3.305  0.00  0.00    -0.323 OA
ATOM     63  C16 O2N d         -13.638  46.196  -0.882  0.00  0.00     0.085 A 
ATOM     64  O42 O2N d         -15.843  45.210  -1.388  0.00  0.00    -0.322 OA
ATOM     65  C29 O2N d         -16.185  44.265  -2.424  0.00  0.00     0.115 A 
ATOM     66  H18 O2N d         -16.513  43.329  -1.950  0.00  0.00     0.118 H 
ATOM     67  H19 O2N d         -17.010  44.683  -3.020  0.00  0.00     0.118 H 
BRANCH  63  68
ATOM     68  C28 O2N d         -14.212  46.869   0.344  0.00  0.00     0.212 C 
ATOM     69  O38 O2N d         -14.323  46.113   1.362  0.00  0.00    -0.644 OA
ATOM     70  O40 O2N d         -14.446  48.116   0.460  0.00  0.00    -0.644 OA
ENDBRANCH  63  68
ENDBRANCH  52  55
ENDBRANCH  50  52
BRANCH  50  71
ATOM     71  C34 O2N d         -10.783  46.798   1.957  0.00  0.00     0.099 C 
ATOM     72  H30 O2N d         -11.657  46.294   2.395  0.00  0.00     0.082 H 
ATOM     73  H31 O2N d          -9.881  46.532   2.527  0.00  0.00     0.082 H 
BRANCH  71  74
ATOM     74  C26 O2N d         -10.993  48.280   2.111  0.00  0.00    -0.087 C 
ATOM     75  C25 O2N d         -12.019  48.758   2.836  0.00  0.00    -0.123 C 
ATOM     76  H15 O2N d         -12.159  49.833   2.939  0.00  0.00     0.066 H 
ATOM     77  H16 O2N d         -12.711  48.070   3.321  0.00  0.00     0.066 H 
ATOM     78  H17 O2N d         -10.305  48.973   1.629  0.00  0.00     0.078 H 
ENDBRANCH  71  74
ENDBRANCH  50  71
ENDBRANCH  47  50
ENDBRANCH   6  47
TORSDOF 15
ENDMDL
MODEL 9
REMARK VINA RESULT:      -4.3      2.453      6.238
REMARK  15 active torsions:
REMARK  status: ('A' for Active; 'I' for Inactive)
REMARK    1  A    between atoms: C27_27  and  C15_15 
REMARK    2  A    between atoms: C16_16  and  C28_28 
REMARK    3  A    between atoms: C35_35  and  C17_17 
REMARK    4  A    between atoms: C35_35  and  C18_18 
REMARK    5  A    between atoms: C19_19  and  C32_32 
REMARK    6  A    between atoms: C33_33  and  C20_20 
REMARK    7  A    between atoms: C23_23  and  O43_43 
REMARK    8  A    between atoms: C24_24  and  O44_44 
REMARK    9  A    between atoms: C34_34  and  C26_26 
REMARK       I    between atoms: N36_36  and  C27_27 
REMARK   10  A    between atoms: O43_43  and  C30_30 
REMARK   11  A    between atoms: O44_44  and  C31_31 
REMARK   12  A    between atoms: C32_32  and  N37_37 
REMARK   13  A    between atoms: N37_37  and  C33_33 
REMARK   14  A    between atoms: N37_37  and  C34_34 
REMARK   15  A    between atoms: C35_35  and  N36_36 
ROOT
ATOM      1  C1  O2N d          -8.000  49.963  -0.663  0.00  0.00    -0.082 A 
ATOM      2  C2  O2N d          -7.449  48.901  -1.345  0.00  0.00    -0.082 A 
ATOM      3  C3  O2N d          -8.208  49.814   0.703  0.00  0.00    -0.067 A 
ATOM      4  C4  O2N d          -7.097  47.721  -0.709  0.00  0.00    -0.074 A 
ATOM      5  C15 O2N d          -7.866  48.643   1.356  0.00  0.00     0.040 A 
ATOM      6  C19 O2N d          -7.305  47.580   0.649  0.00  0.00    -0.017 A 
ATOM      7  H1  O2N d          -8.262  50.883  -1.173  0.00  0.00     0.083 H 
ATOM      8  H2  O2N d          -7.286  48.991  -2.412  0.00  0.00     0.083 H 
ATOM      9  H3  O2N d          -8.646  50.630   1.266  0.00  0.00     0.085 H 
ATOM     10  H4  O2N d          -6.660  46.908  -1.278  0.00  0.00     0.084 H 
ENDROOT
BRANCH   5  11
ATOM     11  C27 O2N d          -8.082  48.552   2.816  0.00  0.00     0.253 C 
ATOM     12  N36 O2N d          -7.251  49.299   3.650  0.00  0.00    -0.344 N 
ATOM     13  H33 O2N d          -6.516  49.841   3.241  0.00  0.00     0.163 HD
ATOM     14  O39 O2N d          -8.974  47.797   3.216  0.00  0.00    -0.268 OA
BRANCH  12  15
ATOM     15  C35 O2N d          -7.415  49.317   5.092  0.00  0.00     0.063 C 
ATOM     16  H32 O2N d          -6.813  50.143   5.499  0.00  0.00     0.088 H 
BRANCH  15  17
ATOM     17  C17 O2N d          -6.836  48.017   5.678  0.00  0.00    -0.031 A 
ATOM     18  C6  O2N d          -5.650  47.488   5.182  0.00  0.00    -0.072 A 
ATOM     19  C11 O2N d          -5.103  46.296   5.675  0.00  0.00    -0.050 A 
ATOM     20  H6  O2N d          -5.132  48.015   4.389  0.00  0.00     0.084 H 
ATOM     21  C23 O2N d          -5.787  45.665   6.746  0.00  0.00     0.068 A 
ATOM     22  H11 O2N d          -4.197  45.874   5.256  0.00  0.00     0.087 H 
ATOM     23  C12 O2N d          -6.992  46.140   7.239  0.00  0.00    -0.050 A 
ATOM     24  C7  O2N d          -7.493  47.327   6.683  0.00  0.00    -0.072 A 
ATOM     25  H12 O2N d          -7.526  45.616   8.023  0.00  0.00     0.087 H 
ATOM     26  H7  O2N d          -8.431  47.720   7.055  0.00  0.00     0.084 H 
BRANCH  21  27
ATOM     27  O43 O2N d          -5.229  44.475   7.239  0.00  0.00    -0.356 OA
BRANCH  27  28
ATOM     28  C30 O2N d          -4.422  43.641   6.379  0.00  0.00     0.010 C 
ATOM     29  H20 O2N d          -5.020  42.786   6.032  0.00  0.00     0.066 H 
ATOM     30  H21 O2N d          -3.549  43.275   6.937  0.00  0.00     0.066 H 
ATOM     31  H22 O2N d          -4.084  44.228   5.512  0.00  0.00     0.066 H 
ENDBRANCH  27  28
ENDBRANCH  21  27
ENDBRANCH  15  17
BRANCH  15  32
ATOM     32  C18 O2N d          -8.873  49.633   5.416  0.00  0.00    -0.031 A 
ATOM     33  C8  O2N d          -9.326  50.909   5.104  0.00  0.00    -0.072 A 
ATOM     34  C13 O2N d         -10.659  51.235   5.344  0.00  0.00    -0.050 A 
ATOM     35  H8  O2N d          -8.650  51.642   4.678  0.00  0.00     0.084 H 
ATOM     36  C24 O2N d         -11.547  50.323   5.903  0.00  0.00     0.068 A 
ATOM     37  H13 O2N d         -11.013  52.227   5.088  0.00  0.00     0.087 H 
ATOM     38  C14 O2N d         -11.150  49.043   6.239  0.00  0.00    -0.050 A 
ATOM     39  C9  O2N d          -9.799  48.740   5.943  0.00  0.00    -0.072 A 
ATOM     40  H14 O2N d         -11.823  48.325   6.695  0.00  0.00     0.087 H 
ATOM     41  H9  O2N d          -9.459  47.730   6.144  0.00  0.00     0.084 H 
BRANCH  36  42
ATOM     42  O44 O2N d         -12.843  50.794   6.109  0.00  0.00    -0.356 OA
BRANCH  42  43
ATOM     43  C31 O2N d         -13.655  49.858   6.817  0.00  0.00     0.010 C 
ATOM     44  H23 O2N d         -13.105  48.912   6.937  0.00  0.00     0.066 H 
ATOM     45  H24 O2N d         -14.581  49.675   6.253  0.00  0.00     0.066 H 
ATOM     46  H25 O2N d         -13.904  50.266   7.809  0.00  0.00     0.066 H 
ENDBRANCH  42  43
ENDBRANCH  36  42
ENDBRANCH  15  32
ENDBRANCH  12  15
ENDBRANCH   5  11
BRANCH   6  47
ATOM     47  C32 O2N d          -6.893  46.300   1.297  0.00  0.00     0.109 C 
ATOM     48  H26 O2N d          -7.066  46.395   2.380  0.00  0.00     0.083 H 
ATOM     49  H27 O2N d          -5.819  46.153   1.109  0.00  0.00     0.083 H 
BRANCH  47  50
ATOM     50  N37 O2N d          -7.627  45.059   0.812  0.00  0.00    -0.060 N 
ATOM     51  H34 O2N d          -7.708  45.145  -0.189  0.00  0.00     0.281 HD
BRANCH  50  52
ATOM     52  C33 O2N d          -9.083  44.850   1.349  0.00  0.00     0.109 C 
ATOM     53  H28 O2N d          -9.094  44.025   2.077  0.00  0.00     0.083 H 
ATOM     54  H29 O2N d          -9.433  45.773   1.835  0.00  0.00     0.083 H 
BRANCH  52  55
ATOM     55  C20 O2N d          -9.994  44.511   0.179  0.00  0.00    -0.013 A 
ATOM     56  C5  O2N d          -9.820  43.367  -0.649  0.00  0.00    -0.071 A 
ATOM     57  C10 O2N d         -10.701  43.063  -1.735  0.00  0.00    -0.047 A 
ATOM     58  H5  O2N d          -8.988  42.701  -0.450  0.00  0.00     0.084 H 
ATOM     59  C21 O2N d         -11.708  43.972  -1.952  0.00  0.00     0.106 A 
ATOM     60  H10 O2N d         -10.582  42.175  -2.346  0.00  0.00     0.087 H 
ATOM     61  C22 O2N d         -11.892  45.080  -1.143  0.00  0.00     0.122 A 
ATOM     62  O41 O2N d         -12.658  43.919  -2.926  0.00  0.00    -0.323 OA
ATOM     63  C16 O2N d         -11.059  45.399  -0.069  0.00  0.00     0.085 A 
ATOM     64  O42 O2N d         -12.981  45.862  -1.547  0.00  0.00    -0.322 OA
ATOM     65  C29 O2N d         -13.482  45.067  -2.641  0.00  0.00     0.115 A 
ATOM     66  H18 O2N d         -14.493  44.718  -2.387  0.00  0.00     0.118 H 
ATOM     67  H19 O2N d         -13.528  45.698  -3.541  0.00  0.00     0.118 H 
BRANCH  63  68
ATOM     68  C28 O2N d         -11.403  46.609   0.770  0.00  0.00     0.212 C 
ATOM     69  O38 O2N d         -11.040  47.722   0.271  0.00  0.00    -0.644 OA
ATOM     70  O40 O2N d         -12.122  46.596   1.821  0.00  0.00    -0.644 OA
ENDBRANCH  63  68
ENDBRANCH  52  55
ENDBRANCH  50  52
BRANCH  50  71
ATOM     71  C34 O2N d          -6.773  43.861   1.098  0.00  0.00     0.099 C 
ATOM     72  H30 O2N d          -6.818  43.207   0.215  0.00  0.00     0.082 H 
ATOM     73  H31 O2N d          -5.741  44.217   1.239  0.00  0.00     0.082 H 
BRANCH  71  74
ATOM     74  C26 O2N d          -7.130  43.027   2.297  0.00  0.00    -0.087 C 
ATOM     75  C25 O2N d          -6.554  43.256   3.491  0.00  0.00    -0.123 C 
ATOM     76  H15 O2N d          -6.822  42.644   4.351  0.00  0.00     0.066 H 
ATOM     77  H16 O2N d          -5.819  44.054   3.597  0.00  0.00     0.066 H 
ATOM     78  H17 O2N d          -7.863  42.228   2.198  0.00  0.00     0.078 H 
ENDBRANCH  71  74
ENDBRANCH  50  71
ENDBRANCH  47  50
ENDBRANCH   6  47
TORSDOF 15
ENDMDL
MODEL 10
REMARK VINA RESULT:      -4.2      2.261      6.847
REMARK  15 active torsions:
REMARK  status: ('A' for Active; 'I' for Inactive)
REMARK    1  A    between atoms: C27_27  and  C15_15 
REMARK    2  A    between atoms: C16_16  and  C28_28 
REMARK    3  A    between atoms: C35_35  and  C17_17 
REMARK    4  A    between atoms: C35_35  and  C18_18 
REMARK    5  A    between atoms: C19_19  and  C32_32 
REMARK    6  A    between atoms: C33_33  and  C20_20 
REMARK    7  A    between atoms: C23_23  and  O43_43 
REMARK    8  A    between atoms: C24_24  and  O44_44 
REMARK    9  A    between atoms: C34_34  and  C26_26 
REMARK       I    between atoms: N36_36  and  C27_27 
REMARK   10  A    between atoms: O43_43  and  C30_30 
REMARK   11  A    between atoms: O44_44  and  C31_31 
REMARK   12  A    between atoms: C32_32  and  N37_37 
REMARK   13  A    between atoms: N37_37  and  C33_33 
REMARK   14  A    between atoms: N37_37  and  C34_34 
REMARK   15  A    between atoms: C35_35  and  N36_36 
ROOT
ATOM      1  C1  O2N d         -12.478  48.580   1.349  0.00  0.00    -0.082 A 
ATOM      2  C2  O2N d         -12.239  49.392   2.435  0.00  0.00    -0.082 A 
ATOM      3  C3  O2N d         -11.617  47.509   1.143  0.00  0.00    -0.067 A 
ATOM      4  C4  O2N d         -11.190  49.160   3.311  0.00  0.00    -0.074 A 
ATOM      5  C15 O2N d         -10.562  47.262   2.004  0.00  0.00     0.040 A 
ATOM      6  C19 O2N d         -10.339  48.092   3.102  0.00  0.00    -0.017 A 
ATOM      7  H1  O2N d         -13.307  48.769   0.678  0.00  0.00     0.083 H 
ATOM      8  H2  O2N d         -12.892  50.238   2.611  0.00  0.00     0.083 H 
ATOM      9  H3  O2N d         -11.775  46.854   0.293  0.00  0.00     0.085 H 
ATOM     10  H4  O2N d         -11.037  49.817   4.160  0.00  0.00     0.084 H 
ENDROOT
BRANCH   5  11
ATOM     11  C27 O2N d          -9.696  46.089   1.753  0.00  0.00     0.253 C 
ATOM     12  N36 O2N d          -8.420  46.314   1.236  0.00  0.00    -0.344 N 
ATOM     13  H33 O2N d          -8.146  47.251   1.018  0.00  0.00     0.163 HD
ATOM     14  O39 O2N d         -10.163  44.972   1.994  0.00  0.00    -0.268 OA
BRANCH  12  15
ATOM     15  C35 O2N d          -7.478  45.235   1.004  0.00  0.00     0.063 C 
ATOM     16  H32 O2N d          -6.686  45.605   0.335  0.00  0.00     0.088 H 
BRANCH  15  17
ATOM     17  C17 O2N d          -8.195  44.097   0.255  0.00  0.00    -0.031 A 
ATOM     18  C6  O2N d          -8.826  44.341  -0.959  0.00  0.00    -0.072 A 
ATOM     19  C11 O2N d          -9.507  43.337  -1.659  0.00  0.00    -0.050 A 
ATOM     20  H6  O2N d          -8.791  45.341  -1.377  0.00  0.00     0.084 H 
ATOM     21  C23 O2N d          -9.486  42.033  -1.101  0.00  0.00     0.068 A 
ATOM     22  H11 O2N d         -10.026  43.547  -2.587  0.00  0.00     0.087 H 
ATOM     23  C12 O2N d          -8.903  41.759   0.126  0.00  0.00    -0.050 A 
ATOM     24  C7  O2N d          -8.258  42.819   0.782  0.00  0.00    -0.072 A 
ATOM     25  H12 O2N d          -8.942  40.767   0.560  0.00  0.00     0.087 H 
ATOM     26  H7  O2N d          -7.791  42.629   1.741  0.00  0.00     0.084 H 
BRANCH  21  27
ATOM     27  O43 O2N d         -10.165  41.030  -1.813  0.00  0.00    -0.356 OA
BRANCH  27  28
ATOM     28  C30 O2N d         -11.605  40.951  -1.759  0.00  0.00     0.010 C 
ATOM     29  H20 O2N d         -12.036  41.556  -2.570  0.00  0.00     0.066 H 
ATOM     30  H21 O2N d         -11.958  41.332  -0.790  0.00  0.00     0.066 H 
ATOM     31  H22 O2N d         -11.920  39.903  -1.877  0.00  0.00     0.066 H 
ENDBRANCH  27  28
ENDBRANCH  21  27
ENDBRANCH  15  17
BRANCH  15  32
ATOM     32  C18 O2N d          -6.805  44.877   2.327  0.00  0.00    -0.031 A 
ATOM     33  C8  O2N d          -7.248  45.548   3.461  0.00  0.00    -0.072 A 
ATOM     34  C13 O2N d          -6.694  45.229   4.699  0.00  0.00    -0.050 A 
ATOM     35  H8  O2N d          -8.016  46.309   3.383  0.00  0.00     0.084 H 
ATOM     36  C24 O2N d          -5.696  44.269   4.829  0.00  0.00     0.068 A 
ATOM     37  H13 O2N d          -7.049  45.744   5.584  0.00  0.00     0.087 H 
ATOM     38  C14 O2N d          -5.214  43.576   3.735  0.00  0.00    -0.050 A 
ATOM     39  C9  O2N d          -5.831  43.902   2.503  0.00  0.00    -0.072 A 
ATOM     40  H14 O2N d          -4.423  42.839   3.815  0.00  0.00     0.087 H 
ATOM     41  H9  O2N d          -5.518  43.346   1.627  0.00  0.00     0.084 H 
BRANCH  36  42
ATOM     42  O44 O2N d          -5.218  44.071   6.124  0.00  0.00    -0.356 OA
BRANCH  42  43
ATOM     43  C31 O2N d          -4.789  45.288   6.736  0.00  0.00     0.010 C 
ATOM     44  H23 O2N d          -4.096  45.813   6.061  0.00  0.00     0.066 H 
ATOM     45  H24 O2N d          -4.278  45.061   7.683  0.00  0.00     0.066 H 
ATOM     46  H25 O2N d          -5.663  45.926   6.934  0.00  0.00     0.066 H 
ENDBRANCH  42  43
ENDBRANCH  36  42
ENDBRANCH  15  32
ENDBRANCH  12  15
ENDBRANCH   5  11
BRANCH   6  47
ATOM     47  C32 O2N d          -9.235  47.867   4.081  0.00  0.00     0.109 C 
ATOM     48  H26 O2N d          -8.572  47.089   3.673  0.00  0.00     0.083 H 
ATOM     49  H27 O2N d          -9.681  47.514   5.022  0.00  0.00     0.083 H 
BRANCH  47  50
ATOM     50  N37 O2N d          -8.385  49.089   4.395  0.00  0.00    -0.060 N 
ATOM     51  H34 O2N d          -8.815  49.869   3.922  0.00  0.00     0.281 HD
BRANCH  50  52
ATOM     52  C33 O2N d          -6.897  49.054   3.908  0.00  0.00     0.109 C 
ATOM     53  H28 O2N d          -6.323  49.843   4.415  0.00  0.00     0.083 H 
ATOM     54  H29 O2N d          -6.456  48.073   4.140  0.00  0.00     0.083 H 
BRANCH  52  55
ATOM     55  C20 O2N d          -6.867  49.285   2.404  0.00  0.00    -0.013 A 
ATOM     56  C5  O2N d          -7.933  49.887   1.679  0.00  0.00    -0.071 A 
ATOM     57  C10 O2N d          -7.874  50.108   0.265  0.00  0.00    -0.047 A 
ATOM     58  H5  O2N d          -8.825  50.190   2.217  0.00  0.00     0.084 H 
ATOM     59  C21 O2N d          -6.731  49.663  -0.354  0.00  0.00     0.106 A 
ATOM     60  H10 O2N d          -8.676  50.592  -0.279  0.00  0.00     0.087 H 
ATOM     61  C22 O2N d          -5.685  49.089   0.346  0.00  0.00     0.122 A 
ATOM     62  O41 O2N d          -6.442  49.738  -1.683  0.00  0.00    -0.323 OA
ATOM     63  C16 O2N d          -5.705  48.871   1.725  0.00  0.00     0.085 A 
ATOM     64  O42 O2N d          -4.623  48.717  -0.488  0.00  0.00    -0.322 OA
ATOM     65  C29 O2N d          -5.109  49.198  -1.758  0.00  0.00     0.115 A 
ATOM     66  H18 O2N d          -4.431  49.986  -2.117  0.00  0.00     0.118 H 
ATOM     67  H19 O2N d          -5.109  48.361  -2.473  0.00  0.00     0.118 H 
BRANCH  63  68
ATOM     68  C28 O2N d          -4.473  48.285   2.377  0.00  0.00     0.212 C 
ATOM     69  O38 O2N d          -3.688  49.143   2.895  0.00  0.00    -0.644 OA
ATOM     70  O40 O2N d          -4.253  47.044   2.556  0.00  0.00    -0.644 OA
ENDBRANCH  63  68
ENDBRANCH  52  55
ENDBRANCH  50  52
BRANCH  50  71
ATOM     71  C34 O2N d          -8.461  49.353   5.868  0.00  0.00     0.099 C 
ATOM     72  H30 O2N d          -8.025  48.484   6.382  0.00  0.00     0.082 H 
ATOM     73  H31 O2N d          -7.851  50.245   6.076  0.00  0.00     0.082 H 
BRANCH  71  74
ATOM     74  C26 O2N d          -9.823  49.591   6.459  0.00  0.00    -0.087 C 
ATOM     75  C25 O2N d         -10.341  50.831   6.519  0.00  0.00    -0.123 C 
ATOM     76  H15 O2N d         -11.329  50.988   6.949  0.00  0.00     0.066 H 
ATOM     77  H16 O2N d          -9.773  51.677   6.136  0.00  0.00     0.066 H 
ATOM     78  H17 O2N d         -10.397  48.749   6.844  0.00  0.00     0.078 H 
ENDBRANCH  71  74
ENDBRANCH  50  71
ENDBRANCH  47  50
ENDBRANCH   6  47
TORSDOF 15
ENDMDL
