MODEL 1
REMARK VINA RESULT:      -8.8      0.000      0.000
REMARK  5 active torsions:
REMARK  status: ('A' for Active; 'I' for Inactive)
REMARK    1  A    between atoms: C1_1  and  C7_7 
REMARK    2  A    between atoms: C7_7  and  N1_8 
REMARK    3  A    between atoms: C8_12  and  C1'_13 
REMARK    4  A    between atoms: C5'_17  and  C1''_20 
REMARK    5  A    between atoms: C6'_18  and  O6'_19 
ROOT
ATOM      1  C1' MOL d          43.345  -2.258  32.196  0.00  0.00     0.025 A 
ATOM      2  C2' MOL d          42.572  -3.223  32.832  0.00  0.00    -0.068 A 
ATOM      3  C3' MOL d          42.321  -3.175  34.184  0.00  0.00    -0.081 A 
ATOM      4  C4' MOL d          42.838  -2.150  34.940  0.00  0.00    -0.070 A 
ATOM      5  C5' MOL d          43.631  -1.129  34.369  0.00  0.00     0.008 A 
ATOM      6  C6' MOL d          43.865  -1.219  32.996  0.00  0.00     0.089 A 
ATOM      7  H10 MOL d          42.156  -4.036  32.248  0.00  0.00     0.085 H 
ATOM      8  H11 MOL d          41.717  -3.944  34.652  0.00  0.00     0.083 H 
ATOM      9  H12 MOL d          42.631  -2.124  36.004  0.00  0.00     0.085 H 
ENDROOT
BRANCH   1  10
ATOM     10  C8  MOL d          43.588  -2.314  30.822  0.00  0.00     0.046 A 
ATOM     11  N3  MOL d          43.749  -1.253  30.094  0.00  0.00    -0.355 N 
ATOM     12  C4  MOL d          43.891  -1.689  28.895  0.00  0.00     0.043 A 
ATOM     13  H8  MOL d          43.760  -0.273  30.409  0.00  0.00     0.166 HD
ATOM     14  C3  MOL d          44.106  -0.981  27.759  0.00  0.00    -0.055 A 
ATOM     15  C5  MOL d          43.813  -3.022  28.943  0.00  0.00    -0.006 A 
ATOM     16  C2  MOL d          44.247  -1.718  26.584  0.00  0.00    -0.067 A 
ATOM     17  H2  MOL d          44.165   0.101  27.764  0.00  0.00     0.087 H 
ATOM     18  C1  MOL d          44.171  -3.152  26.554  0.00  0.00     0.008 A 
ATOM     19  H1  MOL d          44.421  -1.187  25.655  0.00  0.00     0.085 H 
ATOM     20  C6  MOL d          43.944  -3.811  27.795  0.00  0.00    -0.057 A 
ATOM     21  H3  MOL d          43.875  -4.892  27.850  0.00  0.00     0.086 H 
ATOM     22  CN4 MOL d          43.613  -3.466  30.178  0.00  0.00    -0.044 A 
ATOM     23  H9  MOL d          43.503  -4.483  30.551  0.00  0.00     0.088 H 
BRANCH  18  24
ATOM     24  C7  MOL d          44.334  -3.836  25.334  0.00  0.00     0.102 C 
ATOM     25  N2  MOL d          44.716  -3.174  24.259  0.00  0.00    -0.385 N 
ATOM     26  H6  MOL d          44.895  -2.161  24.315  0.00  0.00     0.157 HD
ATOM     27  H7  MOL d          44.834  -3.669  23.364  0.00  0.00     0.157 HD
BRANCH  24  28
ATOM     28  N1  MOL d          44.106  -5.127  25.258  0.00  0.00    -0.385 N 
ATOM     29  H4  MOL d          43.144  -5.486  25.342  0.00  0.00     0.157 HD
ATOM     30  H5  MOL d          44.890  -5.780  25.114  0.00  0.00     0.157 HD
ENDBRANCH  24  28
ENDBRANCH  18  24
ENDBRANCH   1  10
BRANCH   6  31
ATOM     31  O6' MOL d          44.653  -0.258  32.398  0.00  0.00    -0.359 OA
ATOM     32  H13 MOL d          44.407  -0.172  31.484  0.00  0.00     0.217 HD
ENDBRANCH   6  31
BRANCH   5  33
ATOM     33  C1' MOL d          44.125  -0.074  35.172  0.00  0.00    -0.023 A 
ATOM     34  C2' MOL d          45.269  -0.190  35.949  0.00  0.00    -0.072 A 
ATOM     35  C3' MOL d          45.724   0.834  36.750  0.00  0.00    -0.082 A 
ATOM     36  H14 MOL d          45.824  -1.121  35.924  0.00  0.00     0.084 H 
ATOM     37  C4' MOL d          45.052   2.030  36.804  0.00  0.00    -0.083 A 
ATOM     38  H15 MOL d          46.621   0.695  37.343  0.00  0.00     0.083 H 
ATOM     39  C5' MOL d          43.902   2.208  36.046  0.00  0.00    -0.082 A 
ATOM     40  H16 MOL d          45.417   2.831  37.436  0.00  0.00     0.083 H 
ATOM     41  C6' MOL d          43.453   1.164  35.241  0.00  0.00    -0.072 A 
ATOM     42  H17 MOL d          43.361   3.148  36.080  0.00  0.00     0.083 H 
ATOM     43  H18 MOL d          42.556   1.307  34.649  0.00  0.00     0.084 H 
ENDBRANCH   5  33
TORSDOF 5
ENDMDL
MODEL 2
REMARK VINA RESULT:      -7.0      2.860      8.344
REMARK  5 active torsions:
REMARK  status: ('A' for Active; 'I' for Inactive)
REMARK    1  A    between atoms: C1_1  and  C7_7 
REMARK    2  A    between atoms: C7_7  and  N1_8 
REMARK    3  A    between atoms: C8_12  and  C1'_13 
REMARK    4  A    between atoms: C5'_17  and  C1''_20 
REMARK    5  A    between atoms: C6'_18  and  O6'_19 
ROOT
ATOM      1  C1' MOL d          43.399  -2.484  31.340  0.00  0.00     0.025 A 
ATOM      2  C2' MOL d          43.118  -3.774  31.778  0.00  0.00    -0.068 A 
ATOM      3  C3' MOL d          43.075  -4.841  30.910  0.00  0.00    -0.081 A 
ATOM      4  C4' MOL d          43.317  -4.643  29.572  0.00  0.00    -0.070 A 
ATOM      5  C5' MOL d          43.612  -3.365  29.047  0.00  0.00     0.008 A 
ATOM      6  C6' MOL d          43.641  -2.310  29.962  0.00  0.00     0.089 A 
ATOM      7  H10 MOL d          42.928  -3.943  32.832  0.00  0.00     0.085 H 
ATOM      8  H11 MOL d          42.850  -5.834  31.282  0.00  0.00     0.083 H 
ATOM      9  H12 MOL d          43.281  -5.493  28.899  0.00  0.00     0.085 H 
ENDROOT
BRANCH   1  10
ATOM     10  C8  MOL d          43.446  -1.410  32.232  0.00  0.00     0.046 A 
ATOM     11  N3  MOL d          44.488  -0.648  32.358  0.00  0.00    -0.355 N 
ATOM     12  C4  MOL d          44.187   0.177  33.294  0.00  0.00     0.043 A 
ATOM     13  H8  MOL d          45.367  -0.695  31.823  0.00  0.00     0.166 HD
ATOM     14  C3  MOL d          44.932   1.193  33.797  0.00  0.00    -0.055 A 
ATOM     15  C5  MOL d          42.950  -0.118  33.705  0.00  0.00    -0.006 A 
ATOM     16  C2  MOL d          44.345   1.955  34.805  0.00  0.00    -0.067 A 
ATOM     17  H2  MOL d          45.932   1.401  33.433  0.00  0.00     0.087 H 
ATOM     18  C1  MOL d          43.022   1.696  35.302  0.00  0.00     0.008 A 
ATOM     19  H1  MOL d          44.909   2.776  35.232  0.00  0.00     0.085 H 
ATOM     20  C6  MOL d          42.313   0.610  34.715  0.00  0.00    -0.057 A 
ATOM     21  H3  MOL d          41.311   0.356  35.039  0.00  0.00     0.086 H 
ATOM     22  CN4 MOL d          42.436  -1.146  33.040  0.00  0.00    -0.044 A 
ATOM     23  H9  MOL d          41.465  -1.630  33.134  0.00  0.00     0.088 H 
BRANCH  18  24
ATOM     24  C7  MOL d          42.484   2.512  36.316  0.00  0.00     0.102 C 
ATOM     25  N2  MOL d          42.638   3.820  36.253  0.00  0.00    -0.385 N 
ATOM     26  H6  MOL d          43.149   4.241  35.464  0.00  0.00     0.157 HD
ATOM     27  H7  MOL d          42.248   4.421  36.993  0.00  0.00     0.157 HD
BRANCH  24  28
ATOM     28  N1  MOL d          41.832   1.981  37.324  0.00  0.00    -0.385 N 
ATOM     29  H4  MOL d          41.231   2.571  37.918  0.00  0.00     0.157 HD
ATOM     30  H5  MOL d          41.922   0.974  37.522  0.00  0.00     0.157 HD
ENDBRANCH  24  28
ENDBRANCH  18  24
ENDBRANCH   1  10
BRANCH   6  31
ATOM     31  O6' MOL d          43.901  -1.039  29.493  0.00  0.00    -0.359 OA
ATOM     32  H13 MOL d          44.827  -0.960  29.293  0.00  0.00     0.217 HD
ENDBRANCH   6  31
BRANCH   5  33
ATOM     33  C1' MOL d          43.882  -3.202  27.668  0.00  0.00    -0.023 A 
ATOM     34  C2' MOL d          44.212  -1.977  27.105  0.00  0.00    -0.072 A 
ATOM     35  C3' MOL d          44.444  -1.825  25.755  0.00  0.00    -0.082 A 
ATOM     36  H14 MOL d          44.289  -1.110  27.750  0.00  0.00     0.084 H 
ATOM     37  C4' MOL d          44.362  -2.900  24.906  0.00  0.00    -0.083 A 
ATOM     38  H15 MOL d          44.695  -0.846  25.360  0.00  0.00     0.083 H 
ATOM     39  C5' MOL d          44.039  -4.153  25.412  0.00  0.00    -0.082 A 
ATOM     40  H16 MOL d          44.547  -2.772  23.846  0.00  0.00     0.083 H 
ATOM     41  C6' MOL d          43.806  -4.292  26.778  0.00  0.00    -0.072 A 
ATOM     42  H17 MOL d          43.970  -5.011  24.752  0.00  0.00     0.083 H 
ATOM     43  H18 MOL d          43.557  -5.272  27.170  0.00  0.00     0.084 H 
ENDBRANCH   5  33
TORSDOF 5
ENDMDL
MODEL 3
REMARK VINA RESULT:      -6.9      1.031      1.848
REMARK  5 active torsions:
REMARK  status: ('A' for Active; 'I' for Inactive)
REMARK    1  A    between atoms: C1_1  and  C7_7 
REMARK    2  A    between atoms: C7_7  and  N1_8 
REMARK    3  A    between atoms: C8_12  and  C1'_13 
REMARK    4  A    between atoms: C5'_17  and  C1''_20 
REMARK    5  A    between atoms: C6'_18  and  O6'_19 
ROOT
ATOM      1  C1' MOL d          43.306  -2.303  32.848  0.00  0.00     0.025 A 
ATOM      2  C2' MOL d          42.829  -3.274  33.722  0.00  0.00    -0.068 A 
ATOM      3  C3' MOL d          42.703  -3.036  35.072  0.00  0.00    -0.081 A 
ATOM      4  C4' MOL d          43.052  -1.810  35.585  0.00  0.00    -0.070 A 
ATOM      5  C5' MOL d          43.544  -0.770  34.764  0.00  0.00     0.008 A 
ATOM      6  C6' MOL d          43.659  -1.055  33.402  0.00  0.00     0.089 A 
ATOM      7  H10 MOL d          42.547  -4.245  33.330  0.00  0.00     0.085 H 
ATOM      8  H11 MOL d          42.330  -3.814  35.728  0.00  0.00     0.083 H 
ATOM      9  H12 MOL d          42.947  -1.635  36.650  0.00  0.00     0.085 H 
ENDROOT
BRANCH   1  10
ATOM     10  C8  MOL d          43.423  -2.555  31.480  0.00  0.00     0.046 A 
ATOM     11  N3  MOL d          43.265  -3.736  30.968  0.00  0.00    -0.355 N 
ATOM     12  C4  MOL d          43.500  -3.592  29.715  0.00  0.00     0.043 A 
ATOM     13  H8  MOL d          43.006  -4.603  31.461  0.00  0.00     0.166 HD
ATOM     14  C3  MOL d          43.453  -4.525  28.733  0.00  0.00    -0.055 A 
ATOM     15  C5  MOL d          43.795  -2.305  29.509  0.00  0.00    -0.006 A 
ATOM     16  C2  MOL d          43.737  -4.086  27.441  0.00  0.00    -0.067 A 
ATOM     17  H2  MOL d          43.208  -5.561  28.942  0.00  0.00     0.087 H 
ATOM     18  C1  MOL d          44.065  -2.719  27.142  0.00  0.00     0.008 A 
ATOM     19  H1  MOL d          43.708  -4.803  26.629  0.00  0.00     0.085 H 
ATOM     20  C6  MOL d          44.090  -1.808  28.235  0.00  0.00    -0.057 A 
ATOM     21  H3  MOL d          44.330  -0.761  28.085  0.00  0.00     0.086 H 
ATOM     22  CN4 MOL d          43.757  -1.599  30.633  0.00  0.00    -0.044 A 
ATOM     23  H9  MOL d          43.947  -0.541  30.806  0.00  0.00     0.088 H 
BRANCH  18  24
ATOM     24  C7  MOL d          44.330  -2.339  25.812  0.00  0.00     0.102 C 
ATOM     25  N2  MOL d          44.189  -1.078  25.452  0.00  0.00    -0.385 N 
ATOM     26  H6  MOL d          43.889  -0.376  26.143  0.00  0.00     0.157 HD
ATOM     27  H7  MOL d          44.379  -0.795  24.480  0.00  0.00     0.157 HD
BRANCH  24  28
ATOM     28  N1  MOL d          44.712  -3.230  24.927  0.00  0.00    -0.385 N 
ATOM     29  H4  MOL d          44.233  -3.292  24.017  0.00  0.00     0.157 HD
ATOM     30  H5  MOL d          45.492  -3.869  25.144  0.00  0.00     0.157 HD
ENDBRANCH  24  28
ENDBRANCH  18  24
ENDBRANCH   1  10
BRANCH   6  31
ATOM     31  O6' MOL d          44.157  -0.079  32.565  0.00  0.00    -0.359 OA
ATOM     32  H13 MOL d          43.830   0.770  32.841  0.00  0.00     0.217 HD
ENDBRANCH   6  31
BRANCH   5  33
ATOM     33  C1' MOL d          43.868   0.490  35.322  0.00  0.00    -0.023 A 
ATOM     34  C2' MOL d          43.062   1.609  35.171  0.00  0.00    -0.072 A 
ATOM     35  C3' MOL d          43.403   2.839  35.694  0.00  0.00    -0.082 A 
ATOM     36  H14 MOL d          42.132   1.514  34.623  0.00  0.00     0.084 H 
ATOM     37  C4' MOL d          44.569   2.999  36.398  0.00  0.00    -0.083 A 
ATOM     38  H15 MOL d          42.743   3.687  35.547  0.00  0.00     0.083 H 
ATOM     39  C5' MOL d          45.415   1.913  36.586  0.00  0.00    -0.082 A 
ATOM     40  H16 MOL d          44.830   3.968  36.807  0.00  0.00     0.083 H 
ATOM     41  C6' MOL d          45.059   0.677  36.052  0.00  0.00    -0.072 A 
ATOM     42  H17 MOL d          46.340   2.026  37.140  0.00  0.00     0.083 H 
ATOM     43  H18 MOL d          45.720  -0.169  36.201  0.00  0.00     0.084 H 
ENDBRANCH   5  33
TORSDOF 5
ENDMDL
MODEL 4
REMARK VINA RESULT:      -6.5      2.340      3.456
REMARK  5 active torsions:
REMARK  status: ('A' for Active; 'I' for Inactive)
REMARK    1  A    between atoms: C1_1  and  C7_7 
REMARK    2  A    between atoms: C7_7  and  N1_8 
REMARK    3  A    between atoms: C8_12  and  C1'_13 
REMARK    4  A    between atoms: C5'_17  and  C1''_20 
REMARK    5  A    between atoms: C6'_18  and  O6'_19 
ROOT
ATOM      1  C1' MOL d          42.717  -2.040  32.050  0.00  0.00     0.025 A 
ATOM      2  C2' MOL d          42.068  -0.881  32.460  0.00  0.00    -0.068 A 
ATOM      3  C3' MOL d          41.603  -0.726  33.746  0.00  0.00    -0.081 A 
ATOM      4  C4' MOL d          41.780  -1.735  34.662  0.00  0.00    -0.070 A 
ATOM      5  C5' MOL d          42.430  -2.944  34.325  0.00  0.00     0.008 A 
ATOM      6  C6' MOL d          42.881  -3.060  33.010  0.00  0.00     0.089 A 
ATOM      7  H10 MOL d          41.924  -0.076  31.748  0.00  0.00     0.085 H 
ATOM      8  H11 MOL d          41.099   0.189  34.035  0.00  0.00     0.083 H 
ATOM      9  H12 MOL d          41.410  -1.600  35.673  0.00  0.00     0.085 H 
ENDROOT
BRANCH   1  10
ATOM     10  C8  MOL d          43.189  -2.183  30.743  0.00  0.00     0.046 A 
ATOM     11  N3  MOL d          43.940  -1.295  30.168  0.00  0.00    -0.355 N 
ATOM     12  C4  MOL d          44.124  -1.734  28.977  0.00  0.00     0.043 A 
ATOM     13  H8  MOL d          44.310  -0.426  30.580  0.00  0.00     0.166 HD
ATOM     14  C3  MOL d          44.854  -1.182  27.976  0.00  0.00    -0.055 A 
ATOM     15  C5  MOL d          43.468  -2.893  28.872  0.00  0.00    -0.006 A 
ATOM     16  C2  MOL d          44.901  -1.890  26.776  0.00  0.00    -0.067 A 
ATOM     17  H2  MOL d          45.373  -0.239  28.102  0.00  0.00     0.087 H 
ATOM     18  C1  MOL d          44.219  -3.140  26.587  0.00  0.00     0.008 A 
ATOM     19  H1  MOL d          45.475  -1.481  25.953  0.00  0.00     0.085 H 
ATOM     20  C6  MOL d          43.477  -3.645  27.692  0.00  0.00    -0.057 A 
ATOM     21  H3  MOL d          42.937  -4.582  27.622  0.00  0.00     0.086 H 
ATOM     22  CN4 MOL d          42.845  -3.217  30.000  0.00  0.00    -0.044 A 
ATOM     23  H9  MOL d          42.231  -4.084  30.240  0.00  0.00     0.088 H 
BRANCH  18  24
ATOM     24  C7  MOL d          44.317  -3.810  25.352  0.00  0.00     0.102 C 
ATOM     25  N2  MOL d          44.619  -3.131  24.262  0.00  0.00    -0.385 N 
ATOM     26  H6  MOL d          44.784  -2.116  24.317  0.00  0.00     0.157 HD
ATOM     27  H7  MOL d          44.690  -3.617  23.356  0.00  0.00     0.157 HD
BRANCH  24  28
ATOM     28  N1  MOL d          44.108  -5.104  25.277  0.00  0.00    -0.385 N 
ATOM     29  H4  MOL d          43.850  -5.634  26.122  0.00  0.00     0.157 HD
ATOM     30  H5  MOL d          44.202  -5.589  24.373  0.00  0.00     0.157 HD
ENDBRANCH  24  28
ENDBRANCH  18  24
ENDBRANCH   1  10
BRANCH   6  31
ATOM     31  O6' MOL d          43.501  -4.232  32.627  0.00  0.00    -0.359 OA
ATOM     32  H13 MOL d          44.177  -4.037  31.989  0.00  0.00     0.217 HD
ENDBRANCH   6  31
BRANCH   5  33
ATOM     33  C1' MOL d          42.618  -3.951  35.301  0.00  0.00    -0.023 A 
ATOM     34  C2' MOL d          42.465  -5.303  35.027  0.00  0.00    -0.072 A 
ATOM     35  C3' MOL d          42.622  -6.274  35.993  0.00  0.00    -0.082 A 
ATOM     36  H14 MOL d          42.213  -5.606  34.018  0.00  0.00     0.084 H 
ATOM     37  C4' MOL d          42.946  -5.931  37.282  0.00  0.00    -0.083 A 
ATOM     38  H15 MOL d          42.488  -7.318  35.732  0.00  0.00     0.083 H 
ATOM     39  C5' MOL d          43.117  -4.593  37.616  0.00  0.00    -0.082 A 
ATOM     40  H16 MOL d          43.069  -6.700  38.035  0.00  0.00     0.083 H 
ATOM     41  C6' MOL d          42.954  -3.623  36.630  0.00  0.00    -0.072 A 
ATOM     42  H17 MOL d          43.373  -4.309  38.631  0.00  0.00     0.083 H 
ATOM     43  H18 MOL d          43.090  -2.580  36.894  0.00  0.00     0.084 H 
ENDBRANCH   5  33
TORSDOF 5
ENDMDL
