MODEL 1
REMARK VINA RESULT:      -8.8      0.000      0.000
REMARK  5 active torsions:
REMARK  status: ('A' for Active; 'I' for Inactive)
REMARK    1  A    between atoms: N19_3  and  C23_4 
REMARK    2  A    between atoms: C23_4  and  C24_5 
REMARK    3  A    between atoms: C10_20  and  C7_21 
REMARK    4  A    between atoms: C4_24  and  C3_27 
REMARK    5  A    between atoms: C3_27  and  N1_28 
ROOT
ATOM      1  O21 FSN d          16.659 -12.000  21.768  0.00  0.00    -0.272 OA
ATOM      2  C20 FSN d          16.151 -12.033  20.661  0.00  0.00     0.234 C 
ATOM      3  N19 FSN d          15.153 -11.117  20.259  0.00  0.00    -0.283 N 
ATOM      4  C17 FSN d          14.882 -11.254  18.867  0.00  0.00     0.233 C 
ATOM      5  O18 FSN d          14.056 -10.603  18.247  0.00  0.00    -0.272 OA
ATOM      6  C16 FSN d          15.755 -12.287  18.316  0.00  0.00     0.066 C 
ATOM      7  C15 FSN d          16.995 -11.782  17.579  0.00  0.00     0.117 C 
ATOM      8  N11 FSN d          18.275 -11.751  18.428  0.00  0.00    -0.057 N 
ATOM      9  C12 FSN d          19.314 -12.025  17.395  0.00  0.00     0.085 C 
ATOM     10  C13 FSN d          18.681 -11.529  16.055  0.00  0.00    -0.040 C 
ATOM     11  C14 FSN d          17.233 -12.032  16.146  0.00  0.00    -0.036 C 
ATOM     12  C10 FSN d          17.956 -13.027  19.205  0.00  0.00     0.142 C 
ATOM     13  C22 FSN d          16.478 -12.938  19.538  0.00  0.00     0.069 C 
ATOM     14  H7  FSN d          15.175 -12.996  17.708  0.00  0.00     0.059 H 
ATOM     15  H8  FSN d          16.748 -10.710  17.534  0.00  0.00     0.086 H 
ATOM     16  H9  FSN d          18.447 -10.931  18.987  0.00  0.00     0.281 HD
ATOM     17  H10 FSN d          19.536 -13.102  17.344  0.00  0.00     0.076 H 
ATOM     18  H11 FSN d          20.238 -11.470  17.616  0.00  0.00     0.076 H 
ATOM     19  H12 FSN d          19.198 -11.968  15.188  0.00  0.00     0.035 H 
ATOM     20  H13 FSN d          18.714 -10.432  15.985  0.00  0.00     0.035 H 
ATOM     21  H14 FSN d          16.553 -11.451  15.507  0.00  0.00     0.036 H 
ATOM     22  H15 FSN d          17.151 -13.101  15.894  0.00  0.00     0.036 H 
ATOM     23  H16 FSN d          18.040 -13.849  18.480  0.00  0.00     0.093 H 
ATOM     24  H25 FSN d          16.092 -13.947  19.744  0.00  0.00     0.059 H 
ENDROOT
BRANCH  12  25
ATOM     25  C7  FSN d          18.929 -13.415  20.277  0.00  0.00    -0.027 A 
ATOM     26  C8  FSN d          19.976 -12.540  20.551  0.00  0.00    -0.074 A 
ATOM     27  C9  FSN d          20.868 -12.825  21.576  0.00  0.00    -0.069 A 
ATOM     28  H17 FSN d          20.096 -11.637  19.965  0.00  0.00     0.084 H 
ATOM     29  C4  FSN d          20.692 -14.021  22.326  0.00  0.00     0.007 A 
ATOM     30  H18 FSN d          21.684 -12.148  21.801  0.00  0.00     0.085 H 
ATOM     31  C5  FSN d          19.638 -14.901  22.057  0.00  0.00    -0.069 A 
ATOM     32  C6  FSN d          18.742 -14.603  21.026  0.00  0.00    -0.074 A 
ATOM     33  H19 FSN d          19.517 -15.805  22.643  0.00  0.00     0.085 H 
ATOM     34  H20 FSN d          17.917 -15.270  20.803  0.00  0.00     0.084 H 
BRANCH  29  35
ATOM     35  C3  FSN d          21.646 -14.308  23.385  0.00  0.00     0.102 C 
ATOM     36  N2  FSN d          22.849 -13.685  23.477  0.00  0.00    -0.385 N 
ATOM     37  H23 FSN d          23.114 -12.973  22.783  0.00  0.00     0.157 HD
ATOM     38  H24 FSN d          23.496 -13.924  24.242  0.00  0.00     0.157 HD
BRANCH  35  39
ATOM     39  N1  FSN d          21.389 -15.230  24.348  0.00  0.00    -0.385 N 
ATOM     40  H21 FSN d          21.646 -15.038  25.327  0.00  0.00     0.157 HD
ATOM     41  H22 FSN d          20.936 -16.121  24.100  0.00  0.00     0.157 HD
ENDBRANCH  35  39
ENDBRANCH  29  35
ENDBRANCH  12  25
BRANCH   3  42
ATOM     42  C23 FSN d          14.708 -10.045  21.149  0.00  0.00     0.029 C 
ATOM     43  H1  FSN d          14.380  -9.184  20.547  0.00  0.00     0.072 H 
ATOM     44  H2  FSN d          15.543  -9.741  21.798  0.00  0.00     0.072 H 
BRANCH  42  45
ATOM     45  C24 FSN d          13.563 -10.522  22.000  0.00  0.00    -0.040 A 
ATOM     46  C32 FSN d          13.168 -11.871  21.919  0.00  0.00    -0.072 A 
ATOM     47  C31 FSN d          12.130 -12.326  22.731  0.00  0.00    -0.045 A 
ATOM     48  H3  FSN d          13.665 -12.548  21.235  0.00  0.00     0.084 H 
ATOM     49  C30 FSN d          11.515 -11.413  23.597  0.00  0.00     0.116 A 
ATOM     50  H4  FSN d          11.807 -13.360  22.693  0.00  0.00     0.088 H 
ATOM     51  F29 FSN d          10.535 -11.919  24.367  0.00  0.00    -0.206 F 
ATOM     52  C26 FSN d          11.860 -10.058  23.706  0.00  0.00    -0.045 A 
ATOM     53  C25 FSN d          12.917  -9.613  22.873  0.00  0.00    -0.072 A 
ATOM     54  H5  FSN d          11.348  -9.390  24.388  0.00  0.00     0.088 H 
ATOM     55  H6  FSN d          13.231  -8.576  22.904  0.00  0.00     0.084 H 
ENDBRANCH  42  45
ENDBRANCH   3  42
TORSDOF 5
ENDMDL
MODEL 2
REMARK VINA RESULT:      -7.9      1.422      2.043
REMARK  5 active torsions:
REMARK  status: ('A' for Active; 'I' for Inactive)
REMARK    1  A    between atoms: N19_3  and  C23_4 
REMARK    2  A    between atoms: C23_4  and  C24_5 
REMARK    3  A    between atoms: C10_20  and  C7_21 
REMARK    4  A    between atoms: C4_24  and  C3_27 
REMARK    5  A    between atoms: C3_27  and  N1_28 
ROOT
ATOM      1  O21 FSN d          16.376 -12.054  22.143  0.00  0.00    -0.272 OA
ATOM      2  C20 FSN d          16.407 -12.140  20.928  0.00  0.00     0.234 C 
ATOM      3  N19 FSN d          15.710 -11.243  20.089  0.00  0.00    -0.283 N 
ATOM      4  C17 FSN d          16.075 -11.448  18.727  0.00  0.00     0.233 C 
ATOM      5  O18 FSN d          15.623 -10.827  17.778  0.00  0.00    -0.272 OA
ATOM      6  C16 FSN d          17.076 -12.510  18.663  0.00  0.00     0.066 C 
ATOM      7  C15 FSN d          18.526 -12.047  18.526  0.00  0.00     0.117 C 
ATOM      8  N11 FSN d          19.302 -11.977  19.850  0.00  0.00    -0.057 N 
ATOM      9  C12 FSN d          20.683 -12.306  19.394  0.00  0.00     0.085 C 
ATOM     10  C13 FSN d          20.717 -11.876  17.891  0.00  0.00    -0.040 C 
ATOM     11  C14 FSN d          19.364 -12.369  17.357  0.00  0.00    -0.036 C 
ATOM     12  C10 FSN d          18.642 -13.212  20.461  0.00  0.00     0.142 C 
ATOM     13  C22 FSN d          17.171 -13.102  20.105  0.00  0.00     0.069 C 
ATOM     14  H7  FSN d          16.805 -13.247  17.893  0.00  0.00     0.059 H 
ATOM     15  H8  FSN d          18.351 -10.978  18.331  0.00  0.00     0.086 H 
ATOM     16  H9  FSN d          19.231 -11.131  20.392  0.00  0.00     0.281 HD
ATOM     17  H10 FSN d          20.878 -13.385  19.492  0.00  0.00     0.076 H 
ATOM     18  H11 FSN d          21.428 -11.743  19.975  0.00  0.00     0.076 H 
ATOM     19  H12 FSN d          21.550 -12.359  17.361  0.00  0.00     0.035 H 
ATOM     20  H13 FSN d          20.804 -10.784  17.796  0.00  0.00     0.035 H 
ATOM     21  H14 FSN d          19.049 -11.818  16.459  0.00  0.00     0.036 H 
ATOM     22  H15 FSN d          19.374 -13.448  17.142  0.00  0.00     0.036 H 
ATOM     23  H16 FSN d          19.017 -14.069  19.884  0.00  0.00     0.093 H 
ATOM     24  H25 FSN d          16.709 -14.098  20.163  0.00  0.00     0.059 H 
ENDROOT
BRANCH  12  25
ATOM     25  C7  FSN d          19.035 -13.549  21.868  0.00  0.00    -0.027 A 
ATOM     26  C8  FSN d          18.157 -14.324  22.620  0.00  0.00    -0.074 A 
ATOM     27  C9  FSN d          18.502 -14.714  23.907  0.00  0.00    -0.069 A 
ATOM     28  H17 FSN d          17.204 -14.624  22.200  0.00  0.00     0.084 H 
ATOM     29  C4  FSN d          19.757 -14.302  24.435  0.00  0.00     0.007 A 
ATOM     30  H18 FSN d          17.828 -15.323  24.498  0.00  0.00     0.085 H 
ATOM     31  C5  FSN d          20.645 -13.525  23.681  0.00  0.00    -0.069 A 
ATOM     32  C6  FSN d          20.290 -13.142  22.384  0.00  0.00    -0.074 A 
ATOM     33  H19 FSN d          21.598 -13.224  24.100  0.00  0.00     0.085 H 
ATOM     34  H20 FSN d          20.964 -12.542  21.784  0.00  0.00     0.084 H 
BRANCH  29  35
ATOM     35  C3  FSN d          20.092 -14.708  25.790  0.00  0.00     0.102 C 
ATOM     36  N2  FSN d          19.264 -15.463  26.556  0.00  0.00    -0.385 N 
ATOM     37  H23 FSN d          18.359 -15.777  26.179  0.00  0.00     0.157 HD
ATOM     38  H24 FSN d          19.542 -15.723  27.513  0.00  0.00     0.157 HD
BRANCH  35  39
ATOM     39  N1  FSN d          21.262 -14.345  26.375  0.00  0.00    -0.385 N 
ATOM     40  H21 FSN d          22.017 -13.934  25.807  0.00  0.00     0.157 HD
ATOM     41  H22 FSN d          21.396 -14.481  27.387  0.00  0.00     0.157 HD
ENDBRANCH  35  39
ENDBRANCH  29  35
ENDBRANCH  12  25
BRANCH   3  42
ATOM     42  C23 FSN d          14.946 -10.126  20.644  0.00  0.00     0.029 C 
ATOM     43  H1  FSN d          14.616  -9.469  19.826  0.00  0.00     0.072 H 
ATOM     44  H2  FSN d          15.583  -9.557  21.337  0.00  0.00     0.072 H 
BRANCH  42  45
ATOM     45  C24 FSN d          13.742 -10.642  21.384  0.00  0.00    -0.040 A 
ATOM     46  C32 FSN d          13.139 -11.841  20.957  0.00  0.00    -0.072 A 
ATOM     47  C31 FSN d          12.044 -12.341  21.662  0.00  0.00    -0.045 A 
ATOM     48  H3  FSN d          13.521 -12.369  20.092  0.00  0.00     0.084 H 
ATOM     49  C30 FSN d          11.583 -11.621  22.772  0.00  0.00     0.116 A 
ATOM     50  H4  FSN d          11.562 -13.262  21.357  0.00  0.00     0.088 H 
ATOM     51  F29 FSN d          10.539 -12.167  23.419  0.00  0.00    -0.206 F 
ATOM     52  C26 FSN d          12.139 -10.417  23.230  0.00  0.00    -0.045 A 
ATOM     53  C25 FSN d          13.250  -9.923  22.501  0.00  0.00    -0.072 A 
ATOM     54  H5  FSN d          11.740  -9.894  24.091  0.00  0.00     0.088 H 
ATOM     55  H6  FSN d          13.724  -8.995  22.800  0.00  0.00     0.084 H 
ENDBRANCH  42  45
ENDBRANCH   3  42
TORSDOF 5
ENDMDL
MODEL 3
REMARK VINA RESULT:      -7.8      1.924      2.474
REMARK  5 active torsions:
REMARK  status: ('A' for Active; 'I' for Inactive)
REMARK    1  A    between atoms: N19_3  and  C23_4 
REMARK    2  A    between atoms: C23_4  and  C24_5 
REMARK    3  A    between atoms: C10_20  and  C7_21 
REMARK    4  A    between atoms: C4_24  and  C3_27 
REMARK    5  A    between atoms: C3_27  and  N1_28 
ROOT
ATOM      1  O21 FSN d          15.997 -14.893  22.195  0.00  0.00    -0.272 OA
ATOM      2  C20 FSN d          15.628 -14.920  21.034  0.00  0.00     0.234 C 
ATOM      3  N19 FSN d          14.270 -14.776  20.670  0.00  0.00    -0.283 N 
ATOM      4  C17 FSN d          14.145 -14.649  19.256  0.00  0.00     0.233 C 
ATOM      5  O18 FSN d          13.090 -14.524  18.654  0.00  0.00    -0.272 OA
ATOM      6  C16 FSN d          15.477 -14.684  18.660  0.00  0.00     0.066 C 
ATOM      7  C15 FSN d          16.074 -13.327  18.290  0.00  0.00     0.117 C 
ATOM      8  N11 FSN d          17.025 -12.738  19.344  0.00  0.00    -0.057 N 
ATOM      9  C12 FSN d          17.981 -11.984  18.483  0.00  0.00     0.085 C 
ATOM     10  C13 FSN d          17.167 -11.644  17.192  0.00  0.00    -0.040 C 
ATOM     11  C14 FSN d          16.408 -12.947  16.905  0.00  0.00    -0.036 C 
ATOM     12  C10 FSN d          17.629 -14.081  19.749  0.00  0.00     0.142 C 
ATOM     13  C22 FSN d          16.461 -15.046  19.819  0.00  0.00     0.069 C 
ATOM     14  H7  FSN d          15.502 -15.388  17.815  0.00  0.00     0.059 H 
ATOM     15  H8  FSN d          15.184 -12.697  18.438  0.00  0.00     0.086 H 
ATOM     16  H9  FSN d          16.621 -12.198  20.092  0.00  0.00     0.281 HD
ATOM     17  H10 FSN d          18.855 -12.605  18.237  0.00  0.00     0.076 H 
ATOM     18  H11 FSN d          18.313 -11.064  18.985  0.00  0.00     0.076 H 
ATOM     19  H12 FSN d          17.838 -11.386  16.359  0.00  0.00     0.035 H 
ATOM     20  H13 FSN d          16.470 -10.813  17.373  0.00  0.00     0.035 H 
ATOM     21  H14 FSN d          15.507 -12.775  16.297  0.00  0.00     0.036 H 
ATOM     22  H15 FSN d          17.045 -13.697  16.414  0.00  0.00     0.036 H 
ATOM     23  H16 FSN d          18.228 -14.413  18.888  0.00  0.00     0.093 H 
ATOM     24  H25 FSN d          16.834 -16.076  19.723  0.00  0.00     0.059 H 
ENDROOT
BRANCH  12  25
ATOM     25  C7  FSN d          18.626 -14.052  20.868  0.00  0.00    -0.027 A 
ATOM     26  C8  FSN d          19.542 -15.097  20.950  0.00  0.00    -0.074 A 
ATOM     27  C9  FSN d          20.524 -15.085  21.932  0.00  0.00    -0.069 A 
ATOM     28  H17 FSN d          19.488 -15.920  20.248  0.00  0.00     0.084 H 
ATOM     29  C4  FSN d          20.567 -13.995  22.845  0.00  0.00     0.007 A 
ATOM     30  H18 FSN d          21.244 -15.891  22.001  0.00  0.00     0.085 H 
ATOM     31  C5  FSN d          19.651 -12.940  22.764  0.00  0.00    -0.069 A 
ATOM     32  C6  FSN d          18.669 -12.959  21.768  0.00  0.00    -0.074 A 
ATOM     33  H19 FSN d          19.703 -12.116  23.466  0.00  0.00     0.085 H 
ATOM     34  H20 FSN d          17.952 -12.150  21.687  0.00  0.00     0.084 H 
BRANCH  29  35
ATOM     35  C3  FSN d          21.593 -14.009  23.875  0.00  0.00     0.102 C 
ATOM     36  N2  FSN d          22.918 -13.933  23.591  0.00  0.00    -0.385 N 
ATOM     37  H23 FSN d          23.232 -13.855  22.613  0.00  0.00     0.157 HD
ATOM     38  H24 FSN d          23.610 -13.952  24.354  0.00  0.00     0.157 HD
BRANCH  35  39
ATOM     39  N1  FSN d          21.281 -14.109  25.192  0.00  0.00    -0.385 N 
ATOM     40  H21 FSN d          20.303 -14.253  25.480  0.00  0.00     0.157 HD
ATOM     41  H22 FSN d          22.022 -14.039  25.904  0.00  0.00     0.157 HD
ENDBRANCH  35  39
ENDBRANCH  29  35
ENDBRANCH  12  25
BRANCH   3  42
ATOM     42  C23 FSN d          13.237 -14.539  21.677  0.00  0.00     0.029 C 
ATOM     43  H1  FSN d          13.506 -15.066  22.605  0.00  0.00     0.072 H 
ATOM     44  H2  FSN d          12.273 -14.918  21.306  0.00  0.00     0.072 H 
BRANCH  42  45
ATOM     45  C24 FSN d          13.119 -13.066  21.958  0.00  0.00    -0.040 A 
ATOM     46  C32 FSN d          12.023 -12.600  22.710  0.00  0.00    -0.072 A 
ATOM     47  C31 FSN d          11.927 -11.239  23.002  0.00  0.00    -0.045 A 
ATOM     48  H3  FSN d          11.264 -13.289  23.058  0.00  0.00     0.084 H 
ATOM     49  C30 FSN d          12.932 -10.385  22.527  0.00  0.00     0.116 A 
ATOM     50  H4  FSN d          11.097 -10.853  23.582  0.00  0.00     0.088 H 
ATOM     51  F29 FSN d          12.791  -9.090  22.860  0.00  0.00    -0.206 F 
ATOM     52  C26 FSN d          14.034 -10.796  21.764  0.00  0.00    -0.045 A 
ATOM     53  C25 FSN d          14.115 -12.182  21.476  0.00  0.00    -0.072 A 
ATOM     54  H5  FSN d          14.781 -10.093  21.414  0.00  0.00     0.088 H 
ATOM     55  H6  FSN d          14.940 -12.565  20.886  0.00  0.00     0.084 H 
ENDBRANCH  42  45
ENDBRANCH   3  42
TORSDOF 5
ENDMDL
MODEL 4
REMARK VINA RESULT:      -7.4      0.867      1.354
REMARK  5 active torsions:
REMARK  status: ('A' for Active; 'I' for Inactive)
REMARK    1  A    between atoms: N19_3  and  C23_4 
REMARK    2  A    between atoms: C23_4  and  C24_5 
REMARK    3  A    between atoms: C10_20  and  C7_21 
REMARK    4  A    between atoms: C4_24  and  C3_27 
REMARK    5  A    between atoms: C3_27  and  N1_28 
ROOT
ATOM      1  O21 FSN d          16.476 -12.224  22.005  0.00  0.00    -0.272 OA
ATOM      2  C20 FSN d          16.238 -12.208  20.811  0.00  0.00     0.234 C 
ATOM      3  N19 FSN d          15.461 -11.193  20.209  0.00  0.00    -0.283 N 
ATOM      4  C17 FSN d          15.506 -11.306  18.789  0.00  0.00     0.233 C 
ATOM      5  O18 FSN d          14.919 -10.574  18.008  0.00  0.00    -0.272 OA
ATOM      6  C16 FSN d          16.372 -12.428  18.433  0.00  0.00     0.066 C 
ATOM      7  C15 FSN d          17.794 -12.059  18.013  0.00  0.00     0.117 C 
ATOM      8  N11 FSN d          18.839 -12.161  19.135  0.00  0.00    -0.057 N 
ATOM      9  C12 FSN d          20.055 -12.547  18.364  0.00  0.00     0.085 C 
ATOM     10  C13 FSN d          19.805 -11.992  16.925  0.00  0.00    -0.040 C 
ATOM     11  C14 FSN d          18.331 -12.340  16.669  0.00  0.00    -0.036 C 
ATOM     12  C10 FSN d          18.218 -13.392  19.790  0.00  0.00     0.142 C 
ATOM     13  C22 FSN d          16.721 -13.147  19.776  0.00  0.00     0.069 C 
ATOM     14  H7  FSN d          15.878 -13.074  17.693  0.00  0.00     0.059 H 
ATOM     15  H8  FSN d          17.677 -10.968  17.935  0.00  0.00     0.086 H 
ATOM     16  H9  FSN d          18.961 -11.361  19.736  0.00  0.00     0.281 HD
ATOM     17  H10 FSN d          20.170 -13.641  18.344  0.00  0.00     0.076 H 
ATOM     18  H11 FSN d          20.955 -12.091  18.805  0.00  0.00     0.076 H 
ATOM     19  H12 FSN d          20.460 -12.486  16.192  0.00  0.00     0.035 H 
ATOM     20  H13 FSN d          19.966 -10.905  16.887  0.00  0.00     0.035 H 
ATOM     21  H14 FSN d          17.881 -11.692  15.902  0.00  0.00     0.036 H 
ATOM     22  H15 FSN d          18.199 -13.394  16.383  0.00  0.00     0.036 H 
ATOM     23  H16 FSN d          18.383 -14.222  19.087  0.00  0.00     0.093 H 
ATOM     24  H25 FSN d          16.195 -14.109  19.865  0.00  0.00     0.059 H 
ENDROOT
BRANCH  12  25
ATOM     25  C7  FSN d          18.871 -13.877  21.050  0.00  0.00    -0.027 A 
ATOM     26  C8  FSN d          20.041 -13.246  21.460  0.00  0.00    -0.074 A 
ATOM     27  C9  FSN d          20.650 -13.617  22.651  0.00  0.00    -0.069 A 
ATOM     28  H17 FSN d          20.478 -12.465  20.848  0.00  0.00     0.084 H 
ATOM     29  C4  FSN d          20.059 -14.649  23.431  0.00  0.00     0.007 A 
ATOM     30  H18 FSN d          21.559 -13.128  22.981  0.00  0.00     0.085 H 
ATOM     31  C5  FSN d          18.879 -15.283  23.025  0.00  0.00    -0.069 A 
ATOM     32  C6  FSN d          18.271 -14.899  21.826  0.00  0.00    -0.074 A 
ATOM     33  H19 FSN d          18.441 -16.065  23.636  0.00  0.00     0.085 H 
ATOM     34  H20 FSN d          17.355 -15.376  21.496  0.00  0.00     0.084 H 
BRANCH  29  35
ATOM     35  C3  FSN d          20.721 -15.033  24.667  0.00  0.00     0.102 C 
ATOM     36  N2  FSN d          22.071 -15.025  24.810  0.00  0.00    -0.385 N 
ATOM     37  H23 FSN d          22.669 -14.734  24.024  0.00  0.00     0.157 HD
ATOM     38  H24 FSN d          22.496 -15.310  25.703  0.00  0.00     0.157 HD
BRANCH  35  39
ATOM     39  N1  FSN d          20.019 -15.431  25.759  0.00  0.00    -0.385 N 
ATOM     40  H21 FSN d          20.462 -16.039  26.463  0.00  0.00     0.157 HD
ATOM     41  H22 FSN d          19.043 -15.127  25.883  0.00  0.00     0.157 HD
ENDBRANCH  35  39
ENDBRANCH  29  35
ENDBRANCH  12  25
BRANCH   3  42
ATOM     42  C23 FSN d          14.935 -10.077  20.994  0.00  0.00     0.029 C 
ATOM     43  H1  FSN d          14.599  -9.280  20.313  0.00  0.00     0.072 H 
ATOM     44  H2  FSN d          15.728  -9.688  21.650  0.00  0.00     0.072 H 
BRANCH  42  45
ATOM     45  C24 FSN d          13.775 -10.537  21.833  0.00  0.00    -0.040 A 
ATOM     46  C32 FSN d          13.140  -9.614  22.686  0.00  0.00    -0.072 A 
ATOM     47  C31 FSN d          12.043 -10.028  23.441  0.00  0.00    -0.045 A 
ATOM     48  H3  FSN d          13.500  -8.595  22.756  0.00  0.00     0.084 H 
ATOM     49  C30 FSN d          11.617 -11.358  23.320  0.00  0.00     0.116 A 
ATOM     50  H4  FSN d          11.533  -9.339  24.104  0.00  0.00     0.088 H 
ATOM     51  F29 FSN d          10.542 -11.687  24.058  0.00  0.00    -0.206 F 
ATOM     52  C26 FSN d          12.221 -12.318  22.497  0.00  0.00    -0.045 A 
ATOM     53  C25 FSN d          13.336 -11.881  21.738  0.00  0.00    -0.072 A 
ATOM     54  H5  FSN d          11.857 -13.338  22.445  0.00  0.00     0.088 H 
ATOM     55  H6  FSN d          13.852 -12.574  21.085  0.00  0.00     0.084 H 
ENDBRANCH  42  45
ENDBRANCH   3  42
TORSDOF 5
ENDMDL
