MODEL 1
REMARK VINA RESULT:      -5.1      0.000      0.000
REMARK  12 active torsions:
REMARK  status: ('A' for Active; 'I' for Inactive)
REMARK    1  A    between atoms: C1_1  and  O4'_21 
REMARK    2  A    between atoms: C2_2  and  O2_7 
REMARK    3  A    between atoms: C3_3  and  O3_8 
REMARK    4  A    between atoms: C4_4  and  O4_9 
REMARK    5  A    between atoms: C5_5  and  C6_6 
REMARK    6  A    between atoms: C6_6  and  O6_11 
REMARK    7  A    between atoms: C1'_12  and  O1'_18 
REMARK    8  A    between atoms: C2'_13  and  O2'_19 
REMARK    9  A    between atoms: C3'_14  and  O3'_20 
REMARK   10  A    between atoms: O4'_21  and  C4'_15 
REMARK   11  A    between atoms: C5'_16  and  C6'_17 
REMARK   12  A    between atoms: C6'_17  and  O6'_23 
ROOT
ATOM      1  O4' CBI d          -3.197  42.743  12.370  0.00  0.00    -0.348 OA
ENDROOT
BRANCH   1   2
ATOM      2  C1  CBI d          -4.447  43.423  12.397  0.00  0.00     0.159 C 
ATOM      3  O5  CBI d          -4.756  43.835  13.724  0.00  0.00    -0.348 OA
ATOM      4  C5  CBI d          -6.015  44.479  13.990  0.00  0.00     0.089 C 
ATOM      5  C4  CBI d          -7.181  43.507  13.631  0.00  0.00     0.090 C 
ATOM      6  H5  CBI d          -6.113  45.397  13.391  0.00  0.00     0.090 H 
ATOM      7  C3  CBI d          -7.024  42.975  12.173  0.00  0.00     0.092 C 
ATOM      8  H4  CBI d          -7.128  42.648  14.316  0.00  0.00     0.091 H 
ATOM      9  C2  CBI d          -5.579  42.398  11.956  0.00  0.00     0.110 C 
ATOM     10  H3  CBI d          -7.194  43.794  11.459  0.00  0.00     0.091 H 
ATOM     11  H2  CBI d          -5.479  41.496  12.578  0.00  0.00     0.094 H 
ATOM     12  H1  CBI d          -4.422  44.291  11.721  0.00  0.00     0.133 H 
BRANCH   4  13
ATOM     13  C6  CBI d          -5.978  44.833  15.492  0.00  0.00     0.043 C 
ATOM     14  H6  CBI d          -6.436  45.827  15.593  0.00  0.00     0.078 H 
ATOM     15  H7  CBI d          -4.917  44.887  15.776  0.00  0.00     0.078 H 
BRANCH  13  16
ATOM     16  O6  CBI d          -6.610  43.999  16.446  0.00  0.00    -0.398 OA
ATOM     17  H11 CBI d          -5.953  43.478  16.893  0.00  0.00     0.209 HD
ENDBRANCH  13  16
ENDBRANCH   4  13
BRANCH   5  18
ATOM     18  O4  CBI d          -8.456  44.126  13.803  0.00  0.00    -0.390 OA
ATOM     19  H10 CBI d          -8.441  44.667  14.584  0.00  0.00     0.210 HD
ENDBRANCH   5  18
BRANCH   7  20
ATOM     20  O3  CBI d          -8.013  41.960  11.985  0.00  0.00    -0.390 OA
ATOM     21  H9  CBI d          -7.585  41.132  11.801  0.00  0.00     0.210 HD
ENDBRANCH   7  20
BRANCH   9  22
ATOM     22  O2  CBI d          -5.398  42.025  10.598  0.00  0.00    -0.388 OA
ATOM     23  H8  CBI d          -4.576  42.379  10.281  0.00  0.00     0.210 HD
ENDBRANCH   9  22
ENDBRANCH   1   2
BRANCH   1  24
ATOM     24  C4' CBI d          -2.020  43.505  12.260  0.00  0.00     0.096 C 
ATOM     25  C5' CBI d          -1.390  43.521  10.802  0.00  0.00     0.089 C 
ATOM     26  O5' CBI d          -0.182  44.287  10.762  0.00  0.00    -0.349 OA
ATOM     27  H16 CBI d          -1.169  42.484  10.507  0.00  0.00     0.090 H 
ATOM     28  C1' CBI d           0.861  43.886  11.641  0.00  0.00     0.156 C 
ATOM     29  C2' CBI d           0.420  43.731  13.120  0.00  0.00     0.110 C 
ATOM     30  H12 CBI d           1.252  42.911  11.314  0.00  0.00     0.133 H 
ATOM     31  C3' CBI d          -0.928  42.957  13.269  0.00  0.00     0.092 C 
ATOM     32  H13 CBI d           0.256  44.741  13.524  0.00  0.00     0.094 H 
ATOM     33  H14 CBI d          -0.732  41.904  13.015  0.00  0.00     0.091 H 
ATOM     34  H15 CBI d          -2.266  44.542  12.533  0.00  0.00     0.091 H 
BRANCH  25  35
ATOM     35  C6' CBI d          -2.374  44.143   9.777  0.00  0.00     0.043 C 
ATOM     36  H17 CBI d          -1.799  44.660   8.995  0.00  0.00     0.078 H 
ATOM     37  H18 CBI d          -3.020  44.868  10.295  0.00  0.00     0.078 H 
BRANCH  35  38
ATOM     38  O6' CBI d          -3.187  43.150   9.173  0.00  0.00    -0.398 OA
ATOM     39  H22 CBI d          -3.924  43.566   8.740  0.00  0.00     0.209 HD
ENDBRANCH  35  38
ENDBRANCH  25  35
BRANCH  28  40
ATOM     40  O1' CBI d           1.857  44.870  11.456  0.00  0.00    -0.369 OA
ATOM     41  H19 CBI d           2.189  44.821  10.567  0.00  0.00     0.212 HD
ENDBRANCH  28  40
BRANCH  29  42
ATOM     42  O2' CBI d           1.468  43.136  13.863  0.00  0.00    -0.388 OA
ATOM     43  H20 CBI d           1.147  42.895  14.725  0.00  0.00     0.210 HD
ENDBRANCH  29  42
BRANCH  31  44
ATOM     44  O3' CBI d          -1.437  42.992  14.598  0.00  0.00    -0.390 OA
ATOM     45  H21 CBI d          -1.151  43.792  15.024  0.00  0.00     0.210 HD
ENDBRANCH  31  44
ENDBRANCH   1  24
TORSDOF 12
ENDMDL
MODEL 2
REMARK VINA RESULT:      -4.4      1.292      1.333
REMARK  12 active torsions:
REMARK  status: ('A' for Active; 'I' for Inactive)
REMARK    1  A    between atoms: C1_1  and  O4'_21 
REMARK    2  A    between atoms: C2_2  and  O2_7 
REMARK    3  A    between atoms: C3_3  and  O3_8 
REMARK    4  A    between atoms: C4_4  and  O4_9 
REMARK    5  A    between atoms: C5_5  and  C6_6 
REMARK    6  A    between atoms: C6_6  and  O6_11 
REMARK    7  A    between atoms: C1'_12  and  O1'_18 
REMARK    8  A    between atoms: C2'_13  and  O2'_19 
REMARK    9  A    between atoms: C3'_14  and  O3'_20 
REMARK   10  A    between atoms: O4'_21  and  C4'_15 
REMARK   11  A    between atoms: C5'_16  and  C6'_17 
REMARK   12  A    between atoms: C6'_17  and  O6'_23 
ROOT
ATOM      1  O4' CBI d          -2.684  41.951  12.149  0.00  0.00    -0.348 OA
ENDROOT
BRANCH   1   2
ATOM      2  C1  CBI d          -3.853  42.730  11.921  0.00  0.00     0.159 C 
ATOM      3  O5  CBI d          -4.348  43.249  13.151  0.00  0.00    -0.348 OA
ATOM      4  C5  CBI d          -5.570  44.007  13.159  0.00  0.00     0.089 C 
ATOM      5  C4  CBI d          -6.741  43.112  12.645  0.00  0.00     0.090 C 
ATOM      6  H5  CBI d          -5.481  44.890  12.509  0.00  0.00     0.090 H 
ATOM      7  C3  CBI d          -6.383  42.479  11.266  0.00  0.00     0.092 C 
ATOM      8  H4  CBI d          -6.884  42.297  13.369  0.00  0.00     0.091 H 
ATOM      9  C2  CBI d          -4.981  41.774  11.336  0.00  0.00     0.110 C 
ATOM     10  H3  CBI d          -6.353  43.262  10.494  0.00  0.00     0.091 H 
ATOM     11  H2  CBI d          -5.072  40.908  12.008  0.00  0.00     0.094 H 
ATOM     12  H1  CBI d          -3.633  43.548  11.220  0.00  0.00     0.133 H 
BRANCH   4  13
ATOM     13  C6  CBI d          -5.761  44.451  14.625  0.00  0.00     0.043 C 
ATOM     14  H6  CBI d          -6.153  45.478  14.595  0.00  0.00     0.078 H 
ATOM     15  H7  CBI d          -4.763  44.452  15.086  0.00  0.00     0.078 H 
BRANCH  13  16
ATOM     16  O6  CBI d          -6.607  43.721  15.496  0.00  0.00    -0.398 OA
ATOM     17  H11 CBI d          -7.148  43.129  14.987  0.00  0.00     0.209 HD
ENDBRANCH  13  16
ENDBRANCH   4  13
BRANCH   5  18
ATOM     18  O4  CBI d          -7.965  43.842  12.559  0.00  0.00    -0.390 OA
ATOM     19  H10 CBI d          -7.822  44.733  12.856  0.00  0.00     0.210 HD
ENDBRANCH   5  18
BRANCH   7  20
ATOM     20  O3  CBI d          -7.413  41.537  10.954  0.00  0.00    -0.390 OA
ATOM     21  H9  CBI d          -8.181  42.001  10.644  0.00  0.00     0.210 HD
ENDBRANCH   7  20
BRANCH   9  22
ATOM     22  O2  CBI d          -4.603  41.303  10.051  0.00  0.00    -0.388 OA
ATOM     23  H8  CBI d          -5.091  41.775   9.386  0.00  0.00     0.210 HD
ENDBRANCH   9  22
ENDBRANCH   1   2
BRANCH   1  24
ATOM     24  C4' CBI d          -1.432  42.590  12.108  0.00  0.00     0.096 C 
ATOM     25  C5' CBI d          -0.444  42.012  11.007  0.00  0.00     0.089 C 
ATOM     26  O5' CBI d           0.820  42.683  11.035  0.00  0.00    -0.349 OA
ATOM     27  H16 CBI d          -0.287  40.941  11.207  0.00  0.00     0.090 H 
ATOM     28  C1' CBI d           1.534  42.655  12.264  0.00  0.00     0.156 C 
ATOM     29  C2' CBI d           0.703  43.112  13.491  0.00  0.00     0.110 C 
ATOM     30  H12 CBI d           1.868  41.626  12.462  0.00  0.00     0.133 H 
ATOM     31  C3' CBI d          -0.725  42.479  13.521  0.00  0.00     0.092 C 
ATOM     32  H13 CBI d           0.569  44.201  13.414  0.00  0.00     0.094 H 
ATOM     33  H14 CBI d          -0.606  41.411  13.756  0.00  0.00     0.091 H 
ATOM     34  H15 CBI d          -1.607  43.652  11.881  0.00  0.00     0.091 H 
BRANCH  25  35
ATOM     35  C6' CBI d          -1.035  42.184   9.583  0.00  0.00     0.043 C 
ATOM     36  H17 CBI d          -0.218  42.137   8.848  0.00  0.00     0.078 H 
ATOM     37  H18 CBI d          -1.531  43.163   9.516  0.00  0.00     0.078 H 
BRANCH  35  38
ATOM     38  O6' CBI d          -1.979  41.166   9.290  0.00  0.00    -0.398 OA
ATOM     39  H22 CBI d          -2.153  40.662  10.076  0.00  0.00     0.209 HD
ENDBRANCH  35  38
ENDBRANCH  25  35
BRANCH  28  40
ATOM     40  O1' CBI d           2.662  43.470  12.019  0.00  0.00    -0.369 OA
ATOM     41  H19 CBI d           2.376  44.359  11.841  0.00  0.00     0.212 HD
ENDBRANCH  28  40
BRANCH  29  42
ATOM     42  O2' CBI d           1.432  42.851  14.676  0.00  0.00    -0.388 OA
ATOM     43  H20 CBI d           0.893  42.346  15.274  0.00  0.00     0.210 HD
ENDBRANCH  29  42
BRANCH  31  44
ATOM     44  O3' CBI d          -1.557  43.050  14.524  0.00  0.00    -0.390 OA
ATOM     45  H21 CBI d          -1.742  42.398  15.190  0.00  0.00     0.210 HD
ENDBRANCH  31  44
ENDBRANCH   1  24
TORSDOF 12
ENDMDL
MODEL 3
REMARK VINA RESULT:      -4.1      2.223      6.799
REMARK  12 active torsions:
REMARK  status: ('A' for Active; 'I' for Inactive)
REMARK    1  A    between atoms: C1_1  and  O4'_21 
REMARK    2  A    between atoms: C2_2  and  O2_7 
REMARK    3  A    between atoms: C3_3  and  O3_8 
REMARK    4  A    between atoms: C4_4  and  O4_9 
REMARK    5  A    between atoms: C5_5  and  C6_6 
REMARK    6  A    between atoms: C6_6  and  O6_11 
REMARK    7  A    between atoms: C1'_12  and  O1'_18 
REMARK    8  A    between atoms: C2'_13  and  O2'_19 
REMARK    9  A    between atoms: C3'_14  and  O3'_20 
REMARK   10  A    between atoms: O4'_21  and  C4'_15 
REMARK   11  A    between atoms: C5'_16  and  C6'_17 
REMARK   12  A    between atoms: C6'_17  and  O6'_23 
ROOT
ATOM      1  O4' CBI d          -2.104  41.272  11.688  0.00  0.00    -0.348 OA
ENDROOT
BRANCH   1   2
ATOM      2  C1  CBI d          -1.227  42.389  11.774  0.00  0.00     0.159 C 
ATOM      3  O5  CBI d          -0.112  42.208  10.907  0.00  0.00    -0.348 OA
ATOM      4  C5  CBI d           0.940  43.190  10.892  0.00  0.00     0.089 C 
ATOM      5  C4  CBI d           1.591  43.275  12.308  0.00  0.00     0.090 C 
ATOM      6  H5  CBI d           0.542  44.178  10.619  0.00  0.00     0.090 H 
ATOM      7  C3  CBI d           0.502  43.512  13.399  0.00  0.00     0.092 C 
ATOM      8  H4  CBI d           2.077  42.311  12.514  0.00  0.00     0.091 H 
ATOM      9  C2  CBI d          -0.654  42.458  13.255  0.00  0.00     0.110 C 
ATOM     10  H3  CBI d           0.081  44.523  13.291  0.00  0.00     0.091 H 
ATOM     11  H2  CBI d          -0.242  41.469  13.505  0.00  0.00     0.094 H 
ATOM     12  H1  CBI d          -1.764  43.314  11.520  0.00  0.00     0.133 H 
BRANCH   4  13
ATOM     13  C6  CBI d           1.931  42.704   9.812  0.00  0.00     0.043 C 
ATOM     14  H6  CBI d           2.854  42.420  10.337  0.00  0.00     0.078 H 
ATOM     15  H7  CBI d           2.130  43.566   9.159  0.00  0.00     0.078 H 
BRANCH  13  16
ATOM     16  O6  CBI d           1.599  41.621   8.963  0.00  0.00    -0.398 OA
ATOM     17  H11 CBI d           0.864  41.865   8.413  0.00  0.00     0.209 HD
ENDBRANCH  13  16
ENDBRANCH   4  13
BRANCH   5  18
ATOM     18  O4  CBI d           2.590  44.293  12.369  0.00  0.00    -0.390 OA
ATOM     19  H10 CBI d           2.191  45.138  12.198  0.00  0.00     0.210 HD
ENDBRANCH   5  18
BRANCH   7  20
ATOM     20  O3  CBI d           1.146  43.394  14.671  0.00  0.00    -0.390 OA
ATOM     21  H9  CBI d           1.744  44.121  14.790  0.00  0.00     0.210 HD
ENDBRANCH   7  20
BRANCH   9  22
ATOM     22  O2  CBI d          -1.700  42.749  14.170  0.00  0.00    -0.388 OA
ATOM     23  H8  CBI d          -2.531  42.487  13.792  0.00  0.00     0.210 HD
ENDBRANCH   9  22
ENDBRANCH   1   2
BRANCH   1  24
ATOM     24  C4' CBI d          -3.349  41.442  11.055  0.00  0.00     0.096 C 
ATOM     25  C5' CBI d          -3.249  41.930   9.546  0.00  0.00     0.089 C 
ATOM     26  O5' CBI d          -4.545  42.110   8.969  0.00  0.00    -0.349 OA
ATOM     27  H16 CBI d          -2.708  42.888   9.525  0.00  0.00     0.090 H 
ATOM     28  C1' CBI d          -5.418  43.022   9.623  0.00  0.00     0.156 C 
ATOM     29  C2' CBI d          -5.584  42.760  11.142  0.00  0.00     0.110 C 
ATOM     30  H12 CBI d          -5.022  44.042   9.510  0.00  0.00     0.133 H 
ATOM     31  C3' CBI d          -4.224  42.489  11.860  0.00  0.00     0.092 C 
ATOM     32  H13 CBI d          -6.194  41.852  11.257  0.00  0.00     0.094 H 
ATOM     33  H14 CBI d          -3.672  43.441  11.888  0.00  0.00     0.091 H 
ATOM     34  H15 CBI d          -3.862  40.470  11.063  0.00  0.00     0.091 H 
BRANCH  25  35
ATOM     35  C6' CBI d          -2.487  40.895   8.677  0.00  0.00     0.043 C 
ATOM     36  H17 CBI d          -2.859  40.952   7.643  0.00  0.00     0.078 H 
ATOM     37  H18 CBI d          -2.671  39.886   9.076  0.00  0.00     0.078 H 
BRANCH  35  38
ATOM     38  O6' CBI d          -1.091  41.146   8.680  0.00  0.00    -0.398 OA
ATOM     39  H22 CBI d          -0.752  41.054   7.797  0.00  0.00     0.209 HD
ENDBRANCH  35  38
ENDBRANCH  25  35
BRANCH  28  40
ATOM     40  O1' CBI d          -6.627  42.911   8.901  0.00  0.00    -0.369 OA
ATOM     41  H19 CBI d          -6.947  43.778   8.685  0.00  0.00     0.212 HD
ENDBRANCH  28  40
BRANCH  29  42
ATOM     42  O2' CBI d          -6.297  43.834  11.729  0.00  0.00    -0.388 OA
ATOM     43  H20 CBI d          -7.212  43.592  11.820  0.00  0.00     0.210 HD
ENDBRANCH  29  42
BRANCH  31  44
ATOM     44  O3' CBI d          -4.391  42.049  13.203  0.00  0.00    -0.390 OA
ATOM     45  H21 CBI d          -3.694  41.441  13.425  0.00  0.00     0.210 HD
ENDBRANCH  31  44
ENDBRANCH   1  24
TORSDOF 12
ENDMDL
MODEL 4
REMARK VINA RESULT:      -4.0      1.676      7.174
REMARK  12 active torsions:
REMARK  status: ('A' for Active; 'I' for Inactive)
REMARK    1  A    between atoms: C1_1  and  O4'_21 
REMARK    2  A    between atoms: C2_2  and  O2_7 
REMARK    3  A    between atoms: C3_3  and  O3_8 
REMARK    4  A    between atoms: C4_4  and  O4_9 
REMARK    5  A    between atoms: C5_5  and  C6_6 
REMARK    6  A    between atoms: C6_6  and  O6_11 
REMARK    7  A    between atoms: C1'_12  and  O1'_18 
REMARK    8  A    between atoms: C2'_13  and  O2'_19 
REMARK    9  A    between atoms: C3'_14  and  O3'_20 
REMARK   10  A    between atoms: O4'_21  and  C4'_15 
REMARK   11  A    between atoms: C5'_16  and  C6'_17 
REMARK   12  A    between atoms: C6'_17  and  O6'_23 
ROOT
ATOM      1  O4' CBI d          -2.864  42.338  12.356  0.00  0.00    -0.348 OA
ENDROOT
BRANCH   1   2
ATOM      2  C1  CBI d          -1.636  43.055  12.314  0.00  0.00     0.159 C 
ATOM      3  O5  CBI d          -0.885  42.681  11.164  0.00  0.00    -0.348 OA
ATOM      4  C5  CBI d           0.428  43.235  10.966  0.00  0.00     0.089 C 
ATOM      5  C4  CBI d           1.352  42.821  12.154  0.00  0.00     0.090 C 
ATOM      6  H5  CBI d           0.380  44.333  10.913  0.00  0.00     0.090 H 
ATOM      7  C3  CBI d           0.693  43.194  13.517  0.00  0.00     0.092 C 
ATOM      8  H4  CBI d           1.474  41.728  12.120  0.00  0.00     0.091 H 
ATOM      9  C2  CBI d          -0.775  42.639  13.584  0.00  0.00     0.110 C 
ATOM     10  H3  CBI d           0.669  44.288  13.631  0.00  0.00     0.091 H 
ATOM     11  H2  CBI d          -0.720  41.541  13.610  0.00  0.00     0.094 H 
ATOM     12  H1  CBI d          -1.829  44.138  12.311  0.00  0.00     0.133 H 
BRANCH   4  13
ATOM     13  C6  CBI d           0.907  42.664   9.614  0.00  0.00     0.043 C 
ATOM     14  H6  CBI d           0.490  43.314   8.832  0.00  0.00     0.078 H 
ATOM     15  H7  CBI d           0.472  41.658   9.526  0.00  0.00     0.078 H 
BRANCH  13  16
ATOM     16  O6  CBI d           2.289  42.532   9.334  0.00  0.00    -0.398 OA
ATOM     17  H11 CBI d           2.562  43.236   8.758  0.00  0.00     0.209 HD
ENDBRANCH  13  16
ENDBRANCH   4  13
BRANCH   5  18
ATOM     18  O4  CBI d           2.647  43.411  12.045  0.00  0.00    -0.390 OA
ATOM     19  H10 CBI d           2.825  43.616  11.134  0.00  0.00     0.210 HD
ENDBRANCH   5  18
BRANCH   7  20
ATOM     20  O3  CBI d           1.503  42.622  14.548  0.00  0.00    -0.390 OA
ATOM     21  H9  CBI d           1.376  41.681  14.562  0.00  0.00     0.210 HD
ENDBRANCH   7  20
BRANCH   9  22
ATOM     22  O2  CBI d          -1.413  43.082  14.773  0.00  0.00    -0.388 OA
ATOM     23  H8  CBI d          -0.790  43.561  15.306  0.00  0.00     0.210 HD
ENDBRANCH   9  22
ENDBRANCH   1   2
BRANCH   1  24
ATOM     24  C4' CBI d          -3.937  42.795  11.569  0.00  0.00     0.096 C 
ATOM     25  C5' CBI d          -5.275  43.055  12.383  0.00  0.00     0.089 C 
ATOM     26  O5' CBI d          -6.334  43.489  11.524  0.00  0.00    -0.349 OA
ATOM     27  H16 CBI d          -5.573  42.116  12.874  0.00  0.00     0.090 H 
ATOM     28  C1' CBI d          -6.684  42.626  10.450  0.00  0.00     0.156 C 
ATOM     29  C2' CBI d          -5.483  42.185   9.574  0.00  0.00     0.110 C 
ATOM     30  H12 CBI d          -7.142  41.713  10.858  0.00  0.00     0.133 H 
ATOM     31  C3' CBI d          -4.247  41.747  10.422  0.00  0.00     0.092 C 
ATOM     32  H13 CBI d          -5.171  43.055   8.977  0.00  0.00     0.094 H 
ATOM     33  H14 CBI d          -4.499  40.788  10.899  0.00  0.00     0.091 H 
ATOM     34  H15 CBI d          -3.631  43.745  11.108  0.00  0.00     0.091 H 
BRANCH  25  35
ATOM     35  C6' CBI d          -5.067  44.151  13.461  0.00  0.00     0.043 C 
ATOM     36  H17 CBI d          -5.086  45.138  12.978  0.00  0.00     0.078 H 
ATOM     37  H18 CBI d          -4.090  43.998  13.943  0.00  0.00     0.078 H 
BRANCH  35  38
ATOM     38  O6' CBI d          -6.083  44.102  14.450  0.00  0.00    -0.398 OA
ATOM     39  H22 CBI d          -6.253  44.980  14.771  0.00  0.00     0.209 HD
ENDBRANCH  35  38
ENDBRANCH  25  35
BRANCH  28  40
ATOM     40  O1' CBI d          -7.660  43.355   9.734  0.00  0.00    -0.369 OA
ATOM     41  H19 CBI d          -7.703  44.242  10.072  0.00  0.00     0.212 HD
ENDBRANCH  28  40
BRANCH  29  42
ATOM     42  O2' CBI d          -5.903  41.176   8.674  0.00  0.00    -0.388 OA
ATOM     43  H20 CBI d          -6.574  40.644   9.086  0.00  0.00     0.210 HD
ENDBRANCH  29  42
BRANCH  31  44
ATOM     44  O3' CBI d          -3.083  41.540   9.628  0.00  0.00    -0.390 OA
ATOM     45  H21 CBI d          -3.170  42.016   8.810  0.00  0.00     0.210 HD
ENDBRANCH  31  44
ENDBRANCH   1  24
TORSDOF 12
ENDMDL
MODEL 5
REMARK VINA RESULT:      -3.9      1.976      3.621
REMARK  12 active torsions:
REMARK  status: ('A' for Active; 'I' for Inactive)
REMARK    1  A    between atoms: C1_1  and  O4'_21 
REMARK    2  A    between atoms: C2_2  and  O2_7 
REMARK    3  A    between atoms: C3_3  and  O3_8 
REMARK    4  A    between atoms: C4_4  and  O4_9 
REMARK    5  A    between atoms: C5_5  and  C6_6 
REMARK    6  A    between atoms: C6_6  and  O6_11 
REMARK    7  A    between atoms: C1'_12  and  O1'_18 
REMARK    8  A    between atoms: C2'_13  and  O2'_19 
REMARK    9  A    between atoms: C3'_14  and  O3'_20 
REMARK   10  A    between atoms: O4'_21  and  C4'_15 
REMARK   11  A    between atoms: C5'_16  and  C6'_17 
REMARK   12  A    between atoms: C6'_17  and  O6'_23 
ROOT
ATOM      1  O4' CBI d          -1.483  43.875  10.857  0.00  0.00    -0.348 OA
ENDROOT
BRANCH   1   2
ATOM      2  C1  CBI d          -2.702  43.181  11.095  0.00  0.00     0.159 C 
ATOM      3  O5  CBI d          -3.608  43.393  10.017  0.00  0.00    -0.348 OA
ATOM      4  C5  CBI d          -4.934  42.838  10.088  0.00  0.00     0.089 C 
ATOM      5  C4  CBI d          -5.684  43.441  11.317  0.00  0.00     0.090 C 
ATOM      6  H5  CBI d          -4.890  41.744  10.194  0.00  0.00     0.090 H 
ATOM      7  C3  CBI d          -4.840  43.263  12.616  0.00  0.00     0.092 C 
ATOM      8  H4  CBI d          -5.813  44.518  11.138  0.00  0.00     0.091 H 
ATOM      9  C2  CBI d          -3.379  43.796  12.395  0.00  0.00     0.110 C 
ATOM     10  H3  CBI d          -4.796  42.198  12.888  0.00  0.00     0.091 H 
ATOM     11  H2  CBI d          -3.433  44.886  12.264  0.00  0.00     0.094 H 
ATOM     12  H1  CBI d          -2.507  42.106  11.227  0.00  0.00     0.133 H 
BRANCH   4  13
ATOM     13  C6  CBI d          -5.600  43.211   8.746  0.00  0.00     0.043 C 
ATOM     14  H6  CBI d          -6.118  42.309   8.390  0.00  0.00     0.078 H 
ATOM     15  H7  CBI d          -4.786  43.464   8.051  0.00  0.00     0.078 H 
BRANCH  13  16
ATOM     16  O6  CBI d          -6.537  44.270   8.674  0.00  0.00    -0.398 OA
ATOM     17  H11 CBI d          -7.279  44.073   9.233  0.00  0.00     0.209 HD
ENDBRANCH  13  16
ENDBRANCH   4  13
BRANCH   5  18
ATOM     18  O4  CBI d          -6.979  42.864  11.479  0.00  0.00    -0.390 OA
ATOM     19  H10 CBI d          -7.056  42.098  10.922  0.00  0.00     0.210 HD
ENDBRANCH   5  18
BRANCH   7  20
ATOM     20  O3  CBI d          -5.499  43.996  13.652  0.00  0.00    -0.390 OA
ATOM     21  H9  CBI d          -4.925  44.684  13.966  0.00  0.00     0.210 HD
ENDBRANCH   7  20
BRANCH   9  22
ATOM     22  O2  CBI d          -2.579  43.524  13.536  0.00  0.00    -0.388 OA
ATOM     23  H8  CBI d          -3.100  43.065  14.185  0.00  0.00     0.210 HD
ENDBRANCH   9  22
ENDBRANCH   1   2
BRANCH   1  24
ATOM     24  C4' CBI d          -0.278  43.278  11.271  0.00  0.00     0.096 C 
ATOM     25  C5' CBI d          -0.278  41.692  11.192  0.00  0.00     0.089 C 
ATOM     26  O5' CBI d           0.962  41.146  11.652  0.00  0.00    -0.349 OA
ATOM     27  H16 CBI d          -1.095  41.311  11.823  0.00  0.00     0.090 H 
ATOM     28  C1' CBI d           1.357  41.477  12.977  0.00  0.00     0.156 C 
ATOM     29  C2' CBI d           1.341  42.997  13.281  0.00  0.00     0.110 C 
ATOM     30  H12 CBI d           0.669  40.995  13.688  0.00  0.00     0.133 H 
ATOM     31  C3' CBI d           0.048  43.703  12.762  0.00  0.00     0.092 C 
ATOM     32  H13 CBI d           2.191  43.451  12.749  0.00  0.00     0.094 H 
ATOM     33  H14 CBI d          -0.785  43.371  13.399  0.00  0.00     0.091 H 
ATOM     34  H15 CBI d           0.521  43.650  10.613  0.00  0.00     0.091 H 
BRANCH  25  35
ATOM     35  C6' CBI d          -0.492  41.207   9.734  0.00  0.00     0.043 C 
ATOM     36  H17 CBI d          -1.570  41.190   9.516  0.00  0.00     0.078 H 
ATOM     37  H18 CBI d          -0.081  40.192   9.629  0.00  0.00     0.078 H 
BRANCH  35  38
ATOM     38  O6' CBI d           0.153  42.064   8.805  0.00  0.00    -0.398 OA
ATOM     39  H22 CBI d           0.875  42.507   9.235  0.00  0.00     0.209 HD
ENDBRANCH  35  38
ENDBRANCH  25  35
BRANCH  28  40
ATOM     40  O1' CBI d           2.638  40.895  13.104  0.00  0.00    -0.369 OA
ATOM     41  H19 CBI d           2.661  40.075  12.624  0.00  0.00     0.212 HD
ENDBRANCH  28  40
BRANCH  29  42
ATOM     42  O2' CBI d           1.546  43.201  14.668  0.00  0.00    -0.388 OA
ATOM     43  H20 CBI d           1.771  42.374  15.079  0.00  0.00     0.210 HD
ENDBRANCH  29  42
BRANCH  31  44
ATOM     44  O3' CBI d           0.123  45.122  12.855  0.00  0.00    -0.390 OA
ATOM     45  H21 CBI d          -0.729  45.467  13.098  0.00  0.00     0.210 HD
ENDBRANCH  31  44
ENDBRANCH   1  24
TORSDOF 12
ENDMDL
MODEL 6
REMARK VINA RESULT:      -3.5      1.520      6.505
REMARK  12 active torsions:
REMARK  status: ('A' for Active; 'I' for Inactive)
REMARK    1  A    between atoms: C1_1  and  O4'_21 
REMARK    2  A    between atoms: C2_2  and  O2_7 
REMARK    3  A    between atoms: C3_3  and  O3_8 
REMARK    4  A    between atoms: C4_4  and  O4_9 
REMARK    5  A    between atoms: C5_5  and  C6_6 
REMARK    6  A    between atoms: C6_6  and  O6_11 
REMARK    7  A    between atoms: C1'_12  and  O1'_18 
REMARK    8  A    between atoms: C2'_13  and  O2'_19 
REMARK    9  A    between atoms: C3'_14  and  O3'_20 
REMARK   10  A    between atoms: O4'_21  and  C4'_15 
REMARK   11  A    between atoms: C5'_16  and  C6'_17 
REMARK   12  A    between atoms: C6'_17  and  O6'_23 
ROOT
ATOM      1  O4' CBI d          -5.756  43.472  12.073  0.00  0.00    -0.348 OA
ENDROOT
BRANCH   1   2
ATOM      2  C1  CBI d          -4.490  42.948  11.689  0.00  0.00     0.159 C 
ATOM      3  O5  CBI d          -3.602  42.939  12.802  0.00  0.00    -0.348 OA
ATOM      4  C5  CBI d          -2.239  42.514  12.616  0.00  0.00     0.089 C 
ATOM      5  C4  CBI d          -1.534  43.462  11.596  0.00  0.00     0.090 C 
ATOM      6  H5  CBI d          -2.205  41.484  12.233  0.00  0.00     0.090 H 
ATOM      7  C3  CBI d          -2.363  43.565  10.279  0.00  0.00     0.092 C 
ATOM      8  H4  CBI d          -1.483  44.464  12.047  0.00  0.00     0.091 H 
ATOM      9  C2  CBI d          -3.858  43.921  10.602  0.00  0.00     0.110 C 
ATOM     10  H3  CBI d          -2.330  42.605   9.744  0.00  0.00     0.091 H 
ATOM     11  H2  CBI d          -3.882  44.943  11.008  0.00  0.00     0.094 H 
ATOM     12  H1  CBI d          -4.607  41.933  11.283  0.00  0.00     0.133 H 
BRANCH   4  13
ATOM     13  C6  CBI d          -1.602  42.576  14.021  0.00  0.00     0.043 C 
ATOM     14  H6  CBI d          -1.542  41.540  14.385  0.00  0.00     0.078 H 
ATOM     15  H7  CBI d          -2.295  43.147  14.656  0.00  0.00     0.078 H 
BRANCH  13  16
ATOM     16  O6  CBI d          -0.320  43.145  14.209  0.00  0.00    -0.398 OA
ATOM     17  H11 CBI d           0.336  42.580  13.818  0.00  0.00     0.209 HD
ENDBRANCH  13  16
ENDBRANCH   4  13
BRANCH   5  18
ATOM     18  O4  CBI d          -0.200  43.038  11.317  0.00  0.00    -0.390 OA
ATOM     19  H10 CBI d          -0.156  42.699  10.430  0.00  0.00     0.210 HD
ENDBRANCH   5  18
BRANCH   7  20
ATOM     20  O3  CBI d          -1.757  44.583   9.478  0.00  0.00    -0.390 OA
ATOM     21  H9  CBI d          -1.149  45.082  10.009  0.00  0.00     0.210 HD
ENDBRANCH   7  20
BRANCH   9  22
ATOM     22  O2  CBI d          -4.636  43.896   9.414  0.00  0.00    -0.388 OA
ATOM     23  H8  CBI d          -4.730  44.780   9.080  0.00  0.00     0.210 HD
ENDBRANCH   9  22
ENDBRANCH   1   2
BRANCH   1  24
ATOM     24  C4' CBI d          -6.343  43.007  13.264  0.00  0.00     0.096 C 
ATOM     25  C5' CBI d          -7.821  42.454  13.086  0.00  0.00     0.089 C 
ATOM     26  O5' CBI d          -8.372  42.025  14.335  0.00  0.00    -0.349 OA
ATOM     27  H16 CBI d          -8.448  43.260  12.675  0.00  0.00     0.090 H 
ATOM     28  C1' CBI d          -8.432  42.990  15.377  0.00  0.00     0.156 C 
ATOM     29  C2' CBI d          -7.086  43.712  15.649  0.00  0.00     0.110 C 
ATOM     30  H12 CBI d          -9.167  43.763  15.108  0.00  0.00     0.133 H 
ATOM     31  C3' CBI d          -6.371  44.171  14.339  0.00  0.00     0.092 C 
ATOM     32  H13 CBI d          -6.418  42.992  16.145  0.00  0.00     0.094 H 
ATOM     33  H14 CBI d          -6.955  45.004  13.920  0.00  0.00     0.091 H 
ATOM     34  H15 CBI d          -5.718  42.187  13.645  0.00  0.00     0.091 H 
BRANCH  25  35
ATOM     35  C6' CBI d          -7.849  41.242  12.119  0.00  0.00     0.043 C 
ATOM     36  H17 CBI d          -8.803  40.708  12.241  0.00  0.00     0.078 H 
ATOM     37  H18 CBI d          -7.018  40.566  12.367  0.00  0.00     0.078 H 
BRANCH  35  38
ATOM     38  O6' CBI d          -7.722  41.656  10.768  0.00  0.00    -0.398 OA
ATOM     39  H22 CBI d          -7.327  40.957  10.260  0.00  0.00     0.209 HD
ENDBRANCH  35  38
ENDBRANCH  25  35
BRANCH  28  40
ATOM     40  O1' CBI d          -8.910  42.261  16.488  0.00  0.00    -0.369 OA
ATOM     41  H19 CBI d          -9.245  41.422  16.194  0.00  0.00     0.212 HD
ENDBRANCH  28  40
BRANCH  29  42
ATOM     42  O2' CBI d          -7.303  44.785  16.548  0.00  0.00    -0.388 OA
ATOM     43  H20 CBI d          -8.007  45.333  16.222  0.00  0.00     0.210 HD
ENDBRANCH  29  42
BRANCH  31  44
ATOM     44  O3' CBI d          -5.050  44.645  14.573  0.00  0.00    -0.390 OA
ATOM     45  H21 CBI d          -4.502  43.924  14.861  0.00  0.00     0.210 HD
ENDBRANCH  31  44
ENDBRANCH   1  24
TORSDOF 12
ENDMDL
MODEL 7
REMARK VINA RESULT:      -3.5      2.221      3.735
REMARK  12 active torsions:
REMARK  status: ('A' for Active; 'I' for Inactive)
REMARK    1  A    between atoms: C1_1  and  O4'_21 
REMARK    2  A    between atoms: C2_2  and  O2_7 
REMARK    3  A    between atoms: C3_3  and  O3_8 
REMARK    4  A    between atoms: C4_4  and  O4_9 
REMARK    5  A    between atoms: C5_5  and  C6_6 
REMARK    6  A    between atoms: C6_6  and  O6_11 
REMARK    7  A    between atoms: C1'_12  and  O1'_18 
REMARK    8  A    between atoms: C2'_13  and  O2'_19 
REMARK    9  A    between atoms: C3'_14  and  O3'_20 
REMARK   10  A    between atoms: O4'_21  and  C4'_15 
REMARK   11  A    between atoms: C5'_16  and  C6'_17 
REMARK   12  A    between atoms: C6'_17  and  O6'_23 
ROOT
ATOM      1  O4' CBI d          -2.903  42.935  12.178  0.00  0.00    -0.348 OA
ENDROOT
BRANCH   1   2
ATOM      2  C1  CBI d          -3.905  42.253  11.433  0.00  0.00     0.159 C 
ATOM      3  O5  CBI d          -4.470  43.121  10.457  0.00  0.00    -0.348 OA
ATOM      4  C5  CBI d          -5.557  42.653   9.638  0.00  0.00     0.089 C 
ATOM      5  C4  CBI d          -6.772  42.288  10.547  0.00  0.00     0.090 C 
ATOM      6  H5  CBI d          -5.255  41.763   9.067  0.00  0.00     0.090 H 
ATOM      7  C3  CBI d          -6.339  41.299  11.672  0.00  0.00     0.092 C 
ATOM      8  H4  CBI d          -7.127  43.214  11.024  0.00  0.00     0.091 H 
ATOM      9  C2  CBI d          -5.077  41.851  12.428  0.00  0.00     0.110 C 
ATOM     10  H3  CBI d          -6.094  40.321  11.232  0.00  0.00     0.091 H 
ATOM     11  H2  CBI d          -5.381  42.755  12.976  0.00  0.00     0.094 H 
ATOM     12  H1  CBI d          -3.478  41.361  10.952  0.00  0.00     0.133 H 
BRANCH   4  13
ATOM     13  C6  CBI d          -5.867  43.819   8.674  0.00  0.00     0.043 C 
ATOM     14  H6  CBI d          -5.939  43.383   7.667  0.00  0.00     0.078 H 
ATOM     15  H7  CBI d          -5.006  44.500   8.718  0.00  0.00     0.078 H 
BRANCH  13  16
ATOM     16  O6  CBI d          -7.024  44.616   8.852  0.00  0.00    -0.398 OA
ATOM     17  H11 CBI d          -7.773  44.053   9.010  0.00  0.00     0.209 HD
ENDBRANCH  13  16
ENDBRANCH   4  13
BRANCH   5  18
ATOM     18  O4  CBI d          -7.853  41.744   9.790  0.00  0.00    -0.390 OA
ATOM     19  H10 CBI d          -8.672  41.914  10.241  0.00  0.00     0.210 HD
ENDBRANCH   5  18
BRANCH   7  20
ATOM     20  O3  CBI d          -7.448  41.160  12.563  0.00  0.00    -0.390 OA
ATOM     21  H9  CBI d          -7.232  41.554  13.400  0.00  0.00     0.210 HD
ENDBRANCH   7  20
BRANCH   9  22
ATOM     22  O2  CBI d          -4.612  40.895  13.369  0.00  0.00    -0.388 OA
ATOM     23  H8  CBI d          -5.245  40.190  13.442  0.00  0.00     0.210 HD
ENDBRANCH   9  22
ENDBRANCH   1   2
BRANCH   1  24
ATOM     24  C4' CBI d          -1.557  42.766  11.808  0.00  0.00     0.096 C 
ATOM     25  C5' CBI d          -0.615  42.279  12.990  0.00  0.00     0.089 C 
ATOM     26  O5' CBI d           0.743  42.154  12.558  0.00  0.00    -0.349 OA
ATOM     27  H16 CBI d          -0.667  43.017  13.805  0.00  0.00     0.090 H 
ATOM     28  C1' CBI d           1.355  43.318  12.017  0.00  0.00     0.156 C 
ATOM     29  C2' CBI d           0.536  43.998  10.889  0.00  0.00     0.110 C 
ATOM     30  H12 CBI d           1.485  44.061  12.818  0.00  0.00     0.133 H 
ATOM     31  C3' CBI d          -0.980  44.128  11.240  0.00  0.00     0.092 C 
ATOM     32  H13 CBI d           0.605  43.358   9.997  0.00  0.00     0.094 H 
ATOM     33  H14 CBI d          -1.071  44.889  12.029  0.00  0.00     0.091 H 
ATOM     34  H15 CBI d          -1.523  42.007  11.013  0.00  0.00     0.091 H 
BRANCH  25  35
ATOM     35  C6' CBI d          -1.066  40.895  13.528  0.00  0.00     0.043 C 
ATOM     36  H17 CBI d          -0.218  40.415  14.037  0.00  0.00     0.078 H 
ATOM     37  H18 CBI d          -1.387  40.269  12.681  0.00  0.00     0.078 H 
BRANCH  35  38
ATOM     38  O6' CBI d          -2.142  41.023  14.442  0.00  0.00    -0.398 OA
ATOM     39  H22 CBI d          -2.664  40.229  14.427  0.00  0.00     0.209 HD
ENDBRANCH  35  38
ENDBRANCH  25  35
BRANCH  28  40
ATOM     40  O1' CBI d           2.625  42.867  11.592  0.00  0.00    -0.369 OA
ATOM     41  H19 CBI d           2.925  43.406  10.870  0.00  0.00     0.212 HD
ENDBRANCH  28  40
BRANCH  29  42
ATOM     42  O2' CBI d           1.124  45.246  10.569  0.00  0.00    -0.388 OA
ATOM     43  H20 CBI d           0.628  45.943  10.982  0.00  0.00     0.210 HD
ENDBRANCH  29  42
BRANCH  31  44
ATOM     44  O3' CBI d          -1.764  44.560  10.133  0.00  0.00    -0.390 OA
ATOM     45  H21 CBI d          -2.342  43.856   9.861  0.00  0.00     0.210 HD
ENDBRANCH  31  44
ENDBRANCH   1  24
TORSDOF 12
ENDMDL
MODEL 8
REMARK VINA RESULT:      -3.2      1.174      6.858
REMARK  12 active torsions:
REMARK  status: ('A' for Active; 'I' for Inactive)
REMARK    1  A    between atoms: C1_1  and  O4'_21 
REMARK    2  A    between atoms: C2_2  and  O2_7 
REMARK    3  A    between atoms: C3_3  and  O3_8 
REMARK    4  A    between atoms: C4_4  and  O4_9 
REMARK    5  A    between atoms: C5_5  and  C6_6 
REMARK    6  A    between atoms: C6_6  and  O6_11 
REMARK    7  A    between atoms: C1'_12  and  O1'_18 
REMARK    8  A    between atoms: C2'_13  and  O2'_19 
REMARK    9  A    between atoms: C3'_14  and  O3'_20 
REMARK   10  A    between atoms: O4'_21  and  C4'_15 
REMARK   11  A    between atoms: C5'_16  and  C6'_17 
REMARK   12  A    between atoms: C6'_17  and  O6'_23 
ROOT
ATOM      1  O4' CBI d          -3.904  42.974  13.173  0.00  0.00    -0.348 OA
ENDROOT
BRANCH   1   2
ATOM      2  C1  CBI d          -2.717  43.645  12.766  0.00  0.00     0.159 C 
ATOM      3  O5  CBI d          -2.641  43.696  11.346  0.00  0.00    -0.348 OA
ATOM      4  C5  CBI d          -1.479  44.269  10.719  0.00  0.00     0.089 C 
ATOM      5  C4  CBI d          -0.214  43.448  11.121  0.00  0.00     0.090 C 
ATOM      6  H5  CBI d          -1.345  45.314  11.036  0.00  0.00     0.090 H 
ATOM      7  C3  CBI d          -0.114  43.319  12.672  0.00  0.00     0.092 C 
ATOM      8  H4  CBI d          -0.320  42.438  10.700  0.00  0.00     0.091 H 
ATOM      9  C2  CBI d          -1.470  42.794  13.265  0.00  0.00     0.110 C 
ATOM     10  H3  CBI d           0.114  44.301  13.113  0.00  0.00     0.091 H 
ATOM     11  H2  CBI d          -1.609  41.758  12.923  0.00  0.00     0.094 H 
ATOM     12  H1  CBI d          -2.691  44.660  13.189  0.00  0.00     0.133 H 
BRANCH   4  13
ATOM     13  C6  CBI d          -1.767  44.211   9.203  0.00  0.00     0.043 C 
ATOM     14  H6  CBI d          -0.963  43.611   8.753  0.00  0.00     0.078 H 
ATOM     15  H7  CBI d          -1.706  45.244   8.832  0.00  0.00     0.078 H 
BRANCH  13  16
ATOM     16  O6  CBI d          -2.987  43.678   8.720  0.00  0.00    -0.398 OA
ATOM     17  H11 CBI d          -3.644  43.724   9.405  0.00  0.00     0.209 HD
ENDBRANCH  13  16
ENDBRANCH   4  13
BRANCH   5  18
ATOM     18  O4  CBI d           0.979  44.023  10.588  0.00  0.00    -0.390 OA
ATOM     19  H10 CBI d           1.732  43.535  10.903  0.00  0.00     0.210 HD
ENDBRANCH   5  18
BRANCH   7  20
ATOM     20  O3  CBI d           0.952  42.408  12.952  0.00  0.00    -0.390 OA
ATOM     21  H9  CBI d           0.997  42.252  13.888  0.00  0.00     0.210 HD
ENDBRANCH   7  20
BRANCH   9  22
ATOM     22  O2  CBI d          -1.418  42.792  14.684  0.00  0.00    -0.388 OA
ATOM     23  H8  CBI d          -1.279  41.904  14.993  0.00  0.00     0.210 HD
ENDBRANCH   9  22
ENDBRANCH   1   2
BRANCH   1  24
ATOM     24  C4' CBI d          -5.078  43.171  12.423  0.00  0.00     0.096 C 
ATOM     25  C5' CBI d          -6.383  43.383  13.303  0.00  0.00     0.089 C 
ATOM     26  O5' CBI d          -7.544  43.549  12.484  0.00  0.00    -0.349 OA
ATOM     27  H16 CBI d          -6.518  42.500  13.945  0.00  0.00     0.090 H 
ATOM     28  C1' CBI d          -7.845  42.497  11.576  0.00  0.00     0.156 C 
ATOM     29  C2' CBI d          -6.655  42.080  10.672  0.00  0.00     0.110 C 
ATOM     30  H12 CBI d          -8.148  41.606  12.146  0.00  0.00     0.133 H 
ATOM     31  C3' CBI d          -5.318  41.931  11.465  0.00  0.00     0.092 C 
ATOM     32  H13 CBI d          -6.503  42.882   9.934  0.00  0.00     0.094 H 
ATOM     33  H14 CBI d          -5.407  41.032  12.093  0.00  0.00     0.091 H 
ATOM     34  H15 CBI d          -4.934  44.071  11.808  0.00  0.00     0.091 H 
BRANCH  25  35
ATOM     35  C6' CBI d          -6.253  44.647  14.194  0.00  0.00     0.043 C 
ATOM     36  H17 CBI d          -7.095  44.674  14.902  0.00  0.00     0.078 H 
ATOM     37  H18 CBI d          -6.284  45.542  13.554  0.00  0.00     0.078 H 
BRANCH  35  38
ATOM     38  O6' CBI d          -5.037  44.641  14.923  0.00  0.00    -0.398 OA
ATOM     39  H22 CBI d          -4.420  44.054  14.502  0.00  0.00     0.209 HD
ENDBRANCH  35  38
ENDBRANCH  25  35
BRANCH  28  40
ATOM     40  O1' CBI d          -8.955  42.982  10.850  0.00  0.00    -0.369 OA
ATOM     41  H19 CBI d          -8.889  43.926  10.766  0.00  0.00     0.212 HD
ENDBRANCH  28  40
BRANCH  29  42
ATOM     42  O2' CBI d          -6.994  40.903   9.962  0.00  0.00    -0.388 OA
ATOM     43  H20 CBI d          -6.274  40.285  10.013  0.00  0.00     0.210 HD
ENDBRANCH  29  42
BRANCH  31  44
ATOM     44  O3' CBI d          -4.192  41.753  10.613  0.00  0.00    -0.390 OA
ATOM     45  H21 CBI d          -3.431  42.167  11.005  0.00  0.00     0.210 HD
ENDBRANCH  31  44
ENDBRANCH   1  24
TORSDOF 12
ENDMDL
MODEL 9
REMARK VINA RESULT:      -3.2      1.839      3.966
REMARK  12 active torsions:
REMARK  status: ('A' for Active; 'I' for Inactive)
REMARK    1  A    between atoms: C1_1  and  O4'_21 
REMARK    2  A    between atoms: C2_2  and  O2_7 
REMARK    3  A    between atoms: C3_3  and  O3_8 
REMARK    4  A    between atoms: C4_4  and  O4_9 
REMARK    5  A    between atoms: C5_5  and  C6_6 
REMARK    6  A    between atoms: C6_6  and  O6_11 
REMARK    7  A    between atoms: C1'_12  and  O1'_18 
REMARK    8  A    between atoms: C2'_13  and  O2'_19 
REMARK    9  A    between atoms: C3'_14  and  O3'_20 
REMARK   10  A    between atoms: O4'_21  and  C4'_15 
REMARK   11  A    between atoms: C5'_16  and  C6'_17 
REMARK   12  A    between atoms: C6'_17  and  O6'_23 
ROOT
ATOM      1  O4' CBI d          -2.652  43.342  11.447  0.00  0.00    -0.348 OA
ENDROOT
BRANCH   1   2
ATOM      2  C1  CBI d          -3.897  42.703  11.703  0.00  0.00     0.159 C 
ATOM      3  O5  CBI d          -4.576  42.438  10.480  0.00  0.00    -0.348 OA
ATOM      4  C5  CBI d          -5.893  41.859  10.513  0.00  0.00     0.089 C 
ATOM      5  C4  CBI d          -6.864  42.820  11.266  0.00  0.00     0.090 C 
ATOM      6  H5  CBI d          -5.875  40.888  11.029  0.00  0.00     0.090 H 
ATOM      7  C3  CBI d          -6.290  43.195  12.666  0.00  0.00     0.092 C 
ATOM      8  H4  CBI d          -6.952  43.743  10.674  0.00  0.00     0.091 H 
ATOM      9  C2  CBI d          -4.811  43.708  12.530  0.00  0.00     0.110 C 
ATOM     10  H3  CBI d          -6.304  42.312  13.322  0.00  0.00     0.091 H 
ATOM     11  H2  CBI d          -4.835  44.666  11.990  0.00  0.00     0.094 H 
ATOM     12  H1  CBI d          -3.737  41.770  12.263  0.00  0.00     0.133 H 
BRANCH   4  13
ATOM     13  C6  CBI d          -6.283  41.661   9.032  0.00  0.00     0.043 C 
ATOM     14  H6  CBI d          -5.644  40.855   8.643  0.00  0.00     0.078 H 
ATOM     15  H7  CBI d          -6.044  42.601   8.515  0.00  0.00     0.078 H 
BRANCH  13  16
ATOM     16  O6  CBI d          -7.613  41.329   8.674  0.00  0.00    -0.398 OA
ATOM     17  H11 CBI d          -7.880  41.858   7.931  0.00  0.00     0.209 HD
ENDBRANCH  13  16
ENDBRANCH   4  13
BRANCH   5  18
ATOM     18  O4  CBI d          -8.169  42.256  11.395  0.00  0.00    -0.390 OA
ATOM     19  H10 CBI d          -8.624  42.318  10.562  0.00  0.00     0.210 HD
ENDBRANCH   5  18
BRANCH   7  20
ATOM     20  O3  CBI d          -7.134  44.212  13.211  0.00  0.00    -0.390 OA
ATOM     21  H9  CBI d          -6.758  45.065  13.030  0.00  0.00     0.210 HD
ENDBRANCH   7  20
BRANCH   9  22
ATOM     22  O2  CBI d          -4.249  43.934  13.814  0.00  0.00    -0.388 OA
ATOM     23  H8  CBI d          -4.437  43.191  14.375  0.00  0.00     0.210 HD
ENDBRANCH   9  22
ENDBRANCH   1   2
BRANCH   1  24
ATOM     24  C4' CBI d          -1.483  42.560  11.443  0.00  0.00     0.096 C 
ATOM     25  C5' CBI d          -0.331  43.110  12.388  0.00  0.00     0.089 C 
ATOM     26  O5' CBI d           0.839  42.289  12.318  0.00  0.00    -0.349 OA
ATOM     27  H16 CBI d          -0.074  44.131  12.067  0.00  0.00     0.090 H 
ATOM     28  C1' CBI d           1.426  42.116  11.035  0.00  0.00     0.156 C 
ATOM     29  C2' CBI d           0.430  41.656   9.939  0.00  0.00     0.110 C 
ATOM     30  H12 CBI d           1.854  43.074  10.704  0.00  0.00     0.133 H 
ATOM     31  C3' CBI d          -0.912  42.455   9.970  0.00  0.00     0.092 C 
ATOM     32  H13 CBI d           0.182  40.603  10.138  0.00  0.00     0.094 H 
ATOM     33  H14 CBI d          -0.695  43.474   9.617  0.00  0.00     0.091 H 
ATOM     34  H15 CBI d          -1.755  41.553  11.792  0.00  0.00     0.091 H 
BRANCH  25  35
ATOM     35  C6' CBI d          -0.793  43.143  13.869  0.00  0.00     0.043 C 
ATOM     36  H17 CBI d          -1.275  44.110  14.073  0.00  0.00     0.078 H 
ATOM     37  H18 CBI d           0.085  43.026  14.521  0.00  0.00     0.078 H 
BRANCH  35  38
ATOM     38  O6' CBI d          -1.715  42.101  14.145  0.00  0.00    -0.398 OA
ATOM     39  H22 CBI d          -1.335  41.268  13.888  0.00  0.00     0.209 HD
ENDBRANCH  35  38
ENDBRANCH  25  35
BRANCH  28  40
ATOM     40  O1' CBI d           2.472  41.194  11.262  0.00  0.00    -0.369 OA
ATOM     41  H19 CBI d           2.104  40.351  11.498  0.00  0.00     0.212 HD
ENDBRANCH  28  40
BRANCH  29  42
ATOM     42  O2' CBI d           1.063  41.716   8.674  0.00  0.00    -0.388 OA
ATOM     43  H20 CBI d           1.992  41.541   8.777  0.00  0.00     0.210 HD
ENDBRANCH  29  42
BRANCH  31  44
ATOM     44  O3' CBI d          -1.899  41.901   9.107  0.00  0.00    -0.390 OA
ATOM     45  H21 CBI d          -2.262  42.589   8.560  0.00  0.00     0.210 HD
ENDBRANCH  31  44
ENDBRANCH   1  24
TORSDOF 12
ENDMDL
MODEL 10
REMARK VINA RESULT:      -3.1      1.776      1.968
REMARK  12 active torsions:
REMARK  status: ('A' for Active; 'I' for Inactive)
REMARK    1  A    between atoms: C1_1  and  O4'_21 
REMARK    2  A    between atoms: C2_2  and  O2_7 
REMARK    3  A    between atoms: C3_3  and  O3_8 
REMARK    4  A    between atoms: C4_4  and  O4_9 
REMARK    5  A    between atoms: C5_5  and  C6_6 
REMARK    6  A    between atoms: C6_6  and  O6_11 
REMARK    7  A    between atoms: C1'_12  and  O1'_18 
REMARK    8  A    between atoms: C2'_13  and  O2'_19 
REMARK    9  A    between atoms: C3'_14  and  O3'_20 
REMARK   10  A    between atoms: O4'_21  and  C4'_15 
REMARK   11  A    between atoms: C5'_16  and  C6'_17 
REMARK   12  A    between atoms: C6'_17  and  O6'_23 
ROOT
ATOM      1  O4' CBI d          -3.362  41.962  11.365  0.00  0.00    -0.348 OA
ENDROOT
BRANCH   1   2
ATOM      2  C1  CBI d          -4.551  42.644  11.746  0.00  0.00     0.159 C 
ATOM      3  O5  CBI d          -5.244  41.905  12.747  0.00  0.00    -0.348 OA
ATOM      4  C5  CBI d          -6.515  42.380  13.224  0.00  0.00     0.089 C 
ATOM      5  C4  CBI d          -7.530  42.429  12.040  0.00  0.00     0.090 C 
ATOM      6  H5  CBI d          -6.414  43.388  13.653  0.00  0.00     0.090 H 
ATOM      7  C3  CBI d          -6.943  43.244  10.847  0.00  0.00     0.092 C 
ATOM      8  H4  CBI d          -7.699  41.397  11.698  0.00  0.00     0.091 H 
ATOM      9  C2  CBI d          -5.509  42.718  10.480  0.00  0.00     0.110 C 
ATOM     10  H3  CBI d          -6.876  44.307  11.120  0.00  0.00     0.091 H 
ATOM     11  H2  CBI d          -5.615  41.700  10.077  0.00  0.00     0.094 H 
ATOM     12  H1  CBI d          -4.309  43.652  12.113  0.00  0.00     0.133 H 
BRANCH   4  13
ATOM     13  C6  CBI d          -6.934  41.380  14.324  0.00  0.00     0.043 C 
ATOM     14  H6  CBI d          -6.218  41.503  15.149  0.00  0.00     0.078 H 
ATOM     15  H7  CBI d          -6.826  40.375  13.891  0.00  0.00     0.078 H 
BRANCH  13  16
ATOM     16  O6  CBI d          -8.227  41.437  14.898  0.00  0.00    -0.398 OA
ATOM     17  H11 CBI d          -8.554  42.327  14.849  0.00  0.00     0.209 HD
ENDBRANCH  13  16
ENDBRANCH   4  13
BRANCH   5  18
ATOM     18  O4  CBI d          -8.788  42.969  12.444  0.00  0.00    -0.390 OA
ATOM     19  H10 CBI d          -8.645  43.773  12.930  0.00  0.00     0.210 HD
ENDBRANCH   5  18
BRANCH   7  20
ATOM     20  O3  CBI d          -7.841  43.087   9.745  0.00  0.00    -0.390 OA
ATOM     21  H9  CBI d          -7.465  43.488   8.971  0.00  0.00     0.210 HD
ENDBRANCH   7  20
BRANCH   9  22
ATOM     22  O2  CBI d          -4.928  43.537   9.476  0.00  0.00    -0.388 OA
ATOM     23  H8  CBI d          -4.153  43.110   9.130  0.00  0.00     0.210 HD
ENDBRANCH   9  22
ENDBRANCH   1   2
BRANCH   1  24
ATOM     24  C4' CBI d          -2.124  42.482  11.785  0.00  0.00     0.096 C 
ATOM     25  C5' CBI d          -1.120  42.808  10.599  0.00  0.00     0.089 C 
ATOM     26  O5' CBI d           0.127  43.305  11.092  0.00  0.00    -0.349 OA
ATOM     27  H16 CBI d          -0.940  41.883  10.030  0.00  0.00     0.090 H 
ATOM     28  C1' CBI d           0.840  42.470  11.996  0.00  0.00     0.156 C 
ATOM     29  C2' CBI d          -0.005  41.971  13.197  0.00  0.00     0.110 C 
ATOM     30  H12 CBI d           1.197  41.580  11.457  0.00  0.00     0.133 H 
ATOM     31  C3' CBI d          -1.418  41.461  12.770  0.00  0.00     0.092 C 
ATOM     32  H13 CBI d          -0.164  42.828  13.869  0.00  0.00     0.094 H 
ATOM     33  H14 CBI d          -1.275  40.513  12.229  0.00  0.00     0.091 H 
ATOM     34  H15 CBI d          -2.323  43.418  12.328  0.00  0.00     0.091 H 
BRANCH  25  35
ATOM     35  C6' CBI d          -1.711  43.883   9.649  0.00  0.00     0.043 C 
ATOM     36  H17 CBI d          -2.274  43.383   8.847  0.00  0.00     0.078 H 
ATOM     37  H18 CBI d          -0.888  44.466   9.210  0.00  0.00     0.078 H 
BRANCH  35  38
ATOM     38  O6' CBI d          -2.581  44.763  10.343  0.00  0.00    -0.398 OA
ATOM     39  H22 CBI d          -2.838  44.366  11.168  0.00  0.00     0.209 HD
ENDBRANCH  35  38
ENDBRANCH  25  35
BRANCH  28  40
ATOM     40  O1' CBI d           1.949  43.256  12.381  0.00  0.00    -0.369 OA
ATOM     41  H19 CBI d           1.670  44.154  12.509  0.00  0.00     0.212 HD
ENDBRANCH  28  40
BRANCH  29  42
ATOM     42  O2' CBI d           0.727  40.993  13.912  0.00  0.00    -0.388 OA
ATOM     43  H20 CBI d           0.691  40.167  13.444  0.00  0.00     0.210 HD
ENDBRANCH  29  42
BRANCH  31  44
ATOM     44  O3' CBI d          -2.266  41.197  13.883  0.00  0.00    -0.390 OA
ATOM     45  H21 CBI d          -1.753  41.221  14.682  0.00  0.00     0.210 HD
ENDBRANCH  31  44
ENDBRANCH   1  24
TORSDOF 12
ENDMDL
