REMARK  17 active torsions:
REMARK  status: ('A' for Active; 'I' for Inactive)
REMARK    1  A    between atoms: C_1  and  OA_3 
REMARK       I    between atoms: N_11  and  C_1 
REMARK    2  A    between atoms: OA_3  and  CB_4 
REMARK    3  A    between atoms: CB_4  and  CG_5 
REMARK    4  A    between atoms: CA_12  and  N_11 
REMARK    5  A    between atoms: P_13  and  CA_12 
REMARK    6  A    between atoms: CA_12  and  CB_16 
REMARK    7  A    between atoms: P_13  and  N_23 
REMARK    8  A    between atoms: CB_16  and  CG_17 
REMARK    9  A    between atoms: N_23  and  CA_24 
REMARK   10  A    between atoms: CA_24  and  CB_27 
REMARK   11  A    between atoms: CA_24  and  C_25 
REMARK       I    between atoms: C_25  and  N_31 
REMARK   12  A    between atoms: CB_27  and  CG_28 
REMARK   13  A    between atoms: CG_28  and  CD1_29 
REMARK   14  A    between atoms: CG_28  and  CD2_30 
REMARK   15  A    between atoms: N_31  and  CA_32 
REMARK   16  A    between atoms: CA_32  and  CB_35 
REMARK   17  A    between atoms: CA_32  and  C_33 
ROOT
ATOM      1  CA  MOL d          50.665  18.643  -6.839  0.00  0.00     0.112 C 
ATOM      2  H9  MOL d          49.757  19.006  -6.335  0.00  0.00     0.092 H 
ENDROOT
BRANCH   1   3
ATOM      3  N   MOL d          50.781  19.136  -8.240  0.00  0.00    -0.321 N 
ATOM      4  C   MOL d          50.429  20.387  -8.574  0.00  0.00     0.361 C 
ATOM      5  O   MOL d          49.898  21.252  -7.797  0.00  0.00    -0.238 OA
ATOM      6  H8  MOL d          51.129  18.521  -8.947  0.00  0.00     0.165 HD
BRANCH   4   7
ATOM      7  OA  MOL d          50.795  20.582  -9.889  0.00  0.00    -0.299 OA
BRANCH   7   8
ATOM      8  CB  MOL d          51.006  21.906 -10.406  0.00  0.00     0.054 C 
ATOM      9  H1  MOL d          52.071  22.180 -10.385  0.00  0.00     0.082 H 
ATOM     10  H2  MOL d          50.424  22.653  -9.846  0.00  0.00     0.082 H 
BRANCH   8  11
ATOM     11  CG  MOL d          50.509  21.767 -11.801  0.00  0.00    -0.034 A 
ATOM     12  CD1 MOL d          50.418  20.618 -12.594  0.00  0.00    -0.075 A 
ATOM     13  CE1 MOL d          49.873  20.607 -13.905  0.00  0.00    -0.082 A 
ATOM     14  H3  MOL d          50.784  19.683 -12.184  0.00  0.00     0.084 H 
ATOM     15  CZ  MOL d          49.363  21.692 -14.478  0.00  0.00    -0.083 A 
ATOM     16  H5  MOL d          49.873  19.676 -14.461  0.00  0.00     0.083 H 
ATOM     17  CE2 MOL d          49.501  22.746 -13.667  0.00  0.00    -0.082 A 
ATOM     18  H7  MOL d          48.903  21.719 -15.459  0.00  0.00     0.083 H 
ATOM     19  CD2 MOL d          50.017  22.881 -12.362  0.00  0.00    -0.075 A 
ATOM     20  H6  MOL d          49.148  23.677 -14.096  0.00  0.00     0.083 H 
ATOM     21  H4  MOL d          50.016  23.832 -11.841  0.00  0.00     0.084 H 
ENDBRANCH   8  11
ENDBRANCH   7   8
ENDBRANCH   4   7
ENDBRANCH   1   3
BRANCH   1  22
ATOM     22  P   MOL d          52.032  19.153  -6.064  0.00  0.00     0.229 P 
ATOM     23  OP1 MOL d          53.333  18.540  -6.709  0.00  0.00    -0.650 OA
ATOM     24  OP2 MOL d          52.108  20.732  -5.940  0.00  0.00    -0.650 OA
BRANCH  22  25
ATOM     25  N   MOL d          51.707  18.503  -4.310  0.00  0.00    -0.334 N 
ATOM     26  H17 MOL d          50.788  18.292  -3.978  0.00  0.00     0.164 HD
BRANCH  25  27
ATOM     27  CA  MOL d          52.905  18.332  -3.476  0.00  0.00     0.091 C 
ATOM     28  H18 MOL d          53.603  19.132  -3.764  0.00  0.00     0.087 H 
BRANCH  27  29
ATOM     29  CB  MOL d          52.606  18.471  -1.978  0.00  0.00    -0.035 C 
ATOM     30  H19 MOL d          51.910  17.671  -1.686  0.00  0.00     0.037 H 
ATOM     31  H20 MOL d          52.133  19.449  -1.806  0.00  0.00     0.037 H 
BRANCH  29  32
ATOM     32  CG  MOL d          53.837  18.375  -1.107  0.00  0.00    -0.059 C 
ATOM     33  H21 MOL d          54.453  17.501  -1.365  0.00  0.00     0.038 H 
BRANCH  32  34
ATOM     34  CD1 MOL d          54.692  19.648  -1.245  0.00  0.00    -0.073 C 
ATOM     35  H22 MOL d          55.583  19.562  -0.606  0.00  0.00     0.028 H 
ATOM     36  H23 MOL d          54.101  20.522  -0.935  0.00  0.00     0.028 H 
ATOM     37  H24 MOL d          55.003  19.769  -2.293  0.00  0.00     0.028 H 
ENDBRANCH  32  34
BRANCH  32  38
ATOM     38  CD2 MOL d          53.186  18.197   0.248  0.00  0.00    -0.073 C 
ATOM     39  H25 MOL d          52.599  17.267   0.253  0.00  0.00     0.028 H 
ATOM     40  H26 MOL d          52.522  19.050   0.451  0.00  0.00     0.028 H 
ATOM     41  H27 MOL d          53.964  18.145   1.024  0.00  0.00     0.028 H 
ENDBRANCH  32  38
ENDBRANCH  29  32
ENDBRANCH  27  29
BRANCH  27  42
ATOM     42  C   MOL d          53.636  16.990  -3.643  0.00  0.00     0.241 C 
ATOM     43  O   MOL d          54.870  16.919  -3.605  0.00  0.00    -0.271 OA
ATOM     44  N   MOL d          52.865  15.926  -3.751  0.00  0.00    -0.345 N 
ATOM     45  H28 MOL d          51.876  16.074  -3.758  0.00  0.00     0.163 HD
BRANCH  44  46
ATOM     46  CA  MOL d          53.343  14.533  -3.863  0.00  0.00     0.093 C 
ATOM     47  H29 MOL d          54.433  14.536  -4.008  0.00  0.00     0.089 H 
BRANCH  46  48
ATOM     48  CB  MOL d          53.015  13.809  -2.570  0.00  0.00    -0.048 C 
ATOM     49  H30 MOL d          53.364  12.768  -2.634  0.00  0.00     0.030 H 
ATOM     50  H31 MOL d          51.927  13.822  -2.408  0.00  0.00     0.030 H 
ATOM     51  H32 MOL d          53.516  14.313  -1.730  0.00  0.00     0.030 H 
ENDBRANCH  46  48
BRANCH  46  52
ATOM     52  C   MOL d          52.683  13.822  -5.071  0.00  0.00     0.196 C 
ATOM     53  O   MOL d          51.674  14.310  -5.621  0.00  0.00    -0.646 OA
ATOM     54  OXT MOL d          53.134  12.778  -5.668  0.00  0.00    -0.646 OA
ENDBRANCH  46  52
ENDBRANCH  44  46
ENDBRANCH  27  42
ENDBRANCH  25  27
ENDBRANCH  22  25
ENDBRANCH   1  22
BRANCH   1  55
ATOM     55  CB  MOL d          50.669  17.157  -6.973  0.00  0.00    -0.011 C 
ATOM     56  H10 MOL d          50.714  16.684  -5.981  0.00  0.00     0.044 H 
ATOM     57  H11 MOL d          51.530  16.830  -7.574  0.00  0.00     0.044 H 
BRANCH  55  58
ATOM     58  CG  MOL d          49.373  16.797  -7.670  0.00  0.00    -0.056 A 
ATOM     59  CD1 MOL d          48.217  16.788  -6.879  0.00  0.00    -0.077 A 
ATOM     60  CE1 MOL d          46.972  16.487  -7.446  0.00  0.00    -0.082 A 
ATOM     61  H12 MOL d          48.286  17.015  -5.821  0.00  0.00     0.084 H 
ATOM     62  CZ  MOL d          46.915  16.208  -8.806  0.00  0.00    -0.083 A 
ATOM     63  H14 MOL d          46.075  16.472  -6.838  0.00  0.00     0.083 H 
ATOM     64  CE2 MOL d          48.093  16.246  -9.607  0.00  0.00    -0.082 A 
ATOM     65  H16 MOL d          45.964  15.959  -9.263  0.00  0.00     0.083 H 
ATOM     66  CD2 MOL d          49.328  16.560  -9.021  0.00  0.00    -0.077 A 
ATOM     67  H15 MOL d          48.035  16.032 -10.668  0.00  0.00     0.083 H 
ATOM     68  H13 MOL d          50.228  16.614  -9.623  0.00  0.00     0.084 H 
ENDBRANCH  55  58
ENDBRANCH   1  55
TORSDOF 17
