MODEL 1
REMARK VINA RESULT:      -8.7      0.000      0.000
REMARK  17 active torsions:
REMARK  status: ('A' for Active; 'I' for Inactive)
REMARK    1  A    between atoms: C_1  and  OA_3 
REMARK       I    between atoms: N_11  and  C_1 
REMARK    2  A    between atoms: OA_3  and  CB_4 
REMARK    3  A    between atoms: CB_4  and  CG_5 
REMARK    4  A    between atoms: CA_12  and  N_11 
REMARK    5  A    between atoms: P_13  and  CA_12 
REMARK    6  A    between atoms: CA_12  and  CB_16 
REMARK    7  A    between atoms: P_13  and  N_23 
REMARK    8  A    between atoms: CB_16  and  CG_17 
REMARK    9  A    between atoms: N_23  and  CA_24 
REMARK   10  A    between atoms: CA_24  and  CB_27 
REMARK   11  A    between atoms: CA_24  and  C_25 
REMARK       I    between atoms: C_25  and  N_31 
REMARK   12  A    between atoms: CB_27  and  CG_28 
REMARK   13  A    between atoms: CG_28  and  CD1_29 
REMARK   14  A    between atoms: CG_28  and  CD2_30 
REMARK   15  A    between atoms: N_31  and  CA_32 
REMARK   16  A    between atoms: CA_32  and  CB_35 
REMARK   17  A    between atoms: CA_32  and  C_33 
ROOT
ATOM      1  CA  MOL d          50.669  18.398  -6.806  0.00  0.00     0.112 C 
ATOM      2  H9  MOL d          49.757  18.834  -6.371  0.00  0.00     0.092 H 
ENDROOT
BRANCH   1   3
ATOM      3  N   MOL d          50.837  18.738  -8.247  0.00  0.00    -0.321 N 
ATOM      4  C   MOL d          50.435  19.920  -8.740  0.00  0.00     0.361 C 
ATOM      5  O   MOL d          49.812  20.831  -8.095  0.00  0.00    -0.238 OA
ATOM      6  H8  MOL d          51.259  18.071  -8.860  0.00  0.00     0.165 HD
BRANCH   4   7
ATOM      7  OA  MOL d          50.864  19.989 -10.048  0.00  0.00    -0.299 OA
BRANCH   7   8
ATOM      8  CB  MOL d          49.926  19.939 -11.135  0.00  0.00     0.054 C 
ATOM      9  H1  MOL d          48.925  20.267 -10.816  0.00  0.00     0.082 H 
ATOM     10  H2  MOL d          49.861  18.928 -11.563  0.00  0.00     0.082 H 
BRANCH   8  11
ATOM     11  CG  MOL d          50.530  20.898 -12.099  0.00  0.00    -0.034 A 
ATOM     12  CD1 MOL d          50.258  21.068 -13.460  0.00  0.00    -0.075 A 
ATOM     13  CE1 MOL d          50.871  22.062 -14.268  0.00  0.00    -0.082 A 
ATOM     14  H3  MOL d          49.538  20.403 -13.925  0.00  0.00     0.084 H 
ATOM     15  CZ  MOL d          51.734  22.947 -13.782  0.00  0.00    -0.083 A 
ATOM     16  H5  MOL d          50.626  22.099 -15.323  0.00  0.00     0.083 H 
ATOM     17  CE2 MOL d          51.952  22.710 -12.484  0.00  0.00    -0.082 A 
ATOM     18  H7  MOL d          52.195  23.745 -14.353  0.00  0.00     0.083 H 
ATOM     19  CD2 MOL d          51.411  21.768 -11.585  0.00  0.00    -0.075 A 
ATOM     20  H6  MOL d          52.687  23.370 -12.036  0.00  0.00     0.083 H 
ATOM     21  H4  MOL d          51.692  21.749 -10.538  0.00  0.00     0.084 H 
ENDBRANCH   8  11
ENDBRANCH   7   8
ENDBRANCH   4   7
ENDBRANCH   1   3
BRANCH   1  22
ATOM     22  P   MOL d          52.027  18.954  -6.047  0.00  0.00     0.229 P 
ATOM     23  OP1 MOL d          53.328  18.244  -6.584  0.00  0.00    -0.650 OA
ATOM     24  OP2 MOL d          52.143  20.535  -6.087  0.00  0.00    -0.650 OA
BRANCH  22  25
ATOM     25  N   MOL d          51.635  18.501  -4.246  0.00  0.00    -0.334 N 
ATOM     26  H17 MOL d          50.699  18.393  -3.911  0.00  0.00     0.164 HD
BRANCH  25  27
ATOM     27  CA  MOL d          52.808  18.318  -3.379  0.00  0.00     0.091 C 
ATOM     28  H18 MOL d          53.547  19.071  -3.691  0.00  0.00     0.087 H 
BRANCH  27  29
ATOM     29  CB  MOL d          52.487  18.545  -1.896  0.00  0.00    -0.035 C 
ATOM     30  H19 MOL d          51.895  17.691  -1.534  0.00  0.00     0.037 H 
ATOM     31  H20 MOL d          51.895  19.467  -1.804  0.00  0.00     0.037 H 
BRANCH  29  32
ATOM     32  CG  MOL d          53.716  18.677  -1.028  0.00  0.00    -0.059 C 
ATOM     33  H21 MOL d          54.508  17.974  -1.330  0.00  0.00     0.038 H 
BRANCH  32  34
ATOM     34  CD1 MOL d          54.269  20.112  -1.096  0.00  0.00    -0.073 C 
ATOM     35  H22 MOL d          53.458  20.827  -0.892  0.00  0.00     0.028 H 
ATOM     36  H23 MOL d          54.681  20.300  -2.098  0.00  0.00     0.028 H 
ATOM     37  H24 MOL d          55.063  20.235  -0.345  0.00  0.00     0.028 H 
ENDBRANCH  32  34
BRANCH  32  38
ATOM     38  CD2 MOL d          53.132  18.289   0.314  0.00  0.00    -0.073 C 
ATOM     39  H25 MOL d          53.834  17.627   0.841  0.00  0.00     0.028 H 
ATOM     40  H26 MOL d          52.178  17.765   0.161  0.00  0.00     0.028 H 
ATOM     41  H27 MOL d          52.960  19.195   0.914  0.00  0.00     0.028 H 
ENDBRANCH  32  38
ENDBRANCH  29  32
ENDBRANCH  27  29
BRANCH  27  42
ATOM     42  C   MOL d          53.480  16.938  -3.465  0.00  0.00     0.241 C 
ATOM     43  O   MOL d          54.681  16.822  -3.735  0.00  0.00    -0.271 OA
ATOM     44  N   MOL d          52.717  15.908  -3.159  0.00  0.00    -0.345 N 
ATOM     45  H28 MOL d          51.760  16.095  -2.938  0.00  0.00     0.163 HD
BRANCH  44  46
ATOM     46  CA  MOL d          53.160  14.500  -3.117  0.00  0.00     0.093 C 
ATOM     47  H29 MOL d          54.219  14.463  -2.824  0.00  0.00     0.089 H 
BRANCH  46  48
ATOM     48  CB  MOL d          52.331  13.768  -2.078  0.00  0.00    -0.048 C 
ATOM     49  H30 MOL d          51.969  12.818  -2.499  0.00  0.00     0.030 H 
ATOM     50  H31 MOL d          51.472  14.391  -1.788  0.00  0.00     0.030 H 
ATOM     51  H32 MOL d          52.951  13.563  -1.192  0.00  0.00     0.030 H 
ENDBRANCH  46  48
BRANCH  46  52
ATOM     52  C   MOL d          53.006  13.834  -4.508  0.00  0.00     0.196 C 
ATOM     53  O   MOL d          53.895  13.080  -4.953  0.00  0.00    -0.646 OA
ATOM     54  OXT MOL d          51.967  13.896  -5.261  0.00  0.00    -0.646 OA
ENDBRANCH  46  52
ENDBRANCH  44  46
ENDBRANCH  27  42
ENDBRANCH  25  27
ENDBRANCH  22  25
ENDBRANCH   1  22
BRANCH   1  55
ATOM     55  CB  MOL d          50.636  16.907  -6.784  0.00  0.00    -0.011 C 
ATOM     56  H10 MOL d          50.841  16.535  -5.770  0.00  0.00     0.044 H 
ATOM     57  H11 MOL d          51.381  16.498  -7.482  0.00  0.00     0.044 H 
BRANCH  55  58
ATOM     58  CG  MOL d          49.238  16.513  -7.217  0.00  0.00    -0.056 A 
ATOM     59  CD1 MOL d          49.143  15.572  -8.249  0.00  0.00    -0.077 A 
ATOM     60  CE1 MOL d          47.890  15.135  -8.698  0.00  0.00    -0.082 A 
ATOM     61  H12 MOL d          50.045  15.178  -8.705  0.00  0.00     0.084 H 
ATOM     62  CZ  MOL d          46.753  15.652  -8.089  0.00  0.00    -0.083 A 
ATOM     63  H14 MOL d          47.810  14.411  -9.501  0.00  0.00     0.083 H 
ATOM     64  CE2 MOL d          46.861  16.589  -7.021  0.00  0.00    -0.082 A 
ATOM     65  H16 MOL d          45.773  15.338  -8.429  0.00  0.00     0.083 H 
ATOM     66  CD2 MOL d          48.126  17.005  -6.581  0.00  0.00    -0.077 A 
ATOM     67  H15 MOL d          45.967  16.981  -6.550  0.00  0.00     0.083 H 
ATOM     68  H13 MOL d          48.223  17.701  -5.755  0.00  0.00     0.084 H 
ENDBRANCH  55  58
ENDBRANCH   1  55
TORSDOF 17
ENDMDL
MODEL 2
REMARK VINA RESULT:      -8.0      1.639      3.597
REMARK  17 active torsions:
REMARK  status: ('A' for Active; 'I' for Inactive)
REMARK    1  A    between atoms: C_1  and  OA_3 
REMARK       I    between atoms: N_11  and  C_1 
REMARK    2  A    between atoms: OA_3  and  CB_4 
REMARK    3  A    between atoms: CB_4  and  CG_5 
REMARK    4  A    between atoms: CA_12  and  N_11 
REMARK    5  A    between atoms: P_13  and  CA_12 
REMARK    6  A    between atoms: CA_12  and  CB_16 
REMARK    7  A    between atoms: P_13  and  N_23 
REMARK    8  A    between atoms: CB_16  and  CG_17 
REMARK    9  A    between atoms: N_23  and  CA_24 
REMARK   10  A    between atoms: CA_24  and  CB_27 
REMARK   11  A    between atoms: CA_24  and  C_25 
REMARK       I    between atoms: C_25  and  N_31 
REMARK   12  A    between atoms: CB_27  and  CG_28 
REMARK   13  A    between atoms: CG_28  and  CD1_29 
REMARK   14  A    between atoms: CG_28  and  CD2_30 
REMARK   15  A    between atoms: N_31  and  CA_32 
REMARK   16  A    between atoms: CA_32  and  CB_35 
REMARK   17  A    between atoms: CA_32  and  C_33 
ROOT
ATOM      1  CA  MOL d          50.696  17.988  -6.576  0.00  0.00     0.112 C 
ATOM      2  H9  MOL d          49.824  18.494  -6.135  0.00  0.00     0.092 H 
ENDROOT
BRANCH   1   3
ATOM      3  N   MOL d          51.119  18.594  -7.869  0.00  0.00    -0.321 N 
ATOM      4  C   MOL d          50.869  19.881  -8.155  0.00  0.00     0.361 C 
ATOM      5  O   MOL d          50.199  20.696  -7.433  0.00  0.00    -0.238 OA
ATOM      6  H8  MOL d          51.599  18.029  -8.540  0.00  0.00     0.165 HD
BRANCH   4   7
ATOM      7  OA  MOL d          51.512  20.173  -9.340  0.00  0.00    -0.299 OA
BRANCH   7   8
ATOM      8  CB  MOL d          51.079  21.270 -10.161  0.00  0.00     0.054 C 
ATOM      9  H1  MOL d          51.934  21.856 -10.531  0.00  0.00     0.082 H 
ATOM     10  H2  MOL d          50.390  21.932  -9.616  0.00  0.00     0.082 H 
BRANCH   8  11
ATOM     11  CG  MOL d          50.387  20.561 -11.270  0.00  0.00    -0.034 A 
ATOM     12  CD1 MOL d          49.555  19.437 -11.214  0.00  0.00    -0.075 A 
ATOM     13  CE1 MOL d          48.907  18.880 -12.347  0.00  0.00    -0.082 A 
ATOM     14  H3  MOL d          49.396  18.965 -10.250  0.00  0.00     0.084 H 
ATOM     15  CZ  MOL d          49.007  19.409 -13.562  0.00  0.00    -0.083 A 
ATOM     16  H5  MOL d          48.307  17.986 -12.217  0.00  0.00     0.083 H 
ATOM     17  CE2 MOL d          49.827  20.465 -13.536  0.00  0.00    -0.082 A 
ATOM     18  H7  MOL d          48.499  19.039 -14.445  0.00  0.00     0.083 H 
ATOM     19  CD2 MOL d          50.519  21.105 -12.488  0.00  0.00    -0.075 A 
ATOM     20  H6  MOL d          49.991  20.915 -14.508  0.00  0.00     0.083 H 
ATOM     21  H4  MOL d          51.125  21.989 -12.657  0.00  0.00     0.084 H 
ENDBRANCH   8  11
ENDBRANCH   7   8
ENDBRANCH   4   7
ENDBRANCH   1   3
BRANCH   1  22
ATOM     22  P   MOL d          52.013  18.078  -5.581  0.00  0.00     0.229 P 
ATOM     23  OP1 MOL d          53.245  18.746  -6.302  0.00  0.00    -0.650 OA
ATOM     24  OP2 MOL d          51.680  18.768  -4.193  0.00  0.00    -0.650 OA
BRANCH  22  25
ATOM     25  N   MOL d          52.293  16.239  -5.201  0.00  0.00    -0.334 N 
ATOM     26  H17 MOL d          52.167  15.524  -5.887  0.00  0.00     0.164 HD
BRANCH  25  27
ATOM     27  CA  MOL d          52.710  15.944  -3.823  0.00  0.00     0.091 C 
ATOM     28  H18 MOL d          51.818  16.073  -3.192  0.00  0.00     0.087 H 
BRANCH  27  29
ATOM     29  CB  MOL d          53.215  14.506  -3.654  0.00  0.00    -0.035 C 
ATOM     30  H19 MOL d          54.211  14.430  -4.115  0.00  0.00     0.037 H 
ATOM     31  H20 MOL d          52.519  13.829  -4.171  0.00  0.00     0.037 H 
BRANCH  29  32
ATOM     32  CG  MOL d          53.323  14.071  -2.211  0.00  0.00    -0.059 C 
ATOM     33  H21 MOL d          54.004  14.718  -1.639  0.00  0.00     0.038 H 
BRANCH  32  34
ATOM     34  CD1 MOL d          51.937  14.088  -1.541  0.00  0.00    -0.073 C 
ATOM     35  H22 MOL d          51.252  13.432  -2.098  0.00  0.00     0.028 H 
ATOM     36  H23 MOL d          51.542  15.114  -1.541  0.00  0.00     0.028 H 
ATOM     37  H24 MOL d          52.026  13.729  -0.505  0.00  0.00     0.028 H 
ENDBRANCH  32  34
BRANCH  32  38
ATOM     38  CD2 MOL d          53.916  12.691  -2.397  0.00  0.00    -0.073 C 
ATOM     39  H25 MOL d          54.291  12.589  -3.426  0.00  0.00     0.028 H 
ATOM     40  H26 MOL d          53.143  11.931  -2.212  0.00  0.00     0.028 H 
ATOM     41  H27 MOL d          54.745  12.550  -1.688  0.00  0.00     0.028 H 
ENDBRANCH  32  38
ENDBRANCH  29  32
ENDBRANCH  27  29
BRANCH  27  42
ATOM     42  C   MOL d          53.816  16.854  -3.261  0.00  0.00     0.241 C 
ATOM     43  O   MOL d          54.888  17.007  -3.857  0.00  0.00    -0.271 OA
ATOM     44  N   MOL d          53.515  17.508  -2.157  0.00  0.00    -0.345 N 
ATOM     45  H28 MOL d          52.618  17.334  -1.749  0.00  0.00     0.163 HD
BRANCH  44  46
ATOM     46  CA  MOL d          54.395  18.476  -1.471  0.00  0.00     0.093 C 
ATOM     47  H29 MOL d          55.443  18.235  -1.699  0.00  0.00     0.089 H 
BRANCH  46  48
ATOM     48  CB  MOL d          54.079  19.865  -1.996  0.00  0.00    -0.048 C 
ATOM     49  H30 MOL d          53.746  19.795  -3.042  0.00  0.00     0.030 H 
ATOM     50  H31 MOL d          54.980  20.493  -1.939  0.00  0.00     0.030 H 
ATOM     51  H32 MOL d          53.281  20.314  -1.386  0.00  0.00     0.030 H 
ENDBRANCH  46  48
BRANCH  46  52
ATOM     52  C   MOL d          54.192  18.411   0.063  0.00  0.00     0.196 C 
ATOM     53  O   MOL d          55.151  18.607   0.839  0.00  0.00    -0.646 OA
ATOM     54  OXT MOL d          53.069  18.264   0.668  0.00  0.00    -0.646 OA
ENDBRANCH  46  52
ENDBRANCH  44  46
ENDBRANCH  27  42
ENDBRANCH  25  27
ENDBRANCH  22  25
ENDBRANCH   1  22
BRANCH   1  55
ATOM     55  CB  MOL d          50.401  16.566  -6.917  0.00  0.00    -0.011 C 
ATOM     56  H10 MOL d          50.367  15.953  -6.005  0.00  0.00     0.044 H 
ATOM     57  H11 MOL d          51.168  16.169  -7.597  0.00  0.00     0.044 H 
BRANCH  55  58
ATOM     58  CG  MOL d          49.047  16.573  -7.598  0.00  0.00    -0.056 A 
ATOM     59  CD1 MOL d          47.927  16.696  -6.765  0.00  0.00    -0.077 A 
ATOM     60  CE1 MOL d          46.638  16.732  -7.312  0.00  0.00    -0.082 A 
ATOM     61  H12 MOL d          48.059  16.763  -5.691  0.00  0.00     0.084 H 
ATOM     62  CZ  MOL d          46.502  16.652  -8.692  0.00  0.00    -0.083 A 
ATOM     63  H14 MOL d          45.767  16.820  -6.672  0.00  0.00     0.083 H 
ATOM     64  CE2 MOL d          47.650  16.554  -9.532  0.00  0.00    -0.082 A 
ATOM     65  H16 MOL d          45.513  16.664  -9.136  0.00  0.00     0.083 H 
ATOM     66  CD2 MOL d          48.932  16.530  -8.965  0.00  0.00    -0.077 A 
ATOM     67  H15 MOL d          47.531  16.498 -10.608  0.00  0.00     0.083 H 
ATOM     68  H13 MOL d          49.814  16.478  -9.593  0.00  0.00     0.084 H 
ENDBRANCH  55  58
ENDBRANCH   1  55
TORSDOF 17
ENDMDL
MODEL 3
REMARK VINA RESULT:      -7.2      2.724      9.068
REMARK  17 active torsions:
REMARK  status: ('A' for Active; 'I' for Inactive)
REMARK    1  A    between atoms: C_1  and  OA_3 
REMARK       I    between atoms: N_11  and  C_1 
REMARK    2  A    between atoms: OA_3  and  CB_4 
REMARK    3  A    between atoms: CB_4  and  CG_5 
REMARK    4  A    between atoms: CA_12  and  N_11 
REMARK    5  A    between atoms: P_13  and  CA_12 
REMARK    6  A    between atoms: CA_12  and  CB_16 
REMARK    7  A    between atoms: P_13  and  N_23 
REMARK    8  A    between atoms: CB_16  and  CG_17 
REMARK    9  A    between atoms: N_23  and  CA_24 
REMARK   10  A    between atoms: CA_24  and  CB_27 
REMARK   11  A    between atoms: CA_24  and  C_25 
REMARK       I    between atoms: C_25  and  N_31 
REMARK   12  A    between atoms: CB_27  and  CG_28 
REMARK   13  A    between atoms: CG_28  and  CD1_29 
REMARK   14  A    between atoms: CG_28  and  CD2_30 
REMARK   15  A    between atoms: N_31  and  CA_32 
REMARK   16  A    between atoms: CA_32  and  CB_35 
REMARK   17  A    between atoms: CA_32  and  C_33 
ROOT
ATOM      1  CA  MOL d          50.443  18.486  -7.543  0.00  0.00     0.112 C 
ATOM      2  H9  MOL d          50.897  17.587  -7.986  0.00  0.00     0.092 H 
ENDROOT
BRANCH   1   3
ATOM      3  N   MOL d          51.155  18.945  -6.317  0.00  0.00    -0.321 N 
ATOM      4  C   MOL d          51.841  18.089  -5.543  0.00  0.00     0.361 C 
ATOM      5  O   MOL d          51.905  16.822  -5.696  0.00  0.00    -0.238 OA
ATOM      6  H8  MOL d          51.122  19.912  -6.066  0.00  0.00     0.165 HD
BRANCH   4   7
ATOM      7  OA  MOL d          52.504  18.834  -4.591  0.00  0.00    -0.299 OA
BRANCH   7   8
ATOM      8  CB  MOL d          53.805  18.442  -4.124  0.00  0.00     0.054 C 
ATOM      9  H1  MOL d          54.570  19.182  -4.399  0.00  0.00     0.082 H 
ATOM     10  H2  MOL d          54.092  17.455  -4.516  0.00  0.00     0.082 H 
BRANCH   8  11
ATOM     11  CG  MOL d          53.596  18.399  -2.652  0.00  0.00    -0.034 A 
ATOM     12  CD1 MOL d          52.731  17.589  -1.907  0.00  0.00    -0.075 A 
ATOM     13  CE1 MOL d          52.660  17.608  -0.490  0.00  0.00    -0.082 A 
ATOM     14  H3  MOL d          52.079  16.909  -2.444  0.00  0.00     0.084 H 
ATOM     15  CZ  MOL d          53.445  18.377   0.257  0.00  0.00    -0.083 A 
ATOM     16  H5  MOL d          51.936  16.970   0.004  0.00  0.00     0.083 H 
ATOM     17  CE2 MOL d          54.228  19.128  -0.525  0.00  0.00    -0.082 A 
ATOM     18  H7  MOL d          53.451  18.394   1.341  0.00  0.00     0.083 H 
ATOM     19  CD2 MOL d          54.388  19.198  -1.923  0.00  0.00    -0.075 A 
ATOM     20  H6  MOL d          54.861  19.817   0.023  0.00  0.00     0.083 H 
ATOM     21  H4  MOL d          55.112  19.861  -2.385  0.00  0.00     0.084 H 
ENDBRANCH   8  11
ENDBRANCH   7   8
ENDBRANCH   4   7
ENDBRANCH   1   3
BRANCH   1  22
ATOM     22  P   MOL d          50.477  19.762  -8.592  0.00  0.00     0.229 P 
ATOM     23  OP1 MOL d          49.709  21.012  -8.017  0.00  0.00    -0.650 OA
ATOM     24  OP2 MOL d          51.948  20.123  -9.063  0.00  0.00    -0.650 OA
BRANCH  22  25
ATOM     25  N   MOL d          49.614  19.001 -10.101  0.00  0.00    -0.334 N 
ATOM     26  H17 MOL d          49.633  18.020 -10.292  0.00  0.00     0.164 HD
BRANCH  25  27
ATOM     27  CA  MOL d          48.914  19.959 -10.969  0.00  0.00     0.091 C 
ATOM     28  H18 MOL d          48.563  20.772 -10.316  0.00  0.00     0.087 H 
BRANCH  27  29
ATOM     29  CB  MOL d          49.830  20.564 -12.040  0.00  0.00    -0.035 C 
ATOM     30  H19 MOL d          49.302  20.538 -13.005  0.00  0.00     0.037 H 
ATOM     31  H20 MOL d          50.742  19.952 -12.105  0.00  0.00     0.037 H 
BRANCH  29  32
ATOM     32  CG  MOL d          50.232  21.992 -11.752  0.00  0.00    -0.059 C 
ATOM     33  H21 MOL d          50.109  22.244 -10.689  0.00  0.00     0.038 H 
BRANCH  32  34
ATOM     34  CD1 MOL d          51.699  22.227 -12.156  0.00  0.00    -0.073 C 
ATOM     35  H22 MOL d          51.826  22.002 -13.225  0.00  0.00     0.028 H 
ATOM     36  H23 MOL d          52.352  21.571 -11.563  0.00  0.00     0.028 H 
ATOM     37  H24 MOL d          51.967  23.277 -11.969  0.00  0.00     0.028 H 
ENDBRANCH  32  34
BRANCH  32  38
ATOM     38  CD2 MOL d          49.218  22.726 -12.604  0.00  0.00    -0.073 C 
ATOM     39  H25 MOL d          48.211  22.570 -12.190  0.00  0.00     0.028 H 
ATOM     40  H26 MOL d          49.255  22.339 -13.633  0.00  0.00     0.028 H 
ATOM     41  H27 MOL d          49.453  23.800 -12.608  0.00  0.00     0.028 H 
ENDBRANCH  32  38
ENDBRANCH  29  32
ENDBRANCH  27  29
BRANCH  27  42
ATOM     42  C   MOL d          47.693  19.399 -11.717  0.00  0.00     0.241 C 
ATOM     43  O   MOL d          46.574  19.910 -11.598  0.00  0.00    -0.271 OA
ATOM     44  N   MOL d          47.935  18.399 -12.541  0.00  0.00    -0.345 N 
ATOM     45  H28 MOL d          48.874  18.057 -12.586  0.00  0.00     0.163 HD
BRANCH  44  46
ATOM     46  CA  MOL d          46.932  17.741 -13.403  0.00  0.00     0.093 C 
ATOM     47  H29 MOL d          45.949  17.785 -12.912  0.00  0.00     0.089 H 
BRANCH  46  48
ATOM     48  CB  MOL d          46.864  18.496 -14.719  0.00  0.00    -0.048 C 
ATOM     49  H30 MOL d          46.421  17.848 -15.490  0.00  0.00     0.030 H 
ATOM     50  H31 MOL d          47.878  18.791 -15.025  0.00  0.00     0.030 H 
ATOM     51  H32 MOL d          46.243  19.395 -14.594  0.00  0.00     0.030 H 
ENDBRANCH  46  48
BRANCH  46  52
ATOM     52  C   MOL d          47.303  16.256 -13.643  0.00  0.00     0.196 C 
ATOM     53  O   MOL d          46.868  15.646 -14.641  0.00  0.00    -0.646 OA
ATOM     54  OXT MOL d          48.130  15.565 -12.944  0.00  0.00    -0.646 OA
ENDBRANCH  46  52
ENDBRANCH  44  46
ENDBRANCH  27  42
ENDBRANCH  25  27
ENDBRANCH  22  25
ENDBRANCH   1  22
BRANCH   1  55
ATOM     55  CB  MOL d          49.047  18.232  -7.081  0.00  0.00    -0.011 C 
ATOM     56  H10 MOL d          48.340  18.866  -7.635  0.00  0.00     0.044 H 
ATOM     57  H11 MOL d          48.958  18.438  -6.004  0.00  0.00     0.044 H 
BRANCH  55  58
ATOM     58  CG  MOL d          48.774  16.769  -7.361  0.00  0.00    -0.056 A 
ATOM     59  CD1 MOL d          47.537  16.269  -6.936  0.00  0.00    -0.077 A 
ATOM     60  CE1 MOL d          47.192  14.932  -7.174  0.00  0.00    -0.082 A 
ATOM     61  H12 MOL d          46.840  16.921  -6.421  0.00  0.00     0.084 H 
ATOM     62  CZ  MOL d          48.102  14.124  -7.844  0.00  0.00    -0.083 A 
ATOM     63  H14 MOL d          46.239  14.538  -6.842  0.00  0.00     0.083 H 
ATOM     64  CE2 MOL d          49.348  14.649  -8.295  0.00  0.00    -0.082 A 
ATOM     65  H16 MOL d          47.862  13.083  -8.026  0.00  0.00     0.083 H 
ATOM     66  CD2 MOL d          49.668  15.993  -8.056  0.00  0.00    -0.077 A 
ATOM     67  H15 MOL d          50.047  14.010  -8.822  0.00  0.00     0.083 H 
ATOM     68  H13 MOL d          50.603  16.411  -8.413  0.00  0.00     0.084 H 
ENDBRANCH  55  58
ENDBRANCH   1  55
TORSDOF 17
ENDMDL
MODEL 4
REMARK VINA RESULT:      -6.5      2.558      9.279
REMARK  17 active torsions:
REMARK  status: ('A' for Active; 'I' for Inactive)
REMARK    1  A    between atoms: C_1  and  OA_3 
REMARK       I    between atoms: N_11  and  C_1 
REMARK    2  A    between atoms: OA_3  and  CB_4 
REMARK    3  A    between atoms: CB_4  and  CG_5 
REMARK    4  A    between atoms: CA_12  and  N_11 
REMARK    5  A    between atoms: P_13  and  CA_12 
REMARK    6  A    between atoms: CA_12  and  CB_16 
REMARK    7  A    between atoms: P_13  and  N_23 
REMARK    8  A    between atoms: CB_16  and  CG_17 
REMARK    9  A    between atoms: N_23  and  CA_24 
REMARK   10  A    between atoms: CA_24  and  CB_27 
REMARK   11  A    between atoms: CA_24  and  C_25 
REMARK       I    between atoms: C_25  and  N_31 
REMARK   12  A    between atoms: CB_27  and  CG_28 
REMARK   13  A    between atoms: CG_28  and  CD1_29 
REMARK   14  A    between atoms: CG_28  and  CD2_30 
REMARK   15  A    between atoms: N_31  and  CA_32 
REMARK   16  A    between atoms: CA_32  and  CB_35 
REMARK   17  A    between atoms: CA_32  and  C_33 
ROOT
ATOM      1  CA  MOL d          49.629  17.729  -8.375  0.00  0.00     0.112 C 
ATOM      2  H9  MOL d          50.193  16.876  -8.781  0.00  0.00     0.092 H 
ENDROOT
BRANCH   1   3
ATOM      3  N   MOL d          50.227  18.268  -7.121  0.00  0.00    -0.321 N 
ATOM      4  C   MOL d          50.953  17.492  -6.301  0.00  0.00     0.361 C 
ATOM      5  O   MOL d          51.150  16.236  -6.432  0.00  0.00    -0.238 OA
ATOM      6  H8  MOL d          50.085  19.229  -6.885  0.00  0.00     0.165 HD
BRANCH   4   7
ATOM      7  OA  MOL d          51.487  18.308  -5.326  0.00  0.00    -0.299 OA
BRANCH   7   8
ATOM      8  CB  MOL d          52.905  18.348  -5.096  0.00  0.00     0.054 C 
ATOM      9  H1  MOL d          53.375  19.189  -5.626  0.00  0.00     0.082 H 
ATOM     10  H2  MOL d          53.388  17.407  -5.400  0.00  0.00     0.082 H 
BRANCH   8  11
ATOM     11  CG  MOL d          52.965  18.534  -3.621  0.00  0.00    -0.034 A 
ATOM     12  CD1 MOL d          51.936  18.436  -2.678  0.00  0.00    -0.075 A 
ATOM     13  CE1 MOL d          52.133  18.588  -1.280  0.00  0.00    -0.082 A 
ATOM     14  H3  MOL d          50.933  18.232  -3.034  0.00  0.00     0.084 H 
ATOM     15  CZ  MOL d          53.330  18.800  -0.743  0.00  0.00    -0.083 A 
ATOM     16  H5  MOL d          51.272  18.529  -0.624  0.00  0.00     0.083 H 
ATOM     17  CE2 MOL d          54.253  18.896  -1.706  0.00  0.00    -0.082 A 
ATOM     18  H7  MOL d          53.529  18.883   0.319  0.00  0.00     0.083 H 
ATOM     19  CD2 MOL d          54.182  18.765  -3.108  0.00  0.00    -0.075 A 
ATOM     20  H6  MOL d          55.248  19.119  -1.338  0.00  0.00     0.083 H 
ATOM     21  H4  MOL d          55.062  18.846  -3.736  0.00  0.00     0.084 H 
ENDBRANCH   8  11
ENDBRANCH   7   8
ENDBRANCH   4   7
ENDBRANCH   1   3
BRANCH   1  22
ATOM     22  P   MOL d          49.593  18.992  -9.439  0.00  0.00     0.229 P 
ATOM     23  OP1 MOL d          48.343  19.923  -9.199  0.00  0.00    -0.650 OA
ATOM     24  OP2 MOL d          50.954  19.806  -9.464  0.00  0.00    -0.650 OA
BRANCH  22  25
ATOM     25  N   MOL d          49.507  18.060 -11.091  0.00  0.00    -0.334 N 
ATOM     26  H17 MOL d          50.047  17.239 -11.272  0.00  0.00     0.164 HD
BRANCH  25  27
ATOM     27  CA  MOL d          48.587  18.633 -12.083  0.00  0.00     0.091 C 
ATOM     28  H18 MOL d          48.843  18.172 -13.049  0.00  0.00     0.087 H 
BRANCH  27  29
ATOM     29  CB  MOL d          47.117  18.321 -11.775  0.00  0.00    -0.035 C 
ATOM     30  H19 MOL d          46.560  19.269 -11.739  0.00  0.00     0.037 H 
ATOM     31  H20 MOL d          47.064  17.827 -10.794  0.00  0.00     0.037 H 
BRANCH  29  32
ATOM     32  CG  MOL d          46.465  17.422 -12.800  0.00  0.00    -0.059 C 
ATOM     33  H21 MOL d          45.384  17.609 -12.879  0.00  0.00     0.038 H 
BRANCH  32  34
ATOM     34  CD1 MOL d          47.110  17.629 -14.183  0.00  0.00    -0.073 C 
ATOM     35  H22 MOL d          47.016  16.706 -14.773  0.00  0.00     0.028 H 
ATOM     36  H23 MOL d          48.174  17.877 -14.057  0.00  0.00     0.028 H 
ATOM     37  H24 MOL d          46.601  18.452 -14.706  0.00  0.00     0.028 H 
ENDBRANCH  32  34
BRANCH  32  38
ATOM     38  CD2 MOL d          46.736  16.071 -12.174  0.00  0.00    -0.073 C 
ATOM     39  H25 MOL d          47.775  16.037 -11.813  0.00  0.00     0.028 H 
ATOM     40  H26 MOL d          46.583  15.282 -12.924  0.00  0.00     0.028 H 
ATOM     41  H27 MOL d          46.048  15.914 -11.330  0.00  0.00     0.028 H 
ENDBRANCH  32  38
ENDBRANCH  29  32
ENDBRANCH  27  29
BRANCH  27  42
ATOM     42  C   MOL d          48.673  20.158 -12.256  0.00  0.00     0.241 C 
ATOM     43  O   MOL d          47.667  20.873 -12.183  0.00  0.00    -0.271 OA
ATOM     44  N   MOL d          49.887  20.651 -12.407  0.00  0.00    -0.345 N 
ATOM     45  H28 MOL d          50.646  20.001 -12.440  0.00  0.00     0.163 HD
BRANCH  44  46
ATOM     46  CA  MOL d          50.216  22.085 -12.533  0.00  0.00     0.093 C 
ATOM     47  H29 MOL d          49.347  22.621 -12.941  0.00  0.00     0.089 H 
BRANCH  46  48
ATOM     48  CB  MOL d          50.530  22.627 -11.150  0.00  0.00    -0.048 C 
ATOM     49  H30 MOL d          51.495  23.155 -11.173  0.00  0.00     0.030 H 
ATOM     50  H31 MOL d          50.584  21.795 -10.433  0.00  0.00     0.030 H 
ATOM     51  H32 MOL d          49.738  23.325 -10.841  0.00  0.00     0.030 H 
ENDBRANCH  46  48
BRANCH  46  52
ATOM     52  C   MOL d          51.419  22.290 -13.487  0.00  0.00     0.196 C 
ATOM     53  O   MOL d          51.289  22.123 -14.717  0.00  0.00    -0.646 OA
ATOM     54  OXT MOL d          52.579  22.730 -13.152  0.00  0.00    -0.646 OA
ENDBRANCH  46  52
ENDBRANCH  44  46
ENDBRANCH  27  42
ENDBRANCH  25  27
ENDBRANCH  22  25
ENDBRANCH   1  22
BRANCH   1  55
ATOM     55  CB  MOL d          48.243  17.342  -7.982  0.00  0.00    -0.011 C 
ATOM     56  H10 MOL d          47.512  18.030  -8.431  0.00  0.00     0.044 H 
ATOM     57  H11 MOL d          48.137  17.360  -6.887  0.00  0.00     0.044 H 
BRANCH  55  58
ATOM     58  CG  MOL d          48.037  15.937  -8.508  0.00  0.00    -0.056 A 
ATOM     59  CD1 MOL d          46.722  15.454  -8.508  0.00  0.00    -0.077 A 
ATOM     60  CE1 MOL d          46.437  14.173  -8.997  0.00  0.00    -0.082 A 
ATOM     61  H12 MOL d          45.919  16.075  -8.126  0.00  0.00     0.084 H 
ATOM     62  CZ  MOL d          47.486  13.403  -9.486  0.00  0.00    -0.083 A 
ATOM     63  H14 MOL d          45.423  13.791  -8.993  0.00  0.00     0.083 H 
ATOM     64  CE2 MOL d          48.816  13.914  -9.507  0.00  0.00    -0.082 A 
ATOM     65  H16 MOL d          47.290  12.404  -9.857  0.00  0.00     0.083 H 
ATOM     66  CD2 MOL d          49.077  15.204  -9.022  0.00  0.00    -0.077 A 
ATOM     67  H15 MOL d          49.624  13.307  -9.896  0.00  0.00     0.083 H 
ATOM     68  H13 MOL d          50.081  15.613  -9.052  0.00  0.00     0.084 H 
ENDBRANCH  55  58
ENDBRANCH   1  55
TORSDOF 17
ENDMDL
MODEL 5
REMARK VINA RESULT:      -6.3      2.779      7.330
REMARK  17 active torsions:
REMARK  status: ('A' for Active; 'I' for Inactive)
REMARK    1  A    between atoms: C_1  and  OA_3 
REMARK       I    between atoms: N_11  and  C_1 
REMARK    2  A    between atoms: OA_3  and  CB_4 
REMARK    3  A    between atoms: CB_4  and  CG_5 
REMARK    4  A    between atoms: CA_12  and  N_11 
REMARK    5  A    between atoms: P_13  and  CA_12 
REMARK    6  A    between atoms: CA_12  and  CB_16 
REMARK    7  A    between atoms: P_13  and  N_23 
REMARK    8  A    between atoms: CB_16  and  CG_17 
REMARK    9  A    between atoms: N_23  and  CA_24 
REMARK   10  A    between atoms: CA_24  and  CB_27 
REMARK   11  A    between atoms: CA_24  and  C_25 
REMARK       I    between atoms: C_25  and  N_31 
REMARK   12  A    between atoms: CB_27  and  CG_28 
REMARK   13  A    between atoms: CG_28  and  CD1_29 
REMARK   14  A    between atoms: CG_28  and  CD2_30 
REMARK   15  A    between atoms: N_31  and  CA_32 
REMARK   16  A    between atoms: CA_32  and  CB_35 
REMARK   17  A    between atoms: CA_32  and  C_33 
ROOT
ATOM      1  CA  MOL d          50.907  17.447  -7.766  0.00  0.00     0.112 C 
ATOM      2  H9  MOL d          52.003  17.367  -7.812  0.00  0.00     0.092 H 
ENDROOT
BRANCH   1   3
ATOM      3  N   MOL d          50.372  18.530  -8.639  0.00  0.00    -0.321 N 
ATOM      4  C   MOL d          51.032  19.686  -8.805  0.00  0.00     0.361 C 
ATOM      5  O   MOL d          52.108  20.031  -8.207  0.00  0.00    -0.238 OA
ATOM      6  H8  MOL d          49.502  18.392  -9.111  0.00  0.00     0.165 HD
BRANCH   4   7
ATOM      7  OA  MOL d          50.368  20.405  -9.776  0.00  0.00    -0.299 OA
BRANCH   7   8
ATOM      8  CB  MOL d          50.300  21.839  -9.713  0.00  0.00     0.054 C 
ATOM      9  H1  MOL d          51.104  22.252  -9.087  0.00  0.00     0.082 H 
ATOM     10  H2  MOL d          49.326  22.178  -9.329  0.00  0.00     0.082 H 
BRANCH   8  11
ATOM     11  CG  MOL d          50.477  22.212 -11.142  0.00  0.00    -0.034 A 
ATOM     12  CD1 MOL d          49.569  22.824 -12.013  0.00  0.00    -0.075 A 
ATOM     13  CE1 MOL d          49.878  23.177 -13.352  0.00  0.00    -0.082 A 
ATOM     14  H3  MOL d          48.572  23.039 -11.643  0.00  0.00     0.084 H 
ATOM     15  CZ  MOL d          51.082  22.991 -13.883  0.00  0.00    -0.083 A 
ATOM     16  H5  MOL d          49.101  23.618 -13.967  0.00  0.00     0.083 H 
ATOM     17  CE2 MOL d          51.885  22.391 -12.997  0.00  0.00    -0.082 A 
ATOM     18  H7  MOL d          51.371  23.281 -14.886  0.00  0.00     0.083 H 
ATOM     19  CD2 MOL d          51.696  21.996 -11.657  0.00  0.00    -0.075 A 
ATOM     20  H6  MOL d          52.871  22.165 -13.385  0.00  0.00     0.083 H 
ATOM     21  H4  MOL d          52.491  21.543 -11.076  0.00  0.00     0.084 H 
ENDBRANCH   8  11
ENDBRANCH   7   8
ENDBRANCH   4   7
ENDBRANCH   1   3
BRANCH   1  22
ATOM     22  P   MOL d          50.177  16.055  -8.273  0.00  0.00     0.229 P 
ATOM     23  OP1 MOL d          50.910  15.430  -9.520  0.00  0.00    -0.650 OA
ATOM     24  OP2 MOL d          49.986  15.006  -7.099  0.00  0.00    -0.650 OA
BRANCH  22  25
ATOM     25  N   MOL d          48.440  16.698  -8.690  0.00  0.00    -0.334 N 
ATOM     26  H17 MOL d          48.055  17.518  -8.267  0.00  0.00     0.164 HD
BRANCH  25  27
ATOM     27  CA  MOL d          47.701  15.902  -9.681  0.00  0.00     0.091 C 
ATOM     28  H18 MOL d          48.379  15.099 -10.005  0.00  0.00     0.087 H 
BRANCH  27  29
ATOM     29  CB  MOL d          46.437  15.259  -9.098  0.00  0.00    -0.035 C 
ATOM     30  H19 MOL d          45.612  15.403  -9.811  0.00  0.00     0.037 H 
ATOM     31  H20 MOL d          46.194  15.763  -8.151  0.00  0.00     0.037 H 
BRANCH  29  32
ATOM     32  CG  MOL d          46.583  13.779  -8.829  0.00  0.00    -0.059 C 
ATOM     33  H21 MOL d          45.689  13.218  -9.135  0.00  0.00     0.038 H 
BRANCH  32  34
ATOM     34  CD1 MOL d          47.807  13.217  -9.575  0.00  0.00    -0.073 C 
ATOM     35  H22 MOL d          48.654  13.133  -8.878  0.00  0.00     0.028 H 
ATOM     36  H23 MOL d          48.077  13.894 -10.399  0.00  0.00     0.028 H 
ATOM     37  H24 MOL d          47.566  12.224  -9.980  0.00  0.00     0.028 H 
ENDBRANCH  32  34
BRANCH  32  38
ATOM     38  CD2 MOL d          46.719  13.799  -7.321  0.00  0.00    -0.073 C 
ATOM     39  H25 MOL d          45.778  14.150  -6.873  0.00  0.00     0.028 H 
ATOM     40  H26 MOL d          47.536  14.479  -7.035  0.00  0.00     0.028 H 
ATOM     41  H27 MOL d          46.943  12.785  -6.960  0.00  0.00     0.028 H 
ENDBRANCH  32  38
ENDBRANCH  29  32
ENDBRANCH  27  29
BRANCH  27  42
ATOM     42  C   MOL d          47.251  16.669 -10.935  0.00  0.00     0.241 C 
ATOM     43  O   MOL d          46.577  16.123 -11.817  0.00  0.00    -0.271 OA
ATOM     44  N   MOL d          47.563  17.949 -10.968  0.00  0.00    -0.345 N 
ATOM     45  H28 MOL d          48.097  18.312 -10.205  0.00  0.00     0.163 HD
BRANCH  44  46
ATOM     46  CA  MOL d          47.187  18.892 -12.041  0.00  0.00     0.093 C 
ATOM     47  H29 MOL d          46.243  18.561 -12.498  0.00  0.00     0.089 H 
BRANCH  46  48
ATOM     48  CB  MOL d          46.987  20.264 -11.424  0.00  0.00    -0.048 C 
ATOM     49  H30 MOL d          47.916  20.582 -10.928  0.00  0.00     0.030 H 
ATOM     50  H31 MOL d          46.173  20.219 -10.685  0.00  0.00     0.030 H 
ATOM     51  H32 MOL d          46.726  20.986 -12.212  0.00  0.00     0.030 H 
ENDBRANCH  46  48
BRANCH  46  52
ATOM     52  C   MOL d          48.280  18.939 -13.138  0.00  0.00     0.196 C 
ATOM     53  O   MOL d          48.066  18.455 -14.269  0.00  0.00    -0.646 OA
ATOM     54  OXT MOL d          49.413  19.537 -13.046  0.00  0.00    -0.646 OA
ENDBRANCH  46  52
ENDBRANCH  44  46
ENDBRANCH  27  42
ENDBRANCH  25  27
ENDBRANCH  22  25
ENDBRANCH   1  22
BRANCH   1  55
ATOM     55  CB  MOL d          50.434  17.813  -6.399  0.00  0.00    -0.011 C 
ATOM     56  H10 MOL d          49.651  17.115  -6.066  0.00  0.00     0.044 H 
ATOM     57  H11 MOL d          50.036  18.838  -6.394  0.00  0.00     0.044 H 
BRANCH  55  58
ATOM     58  CG  MOL d          51.647  17.714  -5.497  0.00  0.00    -0.056 A 
ATOM     59  CD1 MOL d          52.003  16.430  -5.065  0.00  0.00    -0.077 A 
ATOM     60  CE1 MOL d          53.124  16.244  -4.245  0.00  0.00    -0.082 A 
ATOM     61  H12 MOL d          51.408  15.575  -5.365  0.00  0.00     0.084 H 
ATOM     62  CZ  MOL d          53.871  17.358  -3.883  0.00  0.00    -0.083 A 
ATOM     63  H14 MOL d          53.401  15.254  -3.902  0.00  0.00     0.083 H 
ATOM     64  CE2 MOL d          53.515  18.656  -4.351  0.00  0.00    -0.082 A 
ATOM     65  H16 MOL d          54.734  17.239  -3.239  0.00  0.00     0.083 H 
ATOM     66  CD2 MOL d          52.395  18.819  -5.179  0.00  0.00    -0.077 A 
ATOM     67  H15 MOL d          54.109  19.517  -4.066  0.00  0.00     0.083 H 
ATOM     68  H13 MOL d          52.126  19.798  -5.559  0.00  0.00     0.084 H 
ENDBRANCH  55  58
ENDBRANCH   1  55
TORSDOF 17
ENDMDL
MODEL 6
REMARK VINA RESULT:      -6.1      2.726      8.617
REMARK  17 active torsions:
REMARK  status: ('A' for Active; 'I' for Inactive)
REMARK    1  A    between atoms: C_1  and  OA_3 
REMARK       I    between atoms: N_11  and  C_1 
REMARK    2  A    between atoms: OA_3  and  CB_4 
REMARK    3  A    between atoms: CB_4  and  CG_5 
REMARK    4  A    between atoms: CA_12  and  N_11 
REMARK    5  A    between atoms: P_13  and  CA_12 
REMARK    6  A    between atoms: CA_12  and  CB_16 
REMARK    7  A    between atoms: P_13  and  N_23 
REMARK    8  A    between atoms: CB_16  and  CG_17 
REMARK    9  A    between atoms: N_23  and  CA_24 
REMARK   10  A    between atoms: CA_24  and  CB_27 
REMARK   11  A    between atoms: CA_24  and  C_25 
REMARK       I    between atoms: C_25  and  N_31 
REMARK   12  A    between atoms: CB_27  and  CG_28 
REMARK   13  A    between atoms: CG_28  and  CD1_29 
REMARK   14  A    between atoms: CG_28  and  CD2_30 
REMARK   15  A    between atoms: N_31  and  CA_32 
REMARK   16  A    between atoms: CA_32  and  CB_35 
REMARK   17  A    between atoms: CA_32  and  C_33 
ROOT
ATOM      1  CA  MOL d          51.196  15.805  -6.752  0.00  0.00     0.112 C 
ATOM      2  H9  MOL d          51.971  15.746  -7.531  0.00  0.00     0.092 H 
ENDROOT
BRANCH   1   3
ATOM      3  N   MOL d          51.588  16.687  -5.617  0.00  0.00    -0.321 N 
ATOM      4  C   MOL d          52.135  17.894  -5.825  0.00  0.00     0.361 C 
ATOM      5  O   MOL d          52.454  18.391  -6.959  0.00  0.00    -0.238 OA
ATOM      6  H8  MOL d          51.439  16.372  -4.680  0.00  0.00     0.165 HD
BRANCH   4   7
ATOM      7  OA  MOL d          52.237  18.517  -4.599  0.00  0.00    -0.299 OA
BRANCH   7   8
ATOM      8  CB  MOL d          53.514  18.937  -4.091  0.00  0.00     0.054 C 
ATOM      9  H1  MOL d          53.695  20.003  -4.291  0.00  0.00     0.082 H 
ATOM     10  H2  MOL d          54.333  18.339  -4.519  0.00  0.00     0.082 H 
BRANCH   8  11
ATOM     11  CG  MOL d          53.359  18.676  -2.635  0.00  0.00    -0.034 A 
ATOM     12  CD1 MOL d          54.280  18.874  -1.601  0.00  0.00    -0.075 A 
ATOM     13  CE1 MOL d          53.991  18.633  -0.232  0.00  0.00    -0.082 A 
ATOM     14  H3  MOL d          55.270  19.233  -1.859  0.00  0.00     0.084 H 
ATOM     15  CZ  MOL d          52.796  18.231   0.188  0.00  0.00    -0.083 A 
ATOM     16  H5  MOL d          54.777  18.781   0.501  0.00  0.00     0.083 H 
ATOM     17  CE2 MOL d          51.980  18.051  -0.856  0.00  0.00    -0.082 A 
ATOM     18  H7  MOL d          52.522  18.073   1.225  0.00  0.00     0.083 H 
ATOM     19  CD2 MOL d          52.149  18.254  -2.241  0.00  0.00    -0.075 A 
ATOM     20  H6  MOL d          51.000  17.675  -0.585  0.00  0.00     0.083 H 
ATOM     21  H4  MOL d          51.345  18.080  -2.947  0.00  0.00     0.084 H 
ENDBRANCH   8  11
ENDBRANCH   7   8
ENDBRANCH   4   7
ENDBRANCH   1   3
BRANCH   1  22
ATOM     22  P   MOL d          49.787  16.429  -7.347  0.00  0.00     0.229 P 
ATOM     23  OP1 MOL d          48.824  15.298  -7.876  0.00  0.00    -0.650 OA
ATOM     24  OP2 MOL d          49.068  17.398  -6.317  0.00  0.00    -0.650 OA
BRANCH  22  25
ATOM     25  N   MOL d          50.450  17.538  -8.738  0.00  0.00    -0.334 N 
ATOM     26  H17 MOL d          51.362  17.419  -9.129  0.00  0.00     0.164 HD
BRANCH  25  27
ATOM     27  CA  MOL d          49.524  18.582  -9.198  0.00  0.00     0.091 C 
ATOM     28  H18 MOL d          49.302  19.210  -8.322  0.00  0.00     0.087 H 
BRANCH  27  29
ATOM     29  CB  MOL d          50.135  19.474 -10.286  0.00  0.00    -0.035 C 
ATOM     30  H19 MOL d          49.318  19.900 -10.886  0.00  0.00     0.037 H 
ATOM     31  H20 MOL d          50.776  18.852 -10.928  0.00  0.00     0.037 H 
BRANCH  29  32
ATOM     32  CG  MOL d          50.966  20.610  -9.736  0.00  0.00    -0.059 C 
ATOM     33  H21 MOL d          51.957  20.268  -9.403  0.00  0.00     0.038 H 
BRANCH  32  34
ATOM     34  CD1 MOL d          51.148  21.706 -10.803  0.00  0.00    -0.073 C 
ATOM     35  H22 MOL d          52.220  21.837 -11.014  0.00  0.00     0.028 H 
ATOM     36  H23 MOL d          50.729  22.652 -10.431  0.00  0.00     0.028 H 
ATOM     37  H24 MOL d          50.626  21.411 -11.725  0.00  0.00     0.028 H 
ENDBRANCH  32  34
BRANCH  32  38
ATOM     38  CD2 MOL d          50.109  21.016  -8.556  0.00  0.00    -0.073 C 
ATOM     39  H25 MOL d          49.821  20.119  -7.988  0.00  0.00     0.028 H 
ATOM     40  H26 MOL d          49.204  21.526  -8.918  0.00  0.00     0.028 H 
ATOM     41  H27 MOL d          50.679  21.696  -7.907  0.00  0.00     0.028 H 
ENDBRANCH  32  38
ENDBRANCH  29  32
ENDBRANCH  27  29
BRANCH  27  42
ATOM     42  C   MOL d          48.188  18.074  -9.762  0.00  0.00     0.241 C 
ATOM     43  O   MOL d          47.113  18.337  -9.209  0.00  0.00    -0.271 OA
ATOM     44  N   MOL d          48.260  17.415 -10.901  0.00  0.00    -0.345 N 
ATOM     45  H28 MOL d          49.170  17.260 -11.286  0.00  0.00     0.163 HD
BRANCH  44  46
ATOM     46  CA  MOL d          47.105  16.885 -11.655  0.00  0.00     0.093 C 
ATOM     47  H29 MOL d          46.180  17.115 -11.108  0.00  0.00     0.089 H 
BRANCH  46  48
ATOM     48  CB  MOL d          47.064  17.568 -13.010  0.00  0.00    -0.048 C 
ATOM     49  H30 MOL d          46.757  16.842 -13.777  0.00  0.00     0.030 H 
ATOM     50  H31 MOL d          48.063  17.959 -13.254  0.00  0.00     0.030 H 
ATOM     51  H32 MOL d          46.343  18.398 -12.981  0.00  0.00     0.030 H 
ENDBRANCH  46  48
BRANCH  46  52
ATOM     52  C   MOL d          47.217  15.348 -11.820  0.00  0.00     0.196 C 
ATOM     53  O   MOL d          48.021  14.692 -11.126  0.00  0.00    -0.646 OA
ATOM     54  OXT MOL d          46.468  14.615 -12.563  0.00  0.00    -0.646 OA
ENDBRANCH  46  52
ENDBRANCH  44  46
ENDBRANCH  27  42
ENDBRANCH  25  27
ENDBRANCH  22  25
ENDBRANCH   1  22
BRANCH   1  55
ATOM     55  CB  MOL d          50.948  14.478  -6.115  0.00  0.00    -0.011 C 
ATOM     56  H10 MOL d          50.672  13.734  -6.877  0.00  0.00     0.044 H 
ATOM     57  H11 MOL d          50.142  14.557  -5.372  0.00  0.00     0.044 H 
BRANCH  55  58
ATOM     58  CG  MOL d          52.248  14.088  -5.444  0.00  0.00    -0.056 A 
ATOM     59  CD1 MOL d          52.676  14.900  -4.386  0.00  0.00    -0.077 A 
ATOM     60  CE1 MOL d          53.857  14.600  -3.694  0.00  0.00    -0.082 A 
ATOM     61  H12 MOL d          52.091  15.766  -4.100  0.00  0.00     0.084 H 
ATOM     62  CZ  MOL d          54.582  13.478  -4.079  0.00  0.00    -0.083 A 
ATOM     63  H14 MOL d          54.197  15.228  -2.879  0.00  0.00     0.083 H 
ATOM     64  CE2 MOL d          54.123  12.643  -5.139  0.00  0.00    -0.082 A 
ATOM     65  H16 MOL d          55.505  13.235  -3.566  0.00  0.00     0.083 H 
ATOM     66  CD2 MOL d          52.933  12.956  -5.811  0.00  0.00    -0.077 A 
ATOM     67  H15 MOL d          54.694  11.768  -5.426  0.00  0.00     0.083 H 
ATOM     68  H13 MOL d          52.562  12.318  -6.605  0.00  0.00     0.084 H 
ENDBRANCH  55  58
ENDBRANCH   1  55
TORSDOF 17
ENDMDL
MODEL 7
REMARK VINA RESULT:      -6.0      3.246      5.909
REMARK  17 active torsions:
REMARK  status: ('A' for Active; 'I' for Inactive)
REMARK    1  A    between atoms: C_1  and  OA_3 
REMARK       I    between atoms: N_11  and  C_1 
REMARK    2  A    between atoms: OA_3  and  CB_4 
REMARK    3  A    between atoms: CB_4  and  CG_5 
REMARK    4  A    between atoms: CA_12  and  N_11 
REMARK    5  A    between atoms: P_13  and  CA_12 
REMARK    6  A    between atoms: CA_12  and  CB_16 
REMARK    7  A    between atoms: P_13  and  N_23 
REMARK    8  A    between atoms: CB_16  and  CG_17 
REMARK    9  A    between atoms: N_23  and  CA_24 
REMARK   10  A    between atoms: CA_24  and  CB_27 
REMARK   11  A    between atoms: CA_24  and  C_25 
REMARK       I    between atoms: C_25  and  N_31 
REMARK   12  A    between atoms: CB_27  and  CG_28 
REMARK   13  A    between atoms: CG_28  and  CD1_29 
REMARK   14  A    between atoms: CG_28  and  CD2_30 
REMARK   15  A    between atoms: N_31  and  CA_32 
REMARK   16  A    between atoms: CA_32  and  CB_35 
REMARK   17  A    between atoms: CA_32  and  C_33 
ROOT
ATOM      1  CA  MOL d          48.352  16.691 -11.441  0.00  0.00     0.112 C 
ATOM      2  H9  MOL d          47.297  16.379 -11.401  0.00  0.00     0.092 H 
ENDROOT
BRANCH   1   3
ATOM      3  N   MOL d          48.561  17.906 -12.277  0.00  0.00    -0.321 N 
ATOM      4  C   MOL d          47.624  18.861 -12.372  0.00  0.00     0.361 C 
ATOM      5  O   MOL d          46.456  18.824 -11.854  0.00  0.00    -0.238 OA
ATOM      6  H8  MOL d          49.419  18.011 -12.779  0.00  0.00     0.165 HD
BRANCH   4   7
ATOM      7  OA  MOL d          48.172  19.908 -13.082  0.00  0.00    -0.299 OA
BRANCH   7   8
ATOM      8  CB  MOL d          49.369  19.726 -13.857  0.00  0.00     0.054 C 
ATOM      9  H1  MOL d          49.168  19.819 -14.934  0.00  0.00     0.082 H 
ATOM     10  H2  MOL d          49.834  18.750 -13.653  0.00  0.00     0.082 H 
BRANCH   8  11
ATOM     11  CG  MOL d          50.218  20.844 -13.365  0.00  0.00    -0.034 A 
ATOM     12  CD1 MOL d          50.651  21.116 -12.063  0.00  0.00    -0.075 A 
ATOM     13  CE1 MOL d          51.509  22.196 -11.727  0.00  0.00    -0.082 A 
ATOM     14  H3  MOL d          50.314  20.463 -11.265  0.00  0.00     0.084 H 
ATOM     15  CZ  MOL d          52.008  23.025 -12.639  0.00  0.00    -0.083 A 
ATOM     16  H5  MOL d          51.768  22.351 -10.686  0.00  0.00     0.083 H 
ATOM     17  CE2 MOL d          51.537  22.711 -13.850  0.00  0.00    -0.082 A 
ATOM     18  H7  MOL d          52.695  23.836 -12.431  0.00  0.00     0.083 H 
ATOM     19  CD2 MOL d          50.693  21.676 -14.303  0.00  0.00    -0.075 A 
ATOM     20  H6  MOL d          51.867  23.381 -14.635  0.00  0.00     0.083 H 
ATOM     21  H4  MOL d          50.442  21.560 -15.352  0.00  0.00     0.084 H 
ENDBRANCH   8  11
ENDBRANCH   7   8
ENDBRANCH   4   7
ENDBRANCH   1   3
BRANCH   1  22
ATOM     22  P   MOL d          48.928  17.069  -9.940  0.00  0.00     0.229 P 
ATOM     23  OP1 MOL d          50.502  17.020  -9.888  0.00  0.00    -0.650 OA
ATOM     24  OP2 MOL d          48.350  18.441  -9.394  0.00  0.00    -0.650 OA
BRANCH  22  25
ATOM     25  N   MOL d          48.117  15.705  -8.896  0.00  0.00    -0.334 N 
ATOM     26  H17 MOL d          47.252  15.275  -9.155  0.00  0.00     0.164 HD
BRANCH  25  27
ATOM     27  CA  MOL d          48.853  15.328  -7.682  0.00  0.00     0.091 C 
ATOM     28  H18 MOL d          48.178  14.690  -7.093  0.00  0.00     0.087 H 
BRANCH  27  29
ATOM     29  CB  MOL d          50.126  14.528  -7.988  0.00  0.00    -0.035 C 
ATOM     30  H19 MOL d          50.835  14.670  -7.159  0.00  0.00     0.037 H 
ATOM     31  H20 MOL d          50.567  14.916  -8.918  0.00  0.00     0.037 H 
BRANCH  29  32
ATOM     32  CG  MOL d          49.879  13.047  -8.157  0.00  0.00    -0.059 C 
ATOM     33  H21 MOL d          50.673  12.445  -7.691  0.00  0.00     0.038 H 
BRANCH  32  34
ATOM     34  CD1 MOL d          48.525  12.654  -7.538  0.00  0.00    -0.073 C 
ATOM     35  H22 MOL d          47.711  13.111  -8.119  0.00  0.00     0.028 H 
ATOM     36  H23 MOL d          48.480  13.011  -6.499  0.00  0.00     0.028 H 
ATOM     37  H24 MOL d          48.418  11.560  -7.555  0.00  0.00     0.028 H 
ENDBRANCH  32  34
BRANCH  32  38
ATOM     38  CD2 MOL d          49.937  12.942  -9.666  0.00  0.00    -0.073 C 
ATOM     39  H25 MOL d          50.976  13.072 -10.003  0.00  0.00     0.028 H 
ATOM     40  H26 MOL d          49.306  13.725 -10.112  0.00  0.00     0.028 H 
ATOM     41  H27 MOL d          49.570  11.953  -9.979  0.00  0.00     0.028 H 
ENDBRANCH  32  38
ENDBRANCH  29  32
ENDBRANCH  27  29
BRANCH  27  42
ATOM     42  C   MOL d          49.290  16.499  -6.787  0.00  0.00     0.241 C 
ATOM     43  O   MOL d          48.462  17.244  -6.250  0.00  0.00    -0.271 OA
ATOM     44  N   MOL d          50.587  16.606  -6.574  0.00  0.00    -0.345 N 
ATOM     45  H28 MOL d          51.184  15.951  -7.037  0.00  0.00     0.163 HD
BRANCH  44  46
ATOM     46  CA  MOL d          51.229  17.614  -5.706  0.00  0.00     0.093 C 
ATOM     47  H29 MOL d          50.499  17.969  -4.964  0.00  0.00     0.089 H 
BRANCH  46  48
ATOM     48  CB  MOL d          52.391  16.956  -4.986  0.00  0.00    -0.048 C 
ATOM     49  H30 MOL d          53.142  17.717  -4.730  0.00  0.00     0.030 H 
ATOM     50  H31 MOL d          52.846  16.197  -5.640  0.00  0.00     0.030 H 
ATOM     51  H32 MOL d          52.027  16.475  -4.066  0.00  0.00     0.030 H 
ENDBRANCH  46  48
BRANCH  46  52
ATOM     52  C   MOL d          51.718  18.825  -6.541  0.00  0.00     0.196 C 
ATOM     53  O   MOL d          52.426  19.711  -6.020  0.00  0.00    -0.646 OA
ATOM     54  OXT MOL d          51.549  18.985  -7.804  0.00  0.00    -0.646 OA
ENDBRANCH  46  52
ENDBRANCH  44  46
ENDBRANCH  27  42
ENDBRANCH  25  27
ENDBRANCH  22  25
ENDBRANCH   1  22
BRANCH   1  55
ATOM     55  CB  MOL d          49.213  15.654 -12.081  0.00  0.00    -0.011 C 
ATOM     56  H10 MOL d          49.804  15.125 -11.318  0.00  0.00     0.044 H 
ATOM     57  H11 MOL d          49.890  16.118 -12.812  0.00  0.00     0.044 H 
BRANCH  55  58
ATOM     58  CG  MOL d          48.267  14.694 -12.773  0.00  0.00    -0.056 A 
ATOM     59  CD1 MOL d          47.362  14.006 -11.956  0.00  0.00    -0.077 A 
ATOM     60  CE1 MOL d          46.437  13.115 -12.515  0.00  0.00    -0.082 A 
ATOM     61  H12 MOL d          47.378  14.162 -10.883  0.00  0.00     0.084 H 
ATOM     62  CZ  MOL d          46.436  12.941 -13.893  0.00  0.00    -0.083 A 
ATOM     63  H14 MOL d          45.739  12.574 -11.887  0.00  0.00     0.083 H 
ATOM     64  CE2 MOL d          47.343  13.667 -14.719  0.00  0.00    -0.082 A 
ATOM     65  H16 MOL d          45.738  12.246 -14.346  0.00  0.00     0.083 H 
ATOM     66  CD2 MOL d          48.254  14.562 -14.139  0.00  0.00    -0.077 A 
ATOM     67  H15 MOL d          47.329  13.527 -15.794  0.00  0.00     0.083 H 
ATOM     68  H13 MOL d          48.935  15.137 -14.758  0.00  0.00     0.084 H 
ENDBRANCH  55  58
ENDBRANCH   1  55
TORSDOF 17
ENDMDL
MODEL 8
REMARK VINA RESULT:      -6.0      1.973      8.444
REMARK  17 active torsions:
REMARK  status: ('A' for Active; 'I' for Inactive)
REMARK    1  A    between atoms: C_1  and  OA_3 
REMARK       I    between atoms: N_11  and  C_1 
REMARK    2  A    between atoms: OA_3  and  CB_4 
REMARK    3  A    between atoms: CB_4  and  CG_5 
REMARK    4  A    between atoms: CA_12  and  N_11 
REMARK    5  A    between atoms: P_13  and  CA_12 
REMARK    6  A    between atoms: CA_12  and  CB_16 
REMARK    7  A    between atoms: P_13  and  N_23 
REMARK    8  A    between atoms: CB_16  and  CG_17 
REMARK    9  A    between atoms: N_23  and  CA_24 
REMARK   10  A    between atoms: CA_24  and  CB_27 
REMARK   11  A    between atoms: CA_24  and  C_25 
REMARK       I    between atoms: C_25  and  N_31 
REMARK   12  A    between atoms: CB_27  and  CG_28 
REMARK   13  A    between atoms: CG_28  and  CD1_29 
REMARK   14  A    between atoms: CG_28  and  CD2_30 
REMARK   15  A    between atoms: N_31  and  CA_32 
REMARK   16  A    between atoms: CA_32  and  CB_35 
REMARK   17  A    between atoms: CA_32  and  C_33 
ROOT
ATOM      1  CA  MOL d          52.042  17.616  -4.809  0.00  0.00     0.112 C 
ATOM      2  H9  MOL d          51.357  17.914  -4.001  0.00  0.00     0.092 H 
ENDROOT
BRANCH   1   3
ATOM      3  N   MOL d          51.574  16.406  -5.541  0.00  0.00    -0.321 N 
ATOM      4  C   MOL d          52.045  15.184  -5.247  0.00  0.00     0.361 C 
ATOM      5  O   MOL d          52.967  14.916  -4.403  0.00  0.00    -0.238 OA
ATOM      6  H8  MOL d          50.895  16.506  -6.268  0.00  0.00     0.165 HD
BRANCH   4   7
ATOM      7  OA  MOL d          51.315  14.272  -5.980  0.00  0.00    -0.299 OA
BRANCH   7   8
ATOM      8  CB  MOL d          51.967  13.347  -6.865  0.00  0.00     0.054 C 
ATOM      9  H1  MOL d          52.282  12.437  -6.333  0.00  0.00     0.082 H 
ATOM     10  H2  MOL d          52.840  13.807  -7.353  0.00  0.00     0.082 H 
BRANCH   8  11
ATOM     11  CG  MOL d          50.888  13.057  -7.846  0.00  0.00    -0.034 A 
ATOM     12  CD1 MOL d          49.521  12.861  -7.621  0.00  0.00    -0.075 A 
ATOM     13  CE1 MOL d          48.576  12.640  -8.657  0.00  0.00    -0.082 A 
ATOM     14  H3  MOL d          49.163  12.880  -6.597  0.00  0.00     0.084 H 
ATOM     15  CZ  MOL d          48.909  12.639  -9.943  0.00  0.00    -0.083 A 
ATOM     16  H5  MOL d          47.540  12.463  -8.387  0.00  0.00     0.083 H 
ATOM     17  CE2 MOL d          50.228  12.817 -10.074  0.00  0.00    -0.082 A 
ATOM     18  H7  MOL d          48.215  12.513 -10.765  0.00  0.00     0.083 H 
ATOM     19  CD2 MOL d          51.255  13.044  -9.135  0.00  0.00    -0.075 A 
ATOM     20  H6  MOL d          50.575  12.777 -11.100  0.00  0.00     0.083 H 
ATOM     21  H4  MOL d          52.284  13.201  -9.439  0.00  0.00     0.084 H 
ENDBRANCH   8  11
ENDBRANCH   7   8
ENDBRANCH   4   7
ENDBRANCH   1   3
BRANCH   1  22
ATOM     22  P   MOL d          52.189  18.805  -5.946  0.00  0.00     0.229 P 
ATOM     23  OP1 MOL d          52.767  20.136  -5.330  0.00  0.00    -0.650 OA
ATOM     24  OP2 MOL d          53.002  18.330  -7.222  0.00  0.00    -0.650 OA
BRANCH  22  25
ATOM     25  N   MOL d          50.384  18.982  -6.509  0.00  0.00    -0.334 N 
ATOM     26  H17 MOL d          49.635  19.137  -5.866  0.00  0.00     0.164 HD
BRANCH  25  27
ATOM     27  CA  MOL d          50.169  18.875  -7.959  0.00  0.00     0.091 C 
ATOM     28  H18 MOL d          51.033  18.327  -8.363  0.00  0.00     0.087 H 
BRANCH  27  29
ATOM     29  CB  MOL d          48.897  18.094  -8.311  0.00  0.00    -0.035 C 
ATOM     30  H19 MOL d          48.634  18.309  -9.357  0.00  0.00     0.037 H 
ATOM     31  H20 MOL d          48.085  18.435  -7.652  0.00  0.00     0.037 H 
BRANCH  29  32
ATOM     32  CG  MOL d          49.045  16.599  -8.153  0.00  0.00    -0.059 C 
ATOM     33  H21 MOL d          49.948  16.335  -7.583  0.00  0.00     0.038 H 
BRANCH  32  34
ATOM     34  CD1 MOL d          47.814  16.010  -7.439  0.00  0.00    -0.073 C 
ATOM     35  H22 MOL d          47.178  16.829  -7.071  0.00  0.00     0.028 H 
ATOM     36  H23 MOL d          48.142  15.392  -6.591  0.00  0.00     0.028 H 
ATOM     37  H24 MOL d          47.242  15.390  -8.145  0.00  0.00     0.028 H 
ENDBRANCH  32  34
BRANCH  32  38
ATOM     38  CD2 MOL d          49.184  16.194  -9.605  0.00  0.00    -0.073 C 
ATOM     39  H25 MOL d          48.464  16.761 -10.213  0.00  0.00     0.028 H 
ATOM     40  H26 MOL d          48.983  15.118  -9.707  0.00  0.00     0.028 H 
ATOM     41  H27 MOL d          50.207  16.410  -9.948  0.00  0.00     0.028 H 
ENDBRANCH  32  38
ENDBRANCH  29  32
ENDBRANCH  27  29
BRANCH  27  42
ATOM     42  C   MOL d          50.071  20.213  -8.709  0.00  0.00     0.241 C 
ATOM     43  O   MOL d          50.094  21.293  -8.107  0.00  0.00    -0.271 OA
ATOM     44  N   MOL d          50.037  20.132 -10.025  0.00  0.00    -0.345 N 
ATOM     45  H28 MOL d          50.037  19.218 -10.429  0.00  0.00     0.163 HD
BRANCH  44  46
ATOM     46  CA  MOL d          50.001  21.283 -10.950  0.00  0.00     0.093 C 
ATOM     47  H29 MOL d          49.492  22.125 -10.459  0.00  0.00     0.089 H 
BRANCH  46  48
ATOM     48  CB  MOL d          51.429  21.683 -11.273  0.00  0.00    -0.048 C 
ATOM     49  H30 MOL d          51.525  22.777 -11.212  0.00  0.00     0.030 H 
ATOM     50  H31 MOL d          51.683  21.348 -12.289  0.00  0.00     0.030 H 
ATOM     51  H32 MOL d          52.114  21.214 -10.551  0.00  0.00     0.030 H 
ENDBRANCH  46  48
BRANCH  46  52
ATOM     52  C   MOL d          49.228  20.922 -12.243  0.00  0.00     0.196 C 
ATOM     53  O   MOL d          47.979  20.915 -12.256  0.00  0.00    -0.646 OA
ATOM     54  OXT MOL d          49.750  20.709 -13.397  0.00  0.00    -0.646 OA
ENDBRANCH  46  52
ENDBRANCH  44  46
ENDBRANCH  27  42
ENDBRANCH  25  27
ENDBRANCH  22  25
ENDBRANCH   1  22
BRANCH   1  55
ATOM     55  CB  MOL d          53.384  17.231  -4.285  0.00  0.00    -0.011 C 
ATOM     56  H10 MOL d          54.177  17.644  -4.926  0.00  0.00     0.044 H 
ATOM     57  H11 MOL d          53.479  16.136  -4.245  0.00  0.00     0.044 H 
BRANCH  55  58
ATOM     58  CG  MOL d          53.473  17.819  -2.892  0.00  0.00    -0.056 A 
ATOM     59  CD1 MOL d          54.294  18.944  -2.737  0.00  0.00    -0.077 A 
ATOM     60  CE1 MOL d          54.418  19.565  -1.487  0.00  0.00    -0.082 A 
ATOM     61  H12 MOL d          54.836  19.336  -3.589  0.00  0.00     0.084 H 
ATOM     62  CZ  MOL d          53.703  19.043  -0.416  0.00  0.00    -0.083 A 
ATOM     63  H14 MOL d          55.056  20.431  -1.360  0.00  0.00     0.083 H 
ATOM     64  CE2 MOL d          52.851  17.914  -0.590  0.00  0.00    -0.082 A 
ATOM     65  H16 MOL d          53.795  19.499   0.563  0.00  0.00     0.083 H 
ATOM     66  CD2 MOL d          52.733  17.314  -1.852  0.00  0.00    -0.077 A 
ATOM     67  H15 MOL d          52.294  17.519   0.252  0.00  0.00     0.083 H 
ATOM     68  H13 MOL d          52.071  16.469  -2.003  0.00  0.00     0.084 H 
ENDBRANCH  55  58
ENDBRANCH   1  55
TORSDOF 17
ENDMDL
