MODEL 1
REMARK VINA RESULT:      -7.1      0.000      0.000
REMARK  6 active torsions:
REMARK  status: ('A' for Active; 'I' for Inactive)
REMARK    1  A    between atoms: CAA_1  and  CAH_2 
REMARK    2  A    between atoms: CAH_2  and  CAB_3 
REMARK    3  A    between atoms: CAH_2  and  CAL_4 
REMARK    4  A    between atoms: CAI_7  and  OAC_8 
REMARK    5  A    between atoms: CAJ_9  and  OAD_10 
REMARK    6  A    between atoms: CAK_11  and  OAE_12 
ROOT
ATOM      1  CAL ZXD d          -0.018  28.360  25.539  0.00  0.00     0.131 C 
ATOM      2  NAG ZXD d          -0.182  27.213  26.449  0.00  0.00    -0.066 N 
ATOM      3  CAF ZXD d          -1.602  26.841  26.569  0.00  0.00     0.108 C 
ATOM      4  CAI ZXD d          -2.118  26.413  25.189  0.00  0.00     0.086 C 
ATOM      5  CAJ ZXD d          -1.994  27.591  24.219  0.00  0.00     0.088 C 
ATOM      6  CAK ZXD d          -0.523  28.002  24.137  0.00  0.00     0.090 C 
ATOM      7  H8  ZXD d          -0.637  29.187  25.917  0.00  0.00     0.089 H 
ATOM      8  H9  ZXD d           0.174  27.460  27.359  0.00  0.00     0.277 HD
ATOM      9  H10 ZXD d           0.336  26.427  26.088  0.00  0.00     0.277 HD
ATOM     10  H11 ZXD d          -2.181  27.704  26.929  0.00  0.00     0.079 H 
ATOM     11  H12 ZXD d          -1.707  26.007  27.278  0.00  0.00     0.079 H 
ATOM     12  H13 ZXD d          -1.507  25.576  24.822  0.00  0.00     0.089 H 
ATOM     13  H15 ZXD d          -2.590  28.437  24.591  0.00  0.00     0.091 H 
ATOM     14  H17 ZXD d          -0.416  28.871  23.472  0.00  0.00     0.090 H 
ENDROOT
BRANCH   1  15
ATOM     15  CAH ZXD d           1.439  28.837  25.532  0.00  0.00    -0.031 C 
ATOM     16  H4  ZXD d           1.581  29.526  24.687  0.00  0.00     0.042 H 
BRANCH  15  17
ATOM     17  CAA ZXD d           1.750  29.572  26.840  0.00  0.00    -0.071 C 
ATOM     18  H1  ZXD d           0.910  30.235  27.096  0.00  0.00     0.028 H 
ATOM     19  H2  ZXD d           2.664  30.171  26.715  0.00  0.00     0.028 H 
ATOM     20  H3  ZXD d           1.898  28.840  27.646  0.00  0.00     0.028 H 
ENDBRANCH  15  17
BRANCH  15  21
ATOM     21  CAB ZXD d           2.407  27.660  25.381  0.00  0.00    -0.071 C 
ATOM     22  H5  ZXD d           3.141  27.887  24.595  0.00  0.00     0.028 H 
ATOM     23  H6  ZXD d           1.844  26.755  25.107  0.00  0.00     0.028 H 
ATOM     24  H7  ZXD d           2.931  27.491  26.334  0.00  0.00     0.028 H 
ENDBRANCH  15  21
ENDBRANCH   1  15
BRANCH   6  25
ATOM     25  OAE ZXD d           0.238  26.906  23.626  0.00  0.00    -0.391 OA
ATOM     26  H18 ZXD d           0.072  26.133  24.153  0.00  0.00     0.210 HD
ENDBRANCH   6  25
BRANCH   5  27
ATOM     27  OAD ZXD d          -2.473  27.211  22.928  0.00  0.00    -0.390 OA
ATOM     28  H16 ZXD d          -3.358  27.536  22.812  0.00  0.00     0.210 HD
ENDBRANCH   5  27
BRANCH   4  29
ATOM     29  OAC ZXD d          -3.482  25.993  25.267  0.00  0.00    -0.391 OA
ATOM     30  H14 ZXD d          -3.787  25.750  24.400  0.00  0.00     0.210 HD
ENDBRANCH   4  29
TORSDOF 6
ENDMDL
MODEL 2
REMARK VINA RESULT:      -5.8      2.455      4.553
REMARK  6 active torsions:
REMARK  status: ('A' for Active; 'I' for Inactive)
REMARK    1  A    between atoms: CAA_1  and  CAH_2 
REMARK    2  A    between atoms: CAH_2  and  CAB_3 
REMARK    3  A    between atoms: CAH_2  and  CAL_4 
REMARK    4  A    between atoms: CAI_7  and  OAC_8 
REMARK    5  A    between atoms: CAJ_9  and  OAD_10 
REMARK    6  A    between atoms: CAK_11  and  OAE_12 
ROOT
ATOM      1  CAL ZXD d          -1.738  28.213  26.402  0.00  0.00     0.131 C 
ATOM      2  NAG ZXD d          -1.392  27.745  25.050  0.00  0.00    -0.066 N 
ATOM      3  CAF ZXD d          -0.275  28.529  24.496  0.00  0.00     0.108 C 
ATOM      4  CAI ZXD d           0.959  28.325  25.386  0.00  0.00     0.086 C 
ATOM      5  CAJ ZXD d           0.649  28.831  26.797  0.00  0.00     0.088 C 
ATOM      6  CAK ZXD d          -0.542  28.044  27.345  0.00  0.00     0.090 C 
ATOM      7  H8  ZXD d          -1.969  29.287  26.343  0.00  0.00     0.089 H 
ATOM      8  H9  ZXD d          -2.195  27.844  24.449  0.00  0.00     0.277 HD
ATOM      9  H10 ZXD d          -1.124  26.774  25.094  0.00  0.00     0.277 HD
ATOM     10  H11 ZXD d          -0.545  29.595  24.477  0.00  0.00     0.079 H 
ATOM     11  H12 ZXD d          -0.054  28.188  23.474  0.00  0.00     0.079 H 
ATOM     12  H13 ZXD d           1.196  27.252  25.429  0.00  0.00     0.089 H 
ATOM     13  H15 ZXD d           0.395  29.900  26.756  0.00  0.00     0.091 H 
ATOM     14  H17 ZXD d          -0.805  28.416  28.347  0.00  0.00     0.090 H 
ENDROOT
BRANCH   1  15
ATOM     15  CAH ZXD d          -2.993  27.496  26.915  0.00  0.00    -0.031 C 
ATOM     16  H4  ZXD d          -2.684  26.651  27.547  0.00  0.00     0.042 H 
BRANCH  15  17
ATOM     17  CAA ZXD d          -3.840  28.465  27.747  0.00  0.00    -0.071 C 
ATOM     18  H1  ZXD d          -3.633  28.308  28.815  0.00  0.00     0.028 H 
ATOM     19  H2  ZXD d          -4.906  28.283  27.548  0.00  0.00     0.028 H 
ATOM     20  H3  ZXD d          -3.588  29.500  27.473  0.00  0.00     0.028 H 
ENDBRANCH  15  17
BRANCH  15  21
ATOM     21  CAB ZXD d          -3.840  26.965  25.755  0.00  0.00    -0.071 C 
ATOM     22  H5  ZXD d          -3.629  25.896  25.606  0.00  0.00     0.028 H 
ATOM     23  H6  ZXD d          -3.593  27.519  24.837  0.00  0.00     0.028 H 
ATOM     24  H7  ZXD d          -4.907  27.098  25.988  0.00  0.00     0.028 H 
ENDBRANCH  15  21
ENDBRANCH   1  15
BRANCH   6  25
ATOM     25  OAE ZXD d          -0.191  26.661  27.421  0.00  0.00    -0.391 OA
ATOM     26  H18 ZXD d           0.541  26.489  26.840  0.00  0.00     0.210 HD
ENDBRANCH   6  25
BRANCH   5  27
ATOM     27  OAD ZXD d           1.789  28.651  27.639  0.00  0.00    -0.390 OA
ATOM     28  H16 ZXD d           2.542  28.424  27.107  0.00  0.00     0.210 HD
ENDBRANCH   5  27
BRANCH   4  29
ATOM     29  OAC ZXD d           2.086  29.029  24.857  0.00  0.00    -0.391 OA
ATOM     30  H14 ZXD d           2.291  29.765  25.422  0.00  0.00     0.210 HD
ENDBRANCH   4  29
TORSDOF 6
ENDMDL
MODEL 3
REMARK VINA RESULT:      -5.6      1.713      4.112
REMARK  6 active torsions:
REMARK  status: ('A' for Active; 'I' for Inactive)
REMARK    1  A    between atoms: CAA_1  and  CAH_2 
REMARK    2  A    between atoms: CAH_2  and  CAB_3 
REMARK    3  A    between atoms: CAH_2  and  CAL_4 
REMARK    4  A    between atoms: CAI_7  and  OAC_8 
REMARK    5  A    between atoms: CAJ_9  and  OAD_10 
REMARK    6  A    between atoms: CAK_11  and  OAE_12 
ROOT
ATOM      1  CAL ZXD d          -1.854  27.665  26.211  0.00  0.00     0.131 C 
ATOM      2  NAG ZXD d          -1.383  29.039  26.456  0.00  0.00    -0.066 N 
ATOM      3  CAF ZXD d           0.087  29.104  26.406  0.00  0.00     0.108 C 
ATOM      4  CAI ZXD d           0.550  28.700  25.000  0.00  0.00     0.086 C 
ATOM      5  CAJ ZXD d           0.107  27.262  24.718  0.00  0.00     0.088 C 
ATOM      6  CAK ZXD d          -1.417  27.194  24.820  0.00  0.00     0.090 C 
ATOM      7  H8  ZXD d          -1.380  27.005  26.952  0.00  0.00     0.089 H 
ATOM      8  H9  ZXD d          -1.696  29.339  27.365  0.00  0.00     0.277 HD
ATOM      9  H10 ZXD d          -1.765  29.650  25.751  0.00  0.00     0.277 HD
ATOM     10  H11 ZXD d           0.514  28.413  27.148  0.00  0.00     0.079 H 
ATOM     11  H12 ZXD d           0.420  30.129  26.625  0.00  0.00     0.079 H 
ATOM     12  H13 ZXD d           0.087  29.373  24.263  0.00  0.00     0.089 H 
ATOM     13  H15 ZXD d           0.555  26.588  25.462  0.00  0.00     0.091 H 
ATOM     14  H17 ZXD d          -1.755  26.160  24.656  0.00  0.00     0.090 H 
ENDROOT
BRANCH   1  15
ATOM     15  CAH ZXD d          -3.371  27.572  26.411  0.00  0.00    -0.031 C 
ATOM     16  H4  ZXD d          -3.864  28.239  25.688  0.00  0.00     0.042 H 
BRANCH  15  17
ATOM     17  CAA ZXD d          -3.839  26.133  26.170  0.00  0.00    -0.071 C 
ATOM     18  H1  ZXD d          -4.902  26.044  26.438  0.00  0.00     0.028 H 
ATOM     19  H2  ZXD d          -3.245  25.446  26.791  0.00  0.00     0.028 H 
ATOM     20  H3  ZXD d          -3.705  25.877  25.109  0.00  0.00     0.028 H 
ENDBRANCH  15  17
BRANCH  15  21
ATOM     21  CAB ZXD d          -3.770  27.995  27.828  0.00  0.00    -0.071 C 
ATOM     22  H5  ZXD d          -4.240  27.146  28.345  0.00  0.00     0.028 H 
ATOM     23  H6  ZXD d          -4.483  28.831  27.774  0.00  0.00     0.028 H 
ATOM     24  H7  ZXD d          -2.874  28.311  28.383  0.00  0.00     0.028 H 
ENDBRANCH  15  21
ENDBRANCH   1  15
BRANCH   6  25
ATOM     25  OAE ZXD d          -1.988  28.051  23.830  0.00  0.00    -0.391 OA
ATOM     26  H18 ZXD d          -2.630  27.566  23.324  0.00  0.00     0.210 HD
ENDBRANCH   6  25
BRANCH   5  27
ATOM     27  OAD ZXD d           0.533  26.869  23.413  0.00  0.00    -0.390 OA
ATOM     28  H16 ZXD d          -0.226  26.631  22.892  0.00  0.00     0.210 HD
ENDBRANCH   5  27
BRANCH   4  29
ATOM     29  OAC ZXD d           1.972  28.798  24.888  0.00  0.00    -0.391 OA
ATOM     30  H14 ZXD d           2.349  27.925  24.878  0.00  0.00     0.210 HD
ENDBRANCH   4  29
TORSDOF 6
ENDMDL
MODEL 4
REMARK VINA RESULT:      -5.6      1.723      2.491
REMARK  6 active torsions:
REMARK  status: ('A' for Active; 'I' for Inactive)
REMARK    1  A    between atoms: CAA_1  and  CAH_2 
REMARK    2  A    between atoms: CAH_2  and  CAB_3 
REMARK    3  A    between atoms: CAH_2  and  CAL_4 
REMARK    4  A    between atoms: CAI_7  and  OAC_8 
REMARK    5  A    between atoms: CAJ_9  and  OAD_10 
REMARK    6  A    between atoms: CAK_11  and  OAE_12 
ROOT
ATOM      1  CAL ZXD d           0.192  28.030  25.911  0.00  0.00     0.131 C 
ATOM      2  NAG ZXD d          -0.485  28.265  24.624  0.00  0.00    -0.066 N 
ATOM      3  CAF ZXD d          -1.413  27.165  24.314  0.00  0.00     0.108 C 
ATOM      4  CAI ZXD d          -2.494  27.110  25.402  0.00  0.00     0.086 C 
ATOM      5  CAJ ZXD d          -1.833  26.835  26.755  0.00  0.00     0.088 C 
ATOM      6  CAK ZXD d          -0.835  27.957  27.046  0.00  0.00     0.090 C 
ATOM      7  H8  ZXD d           0.700  27.056  25.856  0.00  0.00     0.089 H 
ATOM      8  H9  ZXD d           0.206  28.330  23.894  0.00  0.00     0.277 HD
ATOM      9  H10 ZXD d          -1.002  29.129  24.675  0.00  0.00     0.277 HD
ATOM     10  H11 ZXD d          -0.864  26.212  24.292  0.00  0.00     0.079 H 
ATOM     11  H12 ZXD d          -1.883  27.341  23.335  0.00  0.00     0.079 H 
ATOM     12  H13 ZXD d          -3.011  28.081  25.442  0.00  0.00     0.089 H 
ATOM     13  H15 ZXD d          -1.300  25.874  26.714  0.00  0.00     0.091 H 
ATOM     14  H17 ZXD d          -0.321  27.760  27.998  0.00  0.00     0.090 H 
ENDROOT
BRANCH   1  15
ATOM     15  CAH ZXD d           1.263  29.099  26.158  0.00  0.00    -0.031 C 
ATOM     16  H4  ZXD d           0.780  30.087  26.171  0.00  0.00     0.042 H 
BRANCH  15  17
ATOM     17  CAA ZXD d           1.939  28.851  27.511  0.00  0.00    -0.071 C 
ATOM     18  H1  ZXD d           1.805  29.734  28.154  0.00  0.00     0.028 H 
ATOM     19  H2  ZXD d           3.013  28.669  27.357  0.00  0.00     0.028 H 
ATOM     20  H3  ZXD d           1.485  27.974  27.993  0.00  0.00     0.028 H 
ENDBRANCH  15  17
BRANCH  15  21
ATOM     21  CAB ZXD d           2.329  29.080  25.059  0.00  0.00    -0.071 C 
ATOM     22  H5  ZXD d           2.264  28.135  24.501  0.00  0.00     0.028 H 
ATOM     23  H6  ZXD d           3.326  29.169  25.514  0.00  0.00     0.028 H 
ATOM     24  H7  ZXD d           2.162  29.923  24.372  0.00  0.00     0.028 H 
ENDBRANCH  15  21
ENDBRANCH   1  15
BRANCH   6  25
ATOM     25  OAE ZXD d          -1.541  29.197  27.126  0.00  0.00    -0.391 OA
ATOM     26  H18 ZXD d          -0.981  29.899  26.816  0.00  0.00     0.210 HD
ENDBRANCH   6  25
BRANCH   5  27
ATOM     27  OAD ZXD d          -2.825  26.779  27.780  0.00  0.00    -0.390 OA
ATOM     28  H16 ZXD d          -2.859  25.899  28.139  0.00  0.00     0.210 HD
ENDBRANCH   5  27
BRANCH   4  29
ATOM     29  OAC ZXD d          -3.450  26.087  25.115  0.00  0.00    -0.391 OA
ATOM     30  H14 ZXD d          -3.481  25.472  25.838  0.00  0.00     0.210 HD
ENDBRANCH   4  29
TORSDOF 6
ENDMDL
MODEL 5
REMARK VINA RESULT:      -5.1      1.858      2.200
REMARK  6 active torsions:
REMARK  status: ('A' for Active; 'I' for Inactive)
REMARK    1  A    between atoms: CAA_1  and  CAH_2 
REMARK    2  A    between atoms: CAH_2  and  CAB_3 
REMARK    3  A    between atoms: CAH_2  and  CAL_4 
REMARK    4  A    between atoms: CAI_7  and  OAC_8 
REMARK    5  A    between atoms: CAJ_9  and  OAD_10 
REMARK    6  A    between atoms: CAK_11  and  OAE_12 
ROOT
ATOM      1  CAL ZXD d           0.128  28.880  25.982  0.00  0.00     0.131 C 
ATOM      2  NAG ZXD d          -0.480  29.542  27.148  0.00  0.00    -0.066 N 
ATOM      3  CAF ZXD d          -1.949  29.463  27.087  0.00  0.00     0.108 C 
ATOM      4  CAI ZXD d          -2.365  27.986  27.125  0.00  0.00     0.086 C 
ATOM      5  CAJ ZXD d          -1.777  27.267  25.908  0.00  0.00     0.088 C 
ATOM      6  CAK ZXD d          -0.254  27.397  25.954  0.00  0.00     0.090 C 
ATOM      7  H8  ZXD d          -0.279  29.348  25.073  0.00  0.00     0.089 H 
ATOM      8  H9  ZXD d          -0.202  30.511  27.161  0.00  0.00     0.277 HD
ATOM      9  H10 ZXD d          -0.160  29.090  27.990  0.00  0.00     0.277 HD
ATOM     10  H11 ZXD d          -2.306  29.923  26.154  0.00  0.00     0.079 H 
ATOM     11  H12 ZXD d          -2.385  29.992  27.947  0.00  0.00     0.079 H 
ATOM     12  H13 ZXD d          -1.970  27.526  28.043  0.00  0.00     0.089 H 
ATOM     13  H15 ZXD d          -2.157  27.735  24.987  0.00  0.00     0.091 H 
ATOM     14  H17 ZXD d           0.187  26.917  25.068  0.00  0.00     0.090 H 
ENDROOT
BRANCH   1  15
ATOM     15  CAH ZXD d           1.646  29.094  25.973  0.00  0.00    -0.031 C 
ATOM     16  H4  ZXD d           1.867  30.044  25.465  0.00  0.00     0.042 H 
BRANCH  15  17
ATOM     17  CAA ZXD d           2.169  29.160  27.412  0.00  0.00    -0.071 C 
ATOM     18  H1  ZXD d           3.032  29.840  27.458  0.00  0.00     0.028 H 
ATOM     19  H2  ZXD d           2.477  28.155  27.736  0.00  0.00     0.028 H 
ATOM     20  H3  ZXD d           1.373  29.531  28.074  0.00  0.00     0.028 H 
ENDBRANCH  15  17
BRANCH  15  21
ATOM     21  CAB ZXD d           2.361  27.958  25.235  0.00  0.00    -0.071 C 
ATOM     22  H5  ZXD d           3.449  28.108  25.297  0.00  0.00     0.028 H 
ATOM     23  H6  ZXD d           2.052  27.955  24.180  0.00  0.00     0.028 H 
ATOM     24  H7  ZXD d           2.097  26.996  25.698  0.00  0.00     0.028 H 
ENDBRANCH  15  21
ENDBRANCH   1  15
BRANCH   6  25
ATOM     25  OAE ZXD d           0.230  26.761  27.138  0.00  0.00    -0.391 OA
ATOM     26  H18 ZXD d           0.172  27.367  27.868  0.00  0.00     0.210 HD
ENDBRANCH   6  25
BRANCH   5  27
ATOM     27  OAD ZXD d          -2.157  25.891  25.926  0.00  0.00    -0.390 OA
ATOM     28  H16 ZXD d          -3.066  25.817  26.191  0.00  0.00     0.210 HD
ENDBRANCH   5  27
BRANCH   4  29
ATOM     29  OAC ZXD d          -3.789  27.861  27.119  0.00  0.00    -0.391 OA
ATOM     30  H14 ZXD d          -4.137  28.255  26.327  0.00  0.00     0.210 HD
ENDBRANCH   4  29
TORSDOF 6
ENDMDL
MODEL 6
REMARK VINA RESULT:      -4.5      1.999      4.280
REMARK  6 active torsions:
REMARK  status: ('A' for Active; 'I' for Inactive)
REMARK    1  A    between atoms: CAA_1  and  CAH_2 
REMARK    2  A    between atoms: CAH_2  and  CAB_3 
REMARK    3  A    between atoms: CAH_2  and  CAL_4 
REMARK    4  A    between atoms: CAI_7  and  OAC_8 
REMARK    5  A    between atoms: CAJ_9  and  OAD_10 
REMARK    6  A    between atoms: CAK_11  and  OAE_12 
ROOT
ATOM      1  CAL ZXD d          -0.979  27.810  25.674  0.00  0.00     0.131 C 
ATOM      2  NAG ZXD d          -0.884  29.107  26.365  0.00  0.00    -0.066 N 
ATOM      3  CAF ZXD d           0.377  29.205  27.120  0.00  0.00     0.108 C 
ATOM      4  CAI ZXD d           1.550  29.120  26.135  0.00  0.00     0.086 C 
ATOM      5  CAJ ZXD d           1.505  27.769  25.416  0.00  0.00     0.088 C 
ATOM      6  CAK ZXD d           0.172  27.656  24.674  0.00  0.00     0.090 C 
ATOM      7  H8  ZXD d          -0.878  27.014  26.426  0.00  0.00     0.089 H 
ATOM      8  H9  ZXD d          -1.659  29.200  27.003  0.00  0.00     0.277 HD
ATOM      9  H10 ZXD d          -0.919  29.849  25.684  0.00  0.00     0.277 HD
ATOM     10  H11 ZXD d           0.441  28.378  27.843  0.00  0.00     0.079 H 
ATOM     11  H12 ZXD d           0.414  30.164  27.657  0.00  0.00     0.079 H 
ATOM     12  H13 ZXD d           1.454  29.928  25.394  0.00  0.00     0.089 H 
ATOM     13  H15 ZXD d           1.583  26.958  26.154  0.00  0.00     0.091 H 
ATOM     14  H17 ZXD d           0.104  26.676  24.179  0.00  0.00     0.090 H 
ENDROOT
BRANCH   1  15
ATOM     15  CAH ZXD d          -2.353  27.653  25.012  0.00  0.00    -0.031 C 
ATOM     16  H4  ZXD d          -2.637  28.612  24.555  0.00  0.00     0.042 H 
BRANCH  15  17
ATOM     17  CAA ZXD d          -2.284  26.577  23.924  0.00  0.00    -0.071 C 
ATOM     18  H1  ZXD d          -1.367  26.713  23.332  0.00  0.00     0.028 H 
ATOM     19  H2  ZXD d          -3.162  26.664  23.266  0.00  0.00     0.028 H 
ATOM     20  H3  ZXD d          -2.275  25.582  24.392  0.00  0.00     0.028 H 
ENDBRANCH  15  17
BRANCH  15  21
ATOM     21  CAB ZXD d          -3.419  27.256  26.038  0.00  0.00    -0.071 C 
ATOM     22  H5  ZXD d          -2.960  26.641  26.825  0.00  0.00     0.028 H 
ATOM     23  H6  ZXD d          -4.211  26.680  25.538  0.00  0.00     0.028 H 
ATOM     24  H7  ZXD d          -3.852  28.163  26.486  0.00  0.00     0.028 H 
ENDBRANCH  15  21
ENDBRANCH   1  15
BRANCH   6  25
ATOM     25  OAE ZXD d           0.094  28.697  23.698  0.00  0.00    -0.391 OA
ATOM     26  H18 ZXD d           0.336  28.350  22.847  0.00  0.00     0.210 HD
ENDBRANCH   6  25
BRANCH   5  27
ATOM     27  OAD ZXD d           2.592  27.672  24.495  0.00  0.00    -0.390 OA
ATOM     28  H16 ZXD d           2.509  26.870  23.992  0.00  0.00     0.210 HD
ENDBRANCH   5  27
BRANCH   4  29
ATOM     29  OAC ZXD d           2.797  29.262  26.819  0.00  0.00    -0.391 OA
ATOM     30  H14 ZXD d           3.234  28.419  26.856  0.00  0.00     0.210 HD
ENDBRANCH   4  29
TORSDOF 6
ENDMDL
MODEL 7
REMARK VINA RESULT:      -4.2      1.861      2.678
REMARK  6 active torsions:
REMARK  status: ('A' for Active; 'I' for Inactive)
REMARK    1  A    between atoms: CAA_1  and  CAH_2 
REMARK    2  A    between atoms: CAH_2  and  CAB_3 
REMARK    3  A    between atoms: CAH_2  and  CAL_4 
REMARK    4  A    between atoms: CAI_7  and  OAC_8 
REMARK    5  A    between atoms: CAJ_9  and  OAD_10 
REMARK    6  A    between atoms: CAK_11  and  OAE_12 
ROOT
ATOM      1  CAL ZXD d           0.307  27.587  25.843  0.00  0.00     0.131 C 
ATOM      2  NAG ZXD d          -0.305  28.086  24.599  0.00  0.00    -0.066 N 
ATOM      3  CAF ZXD d          -1.587  27.410  24.341  0.00  0.00     0.108 C 
ATOM      4  CAI ZXD d          -2.553  27.729  25.490  0.00  0.00     0.086 C 
ATOM      5  CAJ ZXD d          -1.967  27.196  26.800  0.00  0.00     0.088 C 
ATOM      6  CAK ZXD d          -0.613  27.867  27.036  0.00  0.00     0.090 C 
ATOM      7  H8  ZXD d           0.418  26.496  25.754  0.00  0.00     0.089 H 
ATOM      8  H9  ZXD d           0.322  27.912  23.829  0.00  0.00     0.277 HD
ATOM      9  H10 ZXD d          -0.465  29.077  24.684  0.00  0.00     0.277 HD
ATOM     10  H11 ZXD d          -1.428  26.323  24.282  0.00  0.00     0.079 H 
ATOM     11  H12 ZXD d          -2.011  27.771  23.391  0.00  0.00     0.079 H 
ATOM     12  H13 ZXD d          -2.674  28.819  25.565  0.00  0.00     0.089 H 
ATOM     13  H15 ZXD d          -1.828  26.108  26.724  0.00  0.00     0.091 H 
ATOM     14  H17 ZXD d          -0.157  27.471  27.956  0.00  0.00     0.090 H 
ENDROOT
BRANCH   1  15
ATOM     15  CAH ZXD d           1.707  28.182  26.030  0.00  0.00    -0.031 C 
ATOM     16  H4  ZXD d           1.900  28.301  27.107  0.00  0.00     0.042 H 
BRANCH  15  17
ATOM     17  CAA ZXD d           2.756  27.237  25.433  0.00  0.00    -0.071 C 
ATOM     18  H1  ZXD d           2.500  26.198  25.687  0.00  0.00     0.028 H 
ATOM     19  H2  ZXD d           3.746  27.483  25.844  0.00  0.00     0.028 H 
ATOM     20  H3  ZXD d           2.774  27.354  24.339  0.00  0.00     0.028 H 
ENDBRANCH  15  17
BRANCH  15  21
ATOM     21  CAB ZXD d           1.824  29.549  25.350  0.00  0.00    -0.071 C 
ATOM     22  H5  ZXD d           2.878  29.860  25.331  0.00  0.00     0.028 H 
ATOM     23  H6  ZXD d           1.233  30.288  25.911  0.00  0.00     0.028 H 
ATOM     24  H7  ZXD d           1.443  29.480  24.320  0.00  0.00     0.028 H 
ENDBRANCH  15  21
ENDBRANCH   1  15
BRANCH   6  25
ATOM     25  OAE ZXD d          -0.808  29.276  27.162  0.00  0.00    -0.391 OA
ATOM     26  H18 ZXD d          -0.952  29.495  28.076  0.00  0.00     0.210 HD
ENDBRANCH   6  25
BRANCH   5  27
ATOM     27  OAD ZXD d          -2.854  27.482  27.882  0.00  0.00    -0.390 OA
ATOM     28  H16 ZXD d          -3.708  27.107  27.698  0.00  0.00     0.210 HD
ENDBRANCH   5  27
BRANCH   4  29
ATOM     29  OAC ZXD d          -3.832  27.134  25.256  0.00  0.00    -0.391 OA
ATOM     30  H14 ZXD d          -4.212  26.868  26.085  0.00  0.00     0.210 HD
ENDBRANCH   4  29
TORSDOF 6
ENDMDL
