MODEL 1
REMARK VINA RESULT:      -6.9      0.000      0.000
REMARK  16 active torsions:
REMARK  status: ('A' for Active; 'I' for Inactive)
REMARK    1  A    between atoms: CBC_6  and  CAS_7 
REMARK    2  A    between atoms: CAS_7  and  CBG_8 
REMARK    3  A    between atoms: CBG_8  and  NAW_9 
REMARK    4  A    between atoms: CBG_8  and  P1_21 
REMARK       I    between atoms: NAW_9  and  CBB_10 
REMARK    5  A    between atoms: CBB_10  and  CBF_12 
REMARK    6  A    between atoms: CBF_12  and  CAR_13 
REMARK    7  A    between atoms: CBF_12  and  NAU_17 
REMARK    8  A    between atoms: CAR_13  and  CAZ_14 
REMARK       I    between atoms: NAU_17  and  CAX_18 
REMARK    9  A    between atoms: CAX_18  and  CAA_19 
REMARK   10  A    between atoms: P1_21  and  CAT_24 
REMARK   11  A    between atoms: CAT_24  and  CBD_25 
REMARK   12  A    between atoms: CBD_25  and  CAB_26 
REMARK   13  A    between atoms: CBD_25  and  CBA_27 
REMARK       I    between atoms: CBA_27  and  N_29 
REMARK   14  A    between atoms: N_29  and  CA_30 
REMARK   15  A    between atoms: CA_30  and  CB_31 
REMARK   16  A    between atoms: CA_30  and  C_32 
REMARK       I    between atoms: C_32  and  NAD_34 
ROOT
ATOM      1  CBG RX4 d          27.045   0.477  44.773  0.00  0.00     0.091 C 
ATOM      2  H8  RX4 d          25.947   0.415  44.738  0.00  0.00     0.089 H 
ENDROOT
BRANCH   1   3
ATOM      3  CAS RX4 d          27.482   0.669  46.275  0.00  0.00    -0.013 C 
ATOM      4  H6  RX4 d          27.731  -0.301  46.729  0.00  0.00     0.044 H 
ATOM      5  H7  RX4 d          28.353   1.338  46.338  0.00  0.00     0.044 H 
BRANCH   3   6
ATOM      6  CBC RX4 d          26.261   1.302  46.989  0.00  0.00    -0.056 A 
ATOM      7  CAP RX4 d          26.536   1.978  48.206  0.00  0.00    -0.077 A 
ATOM      8  CAN RX4 d          25.552   2.558  48.993  0.00  0.00    -0.082 A 
ATOM      9  H1  RX4 d          27.566   2.044  48.537  0.00  0.00     0.084 H 
ATOM     10  CAM RX4 d          24.238   2.390  48.501  0.00  0.00    -0.083 A 
ATOM     11  H2  RX4 d          25.773   3.095  49.909  0.00  0.00     0.083 H 
ATOM     12  CAO RX4 d          23.928   1.694  47.309  0.00  0.00    -0.082 A 
ATOM     13  H3  RX4 d          23.420   2.819  49.069  0.00  0.00     0.083 H 
ATOM     14  CAQ RX4 d          24.956   1.132  46.534  0.00  0.00    -0.077 A 
ATOM     15  H4  RX4 d          22.896   1.594  46.994  0.00  0.00     0.083 H 
ATOM     16  H5  RX4 d          24.742   0.589  45.620  0.00  0.00     0.084 H 
ENDBRANCH   3   6
ENDBRANCH   1   3
BRANCH   1  17
ATOM     17  NAW RX4 d          27.626  -0.739  44.211  0.00  0.00    -0.345 N 
ATOM     18  CBB RX4 d          27.054  -1.903  44.529  0.00  0.00     0.241 C 
ATOM     19  OAI RX4 d          26.024  -1.971  45.225  0.00  0.00    -0.271 OA
ATOM     20  H9  RX4 d          28.424  -0.701  43.611  0.00  0.00     0.163 HD
BRANCH  18  21
ATOM     21  CBF RX4 d          27.788  -3.217  44.212  0.00  0.00     0.098 C 
ATOM     22  H10 RX4 d          27.435  -4.013  44.885  0.00  0.00     0.088 H 
BRANCH  21  23
ATOM     23  CAR RX4 d          29.267  -3.084  44.383  0.00  0.00     0.043 C 
ATOM     24  H11 RX4 d          29.508  -2.801  45.419  0.00  0.00     0.052 H 
ATOM     25  H12 RX4 d          29.665  -2.325  43.693  0.00  0.00     0.052 H 
BRANCH  23  26
ATOM     26  CAZ RX4 d          29.864  -4.474  44.054  0.00  0.00     0.175 C 
ATOM     27  OAK RX4 d          30.360  -4.685  42.911  0.00  0.00    -0.648 OA
ATOM     28  OAG RX4 d          29.870  -5.285  44.976  0.00  0.00    -0.648 OA
ENDBRANCH  23  26
ENDBRANCH  21  23
BRANCH  21  29
ATOM     29  NAU RX4 d          27.383  -3.535  42.798  0.00  0.00    -0.348 N 
ATOM     30  CAX RX4 d          26.893  -4.734  42.432  0.00  0.00     0.214 C 
ATOM     31  OAE RX4 d          26.771  -5.708  43.213  0.00  0.00    -0.274 OA
ATOM     32  H13 RX4 d          27.483  -2.826  42.101  0.00  0.00     0.163 HD
BRANCH  30  33
ATOM     33  CAA RX4 d          26.478  -4.863  40.937  0.00  0.00    -0.003 C 
ATOM     34  H14 RX4 d          26.227  -5.911  40.715  0.00  0.00     0.040 H 
ATOM     35  H15 RX4 d          27.312  -4.542  40.296  0.00  0.00     0.040 H 
ATOM     36  H16 RX4 d          25.601  -4.227  40.743  0.00  0.00     0.040 H 
ENDBRANCH  30  33
ENDBRANCH  21  29
ENDBRANCH  18  21
ENDBRANCH   1  17
BRANCH   1  37
ATOM     37  P1  RX4 d          27.604   1.816  43.697  0.00  0.00     0.130 P 
ATOM     38  O4  RX4 d          27.270   1.516  42.246  0.00  0.00    -0.666 OA
ATOM     39  O3  RX4 d          29.109   1.953  43.629  0.00  0.00    -0.666 OA
BRANCH  37  40
ATOM     40  CAT RX4 d          26.788   3.309  44.244  0.00  0.00     0.020 C 
ATOM     41  H17 RX4 d          26.512   3.169  45.299  0.00  0.00     0.050 H 
ATOM     42  H18 RX4 d          25.877   3.429  43.640  0.00  0.00     0.050 H 
BRANCH  40  43
ATOM     43  CBD RX4 d          27.586   4.613  44.143  0.00  0.00     0.029 C 
ATOM     44  H19 RX4 d          28.509   4.543  44.738  0.00  0.00     0.054 H 
BRANCH  43  45
ATOM     45  CAB RX4 d          27.914   5.043  42.627  0.00  0.00    -0.064 C 
ATOM     46  H20 RX4 d          28.613   5.892  42.631  0.00  0.00     0.028 H 
ATOM     47  H21 RX4 d          26.983   5.337  42.121  0.00  0.00     0.028 H 
ATOM     48  H22 RX4 d          28.369   4.195  42.095  0.00  0.00     0.028 H 
ENDBRANCH  43  45
BRANCH  43  49
ATOM     49  CBA RX4 d          26.628   5.755  44.657  0.00  0.00     0.222 C 
ATOM     50  OAH RX4 d          26.908   6.946  44.452  0.00  0.00    -0.273 OA
ATOM     51  N   RX4 d          25.582   5.386  45.386  0.00  0.00    -0.348 N 
ATOM     52  H23 RX4 d          25.393   4.419  45.558  0.00  0.00     0.163 HD
BRANCH  51  53
ATOM     53  CA  RX4 d          24.684   6.462  45.950  0.00  0.00     0.086 C 
ATOM     54  H24 RX4 d          25.199   7.434  45.974  0.00  0.00     0.086 H 
BRANCH  53  55
ATOM     55  CB  RX4 d          23.403   6.561  45.109  0.00  0.00    -0.049 C 
ATOM     56  H25 RX4 d          23.294   5.652  44.499  0.00  0.00     0.030 H 
ATOM     57  H26 RX4 d          23.464   7.440  44.450  0.00  0.00     0.030 H 
ATOM     58  H27 RX4 d          22.534   6.661  45.776  0.00  0.00     0.030 H 
ENDBRANCH  53  55
BRANCH  53  59
ATOM     59  C   RX4 d          24.326   5.979  47.397  0.00  0.00     0.237 C 
ATOM     60  O   RX4 d          25.240   5.943  48.288  0.00  0.00    -0.271 OA
ATOM     61  NAD RX4 d          23.069   5.658  47.650  0.00  0.00    -0.368 N 
ATOM     62  H28 RX4 d          22.807   5.347  48.564  0.00  0.00     0.159 HD
ATOM     63  H29 RX4 d          22.380   5.727  46.928  0.00  0.00     0.159 HD
ENDBRANCH  53  59
ENDBRANCH  51  53
ENDBRANCH  43  49
ENDBRANCH  40  43
ENDBRANCH  37  40
ENDBRANCH   1  37
TORSDOF 16
ENDMDL
MODEL 2
REMARK VINA RESULT:      -6.3      2.216      8.208
REMARK  16 active torsions:
REMARK  status: ('A' for Active; 'I' for Inactive)
REMARK    1  A    between atoms: CBC_6  and  CAS_7 
REMARK    2  A    between atoms: CAS_7  and  CBG_8 
REMARK    3  A    between atoms: CBG_8  and  NAW_9 
REMARK    4  A    between atoms: CBG_8  and  P1_21 
REMARK       I    between atoms: NAW_9  and  CBB_10 
REMARK    5  A    between atoms: CBB_10  and  CBF_12 
REMARK    6  A    between atoms: CBF_12  and  CAR_13 
REMARK    7  A    between atoms: CBF_12  and  NAU_17 
REMARK    8  A    between atoms: CAR_13  and  CAZ_14 
REMARK       I    between atoms: NAU_17  and  CAX_18 
REMARK    9  A    between atoms: CAX_18  and  CAA_19 
REMARK   10  A    between atoms: P1_21  and  CAT_24 
REMARK   11  A    between atoms: CAT_24  and  CBD_25 
REMARK   12  A    between atoms: CBD_25  and  CAB_26 
REMARK   13  A    between atoms: CBD_25  and  CBA_27 
REMARK       I    between atoms: CBA_27  and  N_29 
REMARK   14  A    between atoms: N_29  and  CA_30 
REMARK   15  A    between atoms: CA_30  and  CB_31 
REMARK   16  A    between atoms: CA_30  and  C_32 
REMARK       I    between atoms: C_32  and  NAD_34 
ROOT
ATOM      1  CBG RX4 d          26.251   2.663  47.243  0.00  0.00     0.091 C 
ATOM      2  H8  RX4 d          27.226   2.252  47.543  0.00  0.00     0.089 H 
ENDROOT
BRANCH   1   3
ATOM      3  CAS RX4 d          25.428   2.986  48.548  0.00  0.00    -0.013 C 
ATOM      4  H6  RX4 d          24.485   2.420  48.557  0.00  0.00     0.044 H 
ATOM      5  H7  RX4 d          26.015   2.734  49.444  0.00  0.00     0.044 H 
BRANCH   3   6
ATOM      6  CBC RX4 d          25.144   4.509  48.499  0.00  0.00    -0.056 A 
ATOM      7  CAP RX4 d          26.055   5.333  49.206  0.00  0.00    -0.077 A 
ATOM      8  CAN RX4 d          25.918   6.711  49.303  0.00  0.00    -0.082 A 
ATOM      9  H1  RX4 d          26.901   4.864  49.696  0.00  0.00     0.084 H 
ATOM     10  CAM RX4 d          24.768   7.228  48.665  0.00  0.00    -0.083 A 
ATOM     11  H2  RX4 d          26.633   7.338  49.824  0.00  0.00     0.083 H 
ATOM     12  CAO RX4 d          23.823   6.428  47.979  0.00  0.00    -0.082 A 
ATOM     13  H3  RX4 d          24.599   8.298  48.702  0.00  0.00     0.083 H 
ATOM     14  CAQ RX4 d          24.006   5.038  47.894  0.00  0.00    -0.077 A 
ATOM     15  H4  RX4 d          22.956   6.889  47.519  0.00  0.00     0.083 H 
ATOM     16  H5  RX4 d          23.292   4.404  47.380  0.00  0.00     0.084 H 
ENDBRANCH   3   6
ENDBRANCH   1   3
BRANCH   1  17
ATOM     17  NAW RX4 d          26.447   3.866  46.440  0.00  0.00    -0.345 N 
ATOM     18  CBB RX4 d          27.654   4.061  45.901  0.00  0.00     0.241 C 
ATOM     19  OAI RX4 d          28.574   3.231  46.012  0.00  0.00    -0.271 OA
ATOM     20  H9  RX4 d          25.705   4.521  46.298  0.00  0.00     0.163 HD
BRANCH  18  21
ATOM     21  CBF RX4 d          28.000   5.434  45.300  0.00  0.00     0.098 C 
ATOM     22  H10 RX4 d          29.009   5.405  44.862  0.00  0.00     0.088 H 
BRANCH  21  23
ATOM     23  CAR RX4 d          27.971   6.517  46.331  0.00  0.00     0.043 C 
ATOM     24  H11 RX4 d          27.205   6.301  47.090  0.00  0.00     0.052 H 
ATOM     25  H12 RX4 d          27.758   7.487  45.858  0.00  0.00     0.052 H 
BRANCH  23  26
ATOM     26  CAZ RX4 d          29.377   6.533  46.977  0.00  0.00     0.175 C 
ATOM     27  OAK RX4 d          30.380   6.855  46.279  0.00  0.00    -0.648 OA
ATOM     28  OAG RX4 d          29.416   6.283  48.179  0.00  0.00    -0.648 OA
ENDBRANCH  23  26
ENDBRANCH  21  23
BRANCH  21  29
ATOM     29  NAU RX4 d          26.981   5.629  44.210  0.00  0.00    -0.348 N 
ATOM     30  CAX RX4 d          27.134   5.129  42.970  0.00  0.00     0.214 C 
ATOM     31  OAE RX4 d          28.151   4.499  42.591  0.00  0.00    -0.274 OA
ATOM     32  H13 RX4 d          26.155   6.152  44.416  0.00  0.00     0.163 HD
BRANCH  30  33
ATOM     33  CAA RX4 d          25.952   5.386  41.990  0.00  0.00    -0.003 C 
ATOM     34  H14 RX4 d          25.068   5.709  42.558  0.00  0.00     0.040 H 
ATOM     35  H15 RX4 d          25.720   4.460  41.444  0.00  0.00     0.040 H 
ATOM     36  H16 RX4 d          26.234   6.173  41.273  0.00  0.00     0.040 H 
ENDBRANCH  30  33
ENDBRANCH  21  29
ENDBRANCH  18  21
ENDBRANCH   1  17
BRANCH   1  37
ATOM     37  P1  RX4 d          25.415   1.491  46.153  0.00  0.00     0.130 P 
ATOM     38  O4  RX4 d          25.197   2.098  44.777  0.00  0.00    -0.666 OA
ATOM     39  O3  RX4 d          23.993   1.184  46.566  0.00  0.00    -0.666 OA
BRANCH  37  40
ATOM     40  CAT RX4 d          26.446   0.036  46.051  0.00  0.00     0.020 C 
ATOM     41  H17 RX4 d          26.000  -0.734  46.698  0.00  0.00     0.050 H 
ATOM     42  H18 RX4 d          27.441   0.306  46.435  0.00  0.00     0.050 H 
BRANCH  40  43
ATOM     43  CBD RX4 d          26.638  -0.583  44.662  0.00  0.00     0.029 C 
ATOM     44  H19 RX4 d          25.707  -0.514  44.081  0.00  0.00     0.054 H 
BRANCH  43  45
ATOM     45  CAB RX4 d          27.871   0.055  43.846  0.00  0.00    -0.064 C 
ATOM     46  H20 RX4 d          28.776   0.029  44.471  0.00  0.00     0.028 H 
ATOM     47  H21 RX4 d          27.636   1.097  43.584  0.00  0.00     0.028 H 
ATOM     48  H22 RX4 d          28.042  -0.526  42.927  0.00  0.00     0.028 H 
ENDBRANCH  43  45
BRANCH  43  49
ATOM     49  CBA RX4 d          27.083  -2.076  44.905  0.00  0.00     0.222 C 
ATOM     50  OAH RX4 d          27.579  -2.413  45.991  0.00  0.00    -0.273 OA
ATOM     51  N   RX4 d          26.989  -2.911  43.878  0.00  0.00    -0.348 N 
ATOM     52  H23 RX4 d          26.609  -2.607  43.004  0.00  0.00     0.163 HD
BRANCH  51  53
ATOM     53  CA  RX4 d          27.472  -4.331  44.059  0.00  0.00     0.086 C 
ATOM     54  H24 RX4 d          27.090  -4.761  44.996  0.00  0.00     0.086 H 
BRANCH  53  55
ATOM     55  CB  RX4 d          27.027  -5.185  42.863  0.00  0.00    -0.049 C 
ATOM     56  H25 RX4 d          27.767  -5.980  42.685  0.00  0.00     0.030 H 
ATOM     57  H26 RX4 d          26.948  -4.550  41.968  0.00  0.00     0.030 H 
ATOM     58  H27 RX4 d          26.049  -5.638  43.080  0.00  0.00     0.030 H 
ENDBRANCH  53  55
BRANCH  53  59
ATOM     59  C   RX4 d          29.036  -4.232  44.081  0.00  0.00     0.237 C 
ATOM     60  O   RX4 d          29.721  -5.252  44.428  0.00  0.00    -0.271 OA
ATOM     61  NAD RX4 d          29.591  -3.095  43.698  0.00  0.00    -0.368 N 
ATOM     62  H28 RX4 d          30.586  -3.000  43.700  0.00  0.00     0.159 HD
ATOM     63  H29 RX4 d          29.015  -2.331  43.407  0.00  0.00     0.159 HD
ENDBRANCH  53  59
ENDBRANCH  51  53
ENDBRANCH  43  49
ENDBRANCH  40  43
ENDBRANCH  37  40
ENDBRANCH   1  37
TORSDOF 16
ENDMDL
MODEL 3
REMARK VINA RESULT:      -6.2      1.404      2.390
REMARK  16 active torsions:
REMARK  status: ('A' for Active; 'I' for Inactive)
REMARK    1  A    between atoms: CBC_6  and  CAS_7 
REMARK    2  A    between atoms: CAS_7  and  CBG_8 
REMARK    3  A    between atoms: CBG_8  and  NAW_9 
REMARK    4  A    between atoms: CBG_8  and  P1_21 
REMARK       I    between atoms: NAW_9  and  CBB_10 
REMARK    5  A    between atoms: CBB_10  and  CBF_12 
REMARK    6  A    between atoms: CBF_12  and  CAR_13 
REMARK    7  A    between atoms: CBF_12  and  NAU_17 
REMARK    8  A    between atoms: CAR_13  and  CAZ_14 
REMARK       I    between atoms: NAU_17  and  CAX_18 
REMARK    9  A    between atoms: CAX_18  and  CAA_19 
REMARK   10  A    between atoms: P1_21  and  CAT_24 
REMARK   11  A    between atoms: CAT_24  and  CBD_25 
REMARK   12  A    between atoms: CBD_25  and  CAB_26 
REMARK   13  A    between atoms: CBD_25  and  CBA_27 
REMARK       I    between atoms: CBA_27  and  N_29 
REMARK   14  A    between atoms: N_29  and  CA_30 
REMARK   15  A    between atoms: CA_30  and  CB_31 
REMARK   16  A    between atoms: CA_30  and  C_32 
REMARK       I    between atoms: C_32  and  NAD_34 
ROOT
ATOM      1  CBG RX4 d          27.129  -0.117  44.460  0.00  0.00     0.091 C 
ATOM      2  H8  RX4 d          26.084   0.120  44.212  0.00  0.00     0.089 H 
ENDROOT
BRANCH   1   3
ATOM      3  CAS RX4 d          27.216  -0.413  46.006  0.00  0.00    -0.013 C 
ATOM      4  H6  RX4 d          26.833  -1.421  46.225  0.00  0.00     0.044 H 
ATOM      5  H7  RX4 d          28.256  -0.332  46.354  0.00  0.00     0.044 H 
BRANCH   3   6
ATOM      6  CBC RX4 d          26.332   0.661  46.689  0.00  0.00    -0.056 A 
ATOM      7  CAP RX4 d          24.986   0.729  46.247  0.00  0.00    -0.077 A 
ATOM      8  CAN RX4 d          24.076   1.664  46.720  0.00  0.00    -0.082 A 
ATOM      9  H1  RX4 d          24.652   0.016  45.502  0.00  0.00     0.084 H 
ATOM     10  CAM RX4 d          24.611   2.574  47.661  0.00  0.00    -0.083 A 
ATOM     11  H2  RX4 d          23.041   1.694  46.396  0.00  0.00     0.083 H 
ATOM     12  CAO RX4 d          25.956   2.552  48.097  0.00  0.00    -0.082 A 
ATOM     13  H3  RX4 d          23.953   3.331  48.071  0.00  0.00     0.083 H 
ATOM     14  CAQ RX4 d          26.842   1.581  47.602  0.00  0.00    -0.077 A 
ATOM     15  H4  RX4 d          26.304   3.286  48.815  0.00  0.00     0.083 H 
ATOM     16  H5  RX4 d          27.879   1.549  47.918  0.00  0.00     0.084 H 
ENDBRANCH   3   6
ENDBRANCH   1   3
BRANCH   1  17
ATOM     17  NAW RX4 d          27.574  -1.269  43.683  0.00  0.00    -0.345 N 
ATOM     18  CBB RX4 d          27.114  -2.472  44.040  0.00  0.00     0.241 C 
ATOM     19  OAI RX4 d          26.288  -2.623  44.958  0.00  0.00    -0.271 OA
ATOM     20  H9  RX4 d          28.199  -1.162  42.910  0.00  0.00     0.163 HD
BRANCH  18  21
ATOM     21  CBF RX4 d          27.767  -3.734  43.454  0.00  0.00     0.098 C 
ATOM     22  H10 RX4 d          28.745  -3.480  43.018  0.00  0.00     0.088 H 
BRANCH  21  23
ATOM     23  CAR RX4 d          26.926  -4.352  42.383  0.00  0.00     0.043 C 
ATOM     24  H11 RX4 d          26.928  -3.718  41.484  0.00  0.00     0.052 H 
ATOM     25  H12 RX4 d          25.892  -4.483  42.737  0.00  0.00     0.052 H 
BRANCH  23  26
ATOM     26  CAZ RX4 d          27.566  -5.726  42.073  0.00  0.00     0.175 C 
ATOM     27  OAK RX4 d          28.709  -5.774  41.535  0.00  0.00    -0.648 OA
ATOM     28  OAG RX4 d          26.925  -6.708  42.437  0.00  0.00    -0.648 OA
ENDBRANCH  23  26
ENDBRANCH  21  23
BRANCH  21  29
ATOM     29  NAU RX4 d          27.964  -4.636  44.643  0.00  0.00    -0.348 N 
ATOM     30  CAX RX4 d          29.171  -5.103  45.013  0.00  0.00     0.214 C 
ATOM     31  OAE RX4 d          30.232  -4.874  44.383  0.00  0.00    -0.274 OA
ATOM     32  H13 RX4 d          27.164  -4.900  45.181  0.00  0.00     0.163 HD
BRANCH  30  33
ATOM     33  CAA RX4 d          29.189  -5.979  46.300  0.00  0.00    -0.003 C 
ATOM     34  H14 RX4 d          28.603  -6.894  46.128  0.00  0.00     0.040 H 
ATOM     35  H15 RX4 d          28.750  -5.413  47.134  0.00  0.00     0.040 H 
ATOM     36  H16 RX4 d          30.227  -6.249  46.545  0.00  0.00     0.040 H 
ENDBRANCH  30  33
ENDBRANCH  21  29
ENDBRANCH  18  21
ENDBRANCH   1  17
BRANCH   1  37
ATOM     37  P1  RX4 d          28.192   1.249  43.943  0.00  0.00     0.130 P 
ATOM     38  O4  RX4 d          29.064   0.836  42.769  0.00  0.00    -0.666 OA
ATOM     39  O3  RX4 d          29.240   1.626  44.966  0.00  0.00    -0.666 OA
BRANCH  37  40
ATOM     40  CAT RX4 d          27.124   2.610  43.496  0.00  0.00     0.020 C 
ATOM     41  H17 RX4 d          26.253   2.582  44.166  0.00  0.00     0.050 H 
ATOM     42  H18 RX4 d          26.795   2.448  42.459  0.00  0.00     0.050 H 
BRANCH  40  43
ATOM     43  CBD RX4 d          27.725   4.018  43.576  0.00  0.00     0.029 C 
ATOM     44  H19 RX4 d          28.823   3.967  43.547  0.00  0.00     0.054 H 
BRANCH  43  45
ATOM     45  CAB RX4 d          27.167   5.013  42.441  0.00  0.00    -0.064 C 
ATOM     46  H20 RX4 d          27.519   6.035  42.645  0.00  0.00     0.028 H 
ATOM     47  H21 RX4 d          26.067   4.996  42.447  0.00  0.00     0.028 H 
ATOM     48  H22 RX4 d          27.534   4.689  41.456  0.00  0.00     0.028 H 
ENDBRANCH  43  45
BRANCH  43  49
ATOM     49  CBA RX4 d          27.190   4.647  44.920  0.00  0.00     0.222 C 
ATOM     50  OAH RX4 d          27.812   4.477  45.981  0.00  0.00    -0.273 OA
ATOM     51  N   RX4 d          26.021   5.270  44.875  0.00  0.00    -0.348 N 
ATOM     52  H23 RX4 d          25.528   5.372  44.010  0.00  0.00     0.163 HD
BRANCH  51  53
ATOM     53  CA  RX4 d          25.450   5.823  46.159  0.00  0.00     0.086 C 
ATOM     54  H24 RX4 d          25.677   5.163  47.009  0.00  0.00     0.086 H 
BRANCH  53  55
ATOM     55  CB  RX4 d          26.015   7.228  46.414  0.00  0.00    -0.049 C 
ATOM     56  H25 RX4 d          26.132   7.756  45.456  0.00  0.00     0.030 H 
ATOM     57  H26 RX4 d          26.995   7.145  46.909  0.00  0.00     0.030 H 
ATOM     58  H27 RX4 d          25.324   7.790  47.060  0.00  0.00     0.030 H 
ENDBRANCH  53  55
BRANCH  53  59
ATOM     59  C   RX4 d          23.905   5.916  45.915  0.00  0.00     0.237 C 
ATOM     60  O   RX4 d          23.472   6.138  44.734  0.00  0.00    -0.271 OA
ATOM     61  NAD RX4 d          23.101   5.722  46.945  0.00  0.00    -0.368 N 
ATOM     62  H28 RX4 d          22.110   5.773  46.823  0.00  0.00     0.159 HD
ATOM     63  H29 RX4 d          23.484   5.523  47.848  0.00  0.00     0.159 HD
ENDBRANCH  53  59
ENDBRANCH  51  53
ENDBRANCH  43  49
ENDBRANCH  40  43
ENDBRANCH  37  40
ENDBRANCH   1  37
TORSDOF 16
ENDMDL
MODEL 4
REMARK VINA RESULT:      -6.1      1.864      2.891
REMARK  16 active torsions:
REMARK  status: ('A' for Active; 'I' for Inactive)
REMARK    1  A    between atoms: CBC_6  and  CAS_7 
REMARK    2  A    between atoms: CAS_7  and  CBG_8 
REMARK    3  A    between atoms: CBG_8  and  NAW_9 
REMARK    4  A    between atoms: CBG_8  and  P1_21 
REMARK       I    between atoms: NAW_9  and  CBB_10 
REMARK    5  A    between atoms: CBB_10  and  CBF_12 
REMARK    6  A    between atoms: CBF_12  and  CAR_13 
REMARK    7  A    between atoms: CBF_12  and  NAU_17 
REMARK    8  A    between atoms: CAR_13  and  CAZ_14 
REMARK       I    between atoms: NAU_17  and  CAX_18 
REMARK    9  A    between atoms: CAX_18  and  CAA_19 
REMARK   10  A    between atoms: P1_21  and  CAT_24 
REMARK   11  A    between atoms: CAT_24  and  CBD_25 
REMARK   12  A    between atoms: CBD_25  and  CAB_26 
REMARK   13  A    between atoms: CBD_25  and  CBA_27 
REMARK       I    between atoms: CBA_27  and  N_29 
REMARK   14  A    between atoms: N_29  and  CA_30 
REMARK   15  A    between atoms: CA_30  and  CB_31 
REMARK   16  A    between atoms: CA_30  and  C_32 
REMARK       I    between atoms: C_32  and  NAD_34 
ROOT
ATOM      1  CBG RX4 d          27.010   0.128  44.620  0.00  0.00     0.091 C 
ATOM      2  H8  RX4 d          25.927   0.268  44.492  0.00  0.00     0.089 H 
ENDROOT
BRANCH   1   3
ATOM      3  CAS RX4 d          27.301  -0.110  46.151  0.00  0.00    -0.013 C 
ATOM      4  H6  RX4 d          27.088  -1.155  46.424  0.00  0.00     0.044 H 
ATOM      5  H7  RX4 d          28.350   0.123  46.383  0.00  0.00     0.044 H 
BRANCH   3   6
ATOM      6  CBC RX4 d          26.353   0.851  46.912  0.00  0.00    -0.056 A 
ATOM      7  CAP RX4 d          25.010   0.887  46.457  0.00  0.00    -0.077 A 
ATOM      8  CAN RX4 d          24.046   1.727  46.997  0.00  0.00    -0.082 A 
ATOM      9  H1  RX4 d          24.723   0.226  45.648  0.00  0.00     0.084 H 
ATOM     10  CAM RX4 d          24.521   2.577  48.021  0.00  0.00    -0.083 A 
ATOM     11  H2  RX4 d          23.015   1.730  46.661  0.00  0.00     0.083 H 
ATOM     12  CAO RX4 d          25.861   2.588  48.474  0.00  0.00    -0.082 A 
ATOM     13  H3  RX4 d          23.819   3.259  48.486  0.00  0.00     0.083 H 
ATOM     14  CAQ RX4 d          26.803   1.712  47.910  0.00  0.00    -0.077 A 
ATOM     15  H4  RX4 d          26.161   3.273  49.259  0.00  0.00     0.083 H 
ATOM     16  H5  RX4 d          27.837   1.707  48.237  0.00  0.00     0.084 H 
ENDBRANCH   3   6
ENDBRANCH   1   3
BRANCH   1  17
ATOM     17  NAW RX4 d          27.460  -1.008  43.821  0.00  0.00    -0.345 N 
ATOM     18  CBB RX4 d          27.085  -2.229  44.214  0.00  0.00     0.241 C 
ATOM     19  OAI RX4 d          26.328  -2.413  45.184  0.00  0.00    -0.271 OA
ATOM     20  H9  RX4 d          28.028  -0.877  43.009  0.00  0.00     0.163 HD
BRANCH  18  21
ATOM     21  CBF RX4 d          27.761  -3.462  43.593  0.00  0.00     0.098 C 
ATOM     22  H10 RX4 d          28.743  -3.183  43.184  0.00  0.00     0.088 H 
BRANCH  21  23
ATOM     23  CAR RX4 d          26.944  -4.048  42.485  0.00  0.00     0.043 C 
ATOM     24  H11 RX4 d          26.993  -3.404  41.595  0.00  0.00     0.052 H 
ATOM     25  H12 RX4 d          25.896  -4.159  42.802  0.00  0.00     0.052 H 
BRANCH  23  26
ATOM     26  CAZ RX4 d          27.563  -5.433  42.181  0.00  0.00     0.175 C 
ATOM     27  OAK RX4 d          26.944  -6.481  42.522  0.00  0.00    -0.648 OA
ATOM     28  OAG RX4 d          28.619  -5.421  41.554  0.00  0.00    -0.648 OA
ENDBRANCH  23  26
ENDBRANCH  21  23
BRANCH  21  29
ATOM     29  NAU RX4 d          27.947  -4.406  44.751  0.00  0.00    -0.348 N 
ATOM     30  CAX RX4 d          29.145  -4.913  45.094  0.00  0.00     0.214 C 
ATOM     31  OAE RX4 d          30.206  -4.690  44.462  0.00  0.00    -0.274 OA
ATOM     32  H13 RX4 d          27.146  -4.667  45.289  0.00  0.00     0.163 HD
BRANCH  30  33
ATOM     33  CAA RX4 d          29.153  -5.829  46.353  0.00  0.00    -0.003 C 
ATOM     34  H14 RX4 d          28.137  -5.887  46.771  0.00  0.00     0.040 H 
ATOM     35  H15 RX4 d          29.836  -5.411  47.106  0.00  0.00     0.040 H 
ATOM     36  H16 RX4 d          29.491  -6.838  46.070  0.00  0.00     0.040 H 
ENDBRANCH  30  33
ENDBRANCH  21  29
ENDBRANCH  18  21
ENDBRANCH   1  17
BRANCH   1  37
ATOM     37  P1  RX4 d          27.884   1.560  43.950  0.00  0.00     0.130 P 
ATOM     38  O4  RX4 d          28.728   1.162  42.751  0.00  0.00    -0.666 OA
ATOM     39  O3  RX4 d          28.939   2.118  44.879  0.00  0.00    -0.666 OA
BRANCH  37  40
ATOM     40  CAT RX4 d          26.648   2.765  43.489  0.00  0.00     0.020 C 
ATOM     41  H17 RX4 d          26.418   3.365  44.381  0.00  0.00     0.050 H 
ATOM     42  H18 RX4 d          25.748   2.214  43.176  0.00  0.00     0.050 H 
BRANCH  40  43
ATOM     43  CBD RX4 d          27.012   3.735  42.360  0.00  0.00     0.029 C 
ATOM     44  H19 RX4 d          27.751   3.277  41.686  0.00  0.00     0.054 H 
BRANCH  43  45
ATOM     45  CAB RX4 d          25.734   4.262  41.536  0.00  0.00    -0.064 C 
ATOM     46  H20 RX4 d          25.433   5.248  41.917  0.00  0.00     0.028 H 
ATOM     47  H21 RX4 d          24.902   3.552  41.657  0.00  0.00     0.028 H 
ATOM     48  H22 RX4 d          25.994   4.344  40.469  0.00  0.00     0.028 H 
ENDBRANCH  43  45
BRANCH  43  49
ATOM     49  CBA RX4 d          27.566   5.035  43.061  0.00  0.00     0.222 C 
ATOM     50  OAH RX4 d          28.094   5.933  42.387  0.00  0.00    -0.273 OA
ATOM     51  N   RX4 d          27.525   5.073  44.386  0.00  0.00    -0.348 N 
ATOM     52  H23 RX4 d          27.116   4.324  44.908  0.00  0.00     0.163 HD
BRANCH  51  53
ATOM     53  CA  RX4 d          28.110   6.275  45.089  0.00  0.00     0.086 C 
ATOM     54  H24 RX4 d          28.830   6.799  44.443  0.00  0.00     0.086 H 
BRANCH  53  55
ATOM     55  CB  RX4 d          26.983   7.228  45.511  0.00  0.00    -0.049 C 
ATOM     56  H25 RX4 d          26.050   6.659  45.641  0.00  0.00     0.030 H 
ATOM     57  H26 RX4 d          26.841   7.994  44.733  0.00  0.00     0.030 H 
ATOM     58  H27 RX4 d          27.250   7.715  46.461  0.00  0.00     0.030 H 
ENDBRANCH  53  55
BRANCH  53  59
ATOM     59  C   RX4 d          28.815   5.699  46.365  0.00  0.00     0.237 C 
ATOM     60  O   RX4 d          28.413   4.591  46.855  0.00  0.00    -0.271 OA
ATOM     61  NAD RX4 d          29.835   6.374  46.868  0.00  0.00    -0.368 N 
ATOM     62  H28 RX4 d          30.307   6.033  47.681  0.00  0.00     0.159 HD
ATOM     63  H29 RX4 d          30.134   7.224  46.435  0.00  0.00     0.159 HD
ENDBRANCH  53  59
ENDBRANCH  51  53
ENDBRANCH  43  49
ENDBRANCH  40  43
ENDBRANCH  37  40
ENDBRANCH   1  37
TORSDOF 16
ENDMDL
MODEL 5
REMARK VINA RESULT:      -5.9      1.837      3.677
REMARK  16 active torsions:
REMARK  status: ('A' for Active; 'I' for Inactive)
REMARK    1  A    between atoms: CBC_6  and  CAS_7 
REMARK    2  A    between atoms: CAS_7  and  CBG_8 
REMARK    3  A    between atoms: CBG_8  and  NAW_9 
REMARK    4  A    between atoms: CBG_8  and  P1_21 
REMARK       I    between atoms: NAW_9  and  CBB_10 
REMARK    5  A    between atoms: CBB_10  and  CBF_12 
REMARK    6  A    between atoms: CBF_12  and  CAR_13 
REMARK    7  A    between atoms: CBF_12  and  NAU_17 
REMARK    8  A    between atoms: CAR_13  and  CAZ_14 
REMARK       I    between atoms: NAU_17  and  CAX_18 
REMARK    9  A    between atoms: CAX_18  and  CAA_19 
REMARK   10  A    between atoms: P1_21  and  CAT_24 
REMARK   11  A    between atoms: CAT_24  and  CBD_25 
REMARK   12  A    between atoms: CBD_25  and  CAB_26 
REMARK   13  A    between atoms: CBD_25  and  CBA_27 
REMARK       I    between atoms: CBA_27  and  N_29 
REMARK   14  A    between atoms: N_29  and  CA_30 
REMARK   15  A    between atoms: CA_30  and  CB_31 
REMARK   16  A    between atoms: CA_30  and  C_32 
REMARK       I    between atoms: C_32  and  NAD_34 
ROOT
ATOM      1  CBG RX4 d          26.538   0.573  44.791  0.00  0.00     0.091 C 
ATOM      2  H8  RX4 d          27.521   0.919  45.142  0.00  0.00     0.089 H 
ENDROOT
BRANCH   1   3
ATOM      3  CAS RX4 d          26.388   0.967  43.272  0.00  0.00    -0.013 C 
ATOM      4  H6  RX4 d          26.932   0.254  42.635  0.00  0.00     0.044 H 
ATOM      5  H7  RX4 d          25.327   0.982  42.982  0.00  0.00     0.044 H 
BRANCH   3   6
ATOM      6  CBC RX4 d          27.003   2.384  43.144  0.00  0.00    -0.056 A 
ATOM      7  CAP RX4 d          26.196   3.354  42.497  0.00  0.00    -0.077 A 
ATOM      8  CAN RX4 d          26.615   4.656  42.258  0.00  0.00    -0.082 A 
ATOM      9  H1  RX4 d          25.203   3.065  42.173  0.00  0.00     0.084 H 
ATOM     10  CAM RX4 d          27.935   4.931  42.683  0.00  0.00    -0.083 A 
ATOM     11  H2  RX4 d          25.982   5.400  41.786  0.00  0.00     0.083 H 
ATOM     12  CAO RX4 d          28.776   3.975  43.301  0.00  0.00    -0.082 A 
ATOM     13  H3  RX4 d          28.325   5.929  42.526  0.00  0.00     0.083 H 
ATOM     14  CAQ RX4 d          28.309   2.672  43.535  0.00  0.00    -0.077 A 
ATOM     15  H4  RX4 d          29.783   4.251  43.594  0.00  0.00     0.083 H 
ATOM     16  H5  RX4 d          28.937   1.921  44.002  0.00  0.00     0.084 H 
ENDBRANCH   3   6
ENDBRANCH   1   3
BRANCH   1  17
ATOM     17  NAW RX4 d          26.430  -0.872  44.967  0.00  0.00    -0.345 N 
ATOM     18  CBB RX4 d          27.430  -1.629  44.507  0.00  0.00     0.241 C 
ATOM     19  OAI RX4 d          28.455  -1.140  43.999  0.00  0.00    -0.271 OA
ATOM     20  H9  RX4 d          25.636  -1.280  45.417  0.00  0.00     0.163 HD
BRANCH  18  21
ATOM     21  CBF RX4 d          27.238  -3.151  44.402  0.00  0.00     0.098 C 
ATOM     22  H10 RX4 d          26.225  -3.423  44.731  0.00  0.00     0.088 H 
BRANCH  21  23
ATOM     23  CAR RX4 d          28.219  -3.896  45.249  0.00  0.00     0.043 C 
ATOM     24  H11 RX4 d          27.714  -4.710  45.790  0.00  0.00     0.052 H 
ATOM     25  H12 RX4 d          28.695  -3.215  45.971  0.00  0.00     0.052 H 
BRANCH  23  26
ATOM     26  CAZ RX4 d          29.276  -4.471  44.277  0.00  0.00     0.175 C 
ATOM     27  OAK RX4 d          30.075  -3.688  43.689  0.00  0.00    -0.648 OA
ATOM     28  OAG RX4 d          29.310  -5.696  44.188  0.00  0.00    -0.648 OA
ENDBRANCH  23  26
ENDBRANCH  21  23
BRANCH  21  29
ATOM     29  NAU RX4 d          27.386  -3.442  42.932  0.00  0.00    -0.348 N 
ATOM     30  CAX RX4 d          26.855  -4.532  42.348  0.00  0.00     0.214 C 
ATOM     31  OAE RX4 d          26.233  -5.426  42.970  0.00  0.00    -0.274 OA
ATOM     32  H13 RX4 d          27.901  -2.799  42.366  0.00  0.00     0.163 HD
BRANCH  30  33
ATOM     33  CAA RX4 d          27.065  -4.640  40.809  0.00  0.00    -0.003 C 
ATOM     34  H14 RX4 d          27.868  -3.954  40.499  0.00  0.00     0.040 H 
ATOM     35  H15 RX4 d          26.133  -4.371  40.292  0.00  0.00     0.040 H 
ATOM     36  H16 RX4 d          27.344  -5.672  40.548  0.00  0.00     0.040 H 
ENDBRANCH  30  33
ENDBRANCH  21  29
ENDBRANCH  18  21
ENDBRANCH   1  17
BRANCH   1  37
ATOM     37  P1  RX4 d          25.245   1.281  45.835  0.00  0.00     0.130 P 
ATOM     38  O4  RX4 d          24.044   0.353  45.906  0.00  0.00    -0.666 OA
ATOM     39  O3  RX4 d          24.615   2.531  45.260  0.00  0.00    -0.666 OA
BRANCH  37  40
ATOM     40  CAT RX4 d          25.953   1.533  47.455  0.00  0.00     0.020 C 
ATOM     41  H17 RX4 d          26.837   0.883  47.537  0.00  0.00     0.050 H 
ATOM     42  H18 RX4 d          25.202   1.225  48.198  0.00  0.00     0.050 H 
BRANCH  40  43
ATOM     43  CBD RX4 d          26.394   2.958  47.806  0.00  0.00     0.029 C 
ATOM     44  H19 RX4 d          27.023   2.953  48.709  0.00  0.00     0.054 H 
BRANCH  43  45
ATOM     45  CAB RX4 d          27.140   3.710  46.594  0.00  0.00    -0.064 C 
ATOM     46  H20 RX4 d          28.058   3.162  46.333  0.00  0.00     0.028 H 
ATOM     47  H21 RX4 d          27.399   4.734  46.902  0.00  0.00     0.028 H 
ATOM     48  H22 RX4 d          26.474   3.747  45.719  0.00  0.00     0.028 H 
ENDBRANCH  43  45
BRANCH  43  49
ATOM     49  CBA RX4 d          25.069   3.791  48.004  0.00  0.00     0.222 C 
ATOM     50  OAH RX4 d          24.158   3.355  48.724  0.00  0.00    -0.273 OA
ATOM     51  N   RX4 d          24.946   4.909  47.301  0.00  0.00    -0.348 N 
ATOM     52  H23 RX4 d          25.687   5.226  46.708  0.00  0.00     0.163 HD
BRANCH  51  53
ATOM     53  CA  RX4 d          23.660   5.693  47.417  0.00  0.00     0.086 C 
ATOM     54  H24 RX4 d          22.864   5.081  47.866  0.00  0.00     0.086 H 
BRANCH  53  55
ATOM     55  CB  RX4 d          23.897   6.955  48.259  0.00  0.00    -0.049 C 
ATOM     56  H25 RX4 d          23.031   7.626  48.166  0.00  0.00     0.030 H 
ATOM     57  H26 RX4 d          24.801   7.471  47.900  0.00  0.00     0.030 H 
ATOM     58  H27 RX4 d          24.030   6.673  49.314  0.00  0.00     0.030 H 
ENDBRANCH  53  55
BRANCH  53  59
ATOM     59  C   RX4 d          23.296   6.102  45.949  0.00  0.00     0.237 C 
ATOM     60  O   RX4 d          22.732   7.228  45.736  0.00  0.00    -0.271 OA
ATOM     61  NAD RX4 d          23.626   5.273  44.974  0.00  0.00    -0.368 N 
ATOM     62  H28 RX4 d          23.408   5.504  44.026  0.00  0.00     0.159 HD
ATOM     63  H29 RX4 d          24.092   4.414  45.185  0.00  0.00     0.159 HD
ENDBRANCH  53  59
ENDBRANCH  51  53
ENDBRANCH  43  49
ENDBRANCH  40  43
ENDBRANCH  37  40
ENDBRANCH   1  37
TORSDOF 16
ENDMDL
MODEL 6
REMARK VINA RESULT:      -5.6      2.218      8.663
REMARK  16 active torsions:
REMARK  status: ('A' for Active; 'I' for Inactive)
REMARK    1  A    between atoms: CBC_6  and  CAS_7 
REMARK    2  A    between atoms: CAS_7  and  CBG_8 
REMARK    3  A    between atoms: CBG_8  and  NAW_9 
REMARK    4  A    between atoms: CBG_8  and  P1_21 
REMARK       I    between atoms: NAW_9  and  CBB_10 
REMARK    5  A    between atoms: CBB_10  and  CBF_12 
REMARK    6  A    between atoms: CBF_12  and  CAR_13 
REMARK    7  A    between atoms: CBF_12  and  NAU_17 
REMARK    8  A    between atoms: CAR_13  and  CAZ_14 
REMARK       I    between atoms: NAU_17  and  CAX_18 
REMARK    9  A    between atoms: CAX_18  and  CAA_19 
REMARK   10  A    between atoms: P1_21  and  CAT_24 
REMARK   11  A    between atoms: CAT_24  and  CBD_25 
REMARK   12  A    between atoms: CBD_25  and  CAB_26 
REMARK   13  A    between atoms: CBD_25  and  CBA_27 
REMARK       I    between atoms: CBA_27  and  N_29 
REMARK   14  A    between atoms: N_29  and  CA_30 
REMARK   15  A    between atoms: CA_30  and  CB_31 
REMARK   16  A    between atoms: CA_30  and  C_32 
REMARK       I    between atoms: C_32  and  NAD_34 
ROOT
ATOM      1  CBG RX4 d          27.281   2.715  45.690  0.00  0.00     0.091 C 
ATOM      2  H8  RX4 d          28.240   2.599  45.163  0.00  0.00     0.089 H 
ENDROOT
BRANCH   1   3
ATOM      3  CAS RX4 d          27.445   2.142  47.149  0.00  0.00    -0.013 C 
ATOM      4  H6  RX4 d          27.341   1.047  47.144  0.00  0.00     0.044 H 
ATOM      5  H7  RX4 d          28.427   2.416  47.560  0.00  0.00     0.044 H 
BRANCH   3   6
ATOM      6  CBC RX4 d          26.310   2.788  47.983  0.00  0.00    -0.056 A 
ATOM      7  CAP RX4 d          25.117   2.030  48.100  0.00  0.00    -0.077 A 
ATOM      8  CAN RX4 d          23.990   2.484  48.771  0.00  0.00    -0.082 A 
ATOM      9  H1  RX4 d          25.084   1.048  47.642  0.00  0.00     0.084 H 
ATOM     10  CAM RX4 d          24.114   3.787  49.303  0.00  0.00    -0.083 A 
ATOM     11  H2  RX4 d          23.090   1.888  48.878  0.00  0.00     0.083 H 
ATOM     12  CAO RX4 d          25.278   4.580  49.175  0.00  0.00    -0.082 A 
ATOM     13  H3  RX4 d          23.269   4.202  49.840  0.00  0.00     0.083 H 
ATOM     14  CAQ RX4 d          26.402   4.079  48.499  0.00  0.00    -0.077 A 
ATOM     15  H4  RX4 d          25.302   5.578  49.601  0.00  0.00     0.083 H 
ATOM     16  H5  RX4 d          27.303   4.672  48.383  0.00  0.00     0.084 H 
ENDBRANCH   3   6
ENDBRANCH   1   3
BRANCH   1  17
ATOM     17  NAW RX4 d          26.902   4.125  45.723  0.00  0.00    -0.345 N 
ATOM     18  CBB RX4 d          27.477   4.942  44.836  0.00  0.00     0.241 C 
ATOM     19  OAI RX4 d          28.262   4.530  43.963  0.00  0.00    -0.271 OA
ATOM     20  H9  RX4 d          26.236   4.466  46.386  0.00  0.00     0.163 HD
BRANCH  18  21
ATOM     21  CBF RX4 d          27.341   6.463  45.013  0.00  0.00     0.098 C 
ATOM     22  H10 RX4 d          26.688   6.682  45.871  0.00  0.00     0.088 H 
BRANCH  21  23
ATOM     23  CAR RX4 d          26.753   7.115  43.802  0.00  0.00     0.043 C 
ATOM     24  H11 RX4 d          27.366   6.895  42.916  0.00  0.00     0.052 H 
ATOM     25  H12 RX4 d          26.693   8.204  43.947  0.00  0.00     0.052 H 
BRANCH  23  26
ATOM     26  CAZ RX4 d          25.336   6.517  43.638  0.00  0.00     0.175 C 
ATOM     27  OAK RX4 d          25.079   5.788  42.637  0.00  0.00    -0.648 OA
ATOM     28  OAG RX4 d          24.549   6.747  44.552  0.00  0.00    -0.648 OA
ENDBRANCH  23  26
ENDBRANCH  21  23
BRANCH  21  29
ATOM     29  NAU RX4 d          28.741   6.928  45.313  0.00  0.00    -0.348 N 
ATOM     30  CAX RX4 d          29.356   6.685  46.485  0.00  0.00     0.214 C 
ATOM     31  OAE RX4 d          28.813   6.095  47.450  0.00  0.00    -0.274 OA
ATOM     32  H13 RX4 d          29.235   7.440  44.611  0.00  0.00     0.163 HD
BRANCH  30  33
ATOM     33  CAA RX4 d          30.822   7.196  46.595  0.00  0.00    -0.003 C 
ATOM     34  H14 RX4 d          30.878   8.232  46.230  0.00  0.00     0.040 H 
ATOM     35  H15 RX4 d          31.480   6.558  45.988  0.00  0.00     0.040 H 
ATOM     36  H16 RX4 d          31.145   7.161  47.646  0.00  0.00     0.040 H 
ENDBRANCH  30  33
ENDBRANCH  21  29
ENDBRANCH  18  21
ENDBRANCH   1  17
BRANCH   1  37
ATOM     37  P1  RX4 d          25.977   1.891  44.749  0.00  0.00     0.130 P 
ATOM     38  O4  RX4 d          26.068   2.250  43.276  0.00  0.00    -0.666 OA
ATOM     39  O3  RX4 d          24.585   2.378  45.085  0.00  0.00    -0.666 OA
BRANCH  37  40
ATOM     40  CAT RX4 d          26.184   0.133  44.991  0.00  0.00     0.020 C 
ATOM     41  H17 RX4 d          25.187  -0.329  44.940  0.00  0.00     0.050 H 
ATOM     42  H18 RX4 d          26.607  -0.018  45.995  0.00  0.00     0.050 H 
BRANCH  40  43
ATOM     43  CBD RX4 d          27.085  -0.603  43.993  0.00  0.00     0.029 C 
ATOM     44  H19 RX4 d          26.535  -0.813  43.064  0.00  0.00     0.054 H 
BRANCH  43  45
ATOM     45  CAB RX4 d          28.459   0.175  43.683  0.00  0.00    -0.064 C 
ATOM     46  H20 RX4 d          28.762   0.752  44.569  0.00  0.00     0.028 H 
ATOM     47  H21 RX4 d          28.309   0.858  42.834  0.00  0.00     0.028 H 
ATOM     48  H22 RX4 d          29.245  -0.553  43.433  0.00  0.00     0.028 H 
ENDBRANCH  43  45
BRANCH  43  49
ATOM     49  CBA RX4 d          27.557  -1.922  44.719  0.00  0.00     0.222 C 
ATOM     50  OAH RX4 d          27.469  -2.022  45.953  0.00  0.00    -0.273 OA
ATOM     51  N   RX4 d          28.128  -2.855  43.969  0.00  0.00    -0.348 N 
ATOM     52  H23 RX4 d          28.209  -2.737  42.979  0.00  0.00     0.163 HD
BRANCH  51  53
ATOM     53  CA  RX4 d          28.653  -4.099  44.646  0.00  0.00     0.086 C 
ATOM     54  H24 RX4 d          28.859  -3.914  45.710  0.00  0.00     0.086 H 
BRANCH  53  55
ATOM     55  CB  RX4 d          27.636  -5.239  44.494  0.00  0.00    -0.049 C 
ATOM     56  H25 RX4 d          26.718  -4.853  44.026  0.00  0.00     0.030 H 
ATOM     57  H26 RX4 d          27.396  -5.651  45.485  0.00  0.00     0.030 H 
ATOM     58  H27 RX4 d          28.064  -6.031  43.861  0.00  0.00     0.030 H 
ENDBRANCH  53  55
BRANCH  53  59
ATOM     59  C   RX4 d          29.967  -4.462  43.873  0.00  0.00     0.237 C 
ATOM     60  O   RX4 d          29.912  -4.684  42.616  0.00  0.00    -0.271 OA
ATOM     61  NAD RX4 d          31.099  -4.487  44.553  0.00  0.00    -0.368 N 
ATOM     62  H28 RX4 d          31.956  -4.715  44.089  0.00  0.00     0.159 HD
ATOM     63  H29 RX4 d          31.100  -4.279  45.531  0.00  0.00     0.159 HD
ENDBRANCH  53  59
ENDBRANCH  51  53
ENDBRANCH  43  49
ENDBRANCH  40  43
ENDBRANCH  37  40
ENDBRANCH   1  37
TORSDOF 16
ENDMDL
MODEL 7
REMARK VINA RESULT:      -5.6      2.012      8.524
REMARK  16 active torsions:
REMARK  status: ('A' for Active; 'I' for Inactive)
REMARK    1  A    between atoms: CBC_6  and  CAS_7 
REMARK    2  A    between atoms: CAS_7  and  CBG_8 
REMARK    3  A    between atoms: CBG_8  and  NAW_9 
REMARK    4  A    between atoms: CBG_8  and  P1_21 
REMARK       I    between atoms: NAW_9  and  CBB_10 
REMARK    5  A    between atoms: CBB_10  and  CBF_12 
REMARK    6  A    between atoms: CBF_12  and  CAR_13 
REMARK    7  A    between atoms: CBF_12  and  NAU_17 
REMARK    8  A    between atoms: CAR_13  and  CAZ_14 
REMARK       I    between atoms: NAU_17  and  CAX_18 
REMARK    9  A    between atoms: CAX_18  and  CAA_19 
REMARK   10  A    between atoms: P1_21  and  CAT_24 
REMARK   11  A    between atoms: CAT_24  and  CBD_25 
REMARK   12  A    between atoms: CBD_25  and  CAB_26 
REMARK   13  A    between atoms: CBD_25  and  CBA_27 
REMARK       I    between atoms: CBA_27  and  N_29 
REMARK   14  A    between atoms: N_29  and  CA_30 
REMARK   15  A    between atoms: CA_30  and  CB_31 
REMARK   16  A    between atoms: CA_30  and  C_32 
REMARK       I    between atoms: C_32  and  NAD_34 
ROOT
ATOM      1  CBG RX4 d          27.430   1.333  45.763  0.00  0.00     0.091 C 
ATOM      2  H8  RX4 d          28.510   1.294  45.558  0.00  0.00     0.089 H 
ENDROOT
BRANCH   1   3
ATOM      3  CAS RX4 d          27.196   0.916  47.265  0.00  0.00    -0.013 C 
ATOM      4  H6  RX4 d          26.768  -0.096  47.320  0.00  0.00     0.044 H 
ATOM      5  H7  RX4 d          28.143   0.944  47.823  0.00  0.00     0.044 H 
BRANCH   3   6
ATOM      6  CBC RX4 d          26.199   1.955  47.839  0.00  0.00    -0.056 A 
ATOM      7  CAP RX4 d          26.768   2.996  48.616  0.00  0.00    -0.077 A 
ATOM      8  CAN RX4 d          26.013   3.979  49.241  0.00  0.00    -0.082 A 
ATOM      9  H1  RX4 d          27.846   3.025  48.728  0.00  0.00     0.084 H 
ATOM     10  CAM RX4 d          24.617   3.838  49.069  0.00  0.00    -0.083 A 
ATOM     11  H2  RX4 d          26.456   4.786  49.813  0.00  0.00     0.083 H 
ATOM     12  CAO RX4 d          24.018   2.793  48.327  0.00  0.00    -0.082 A 
ATOM     13  H3  RX4 d          23.968   4.573  49.532  0.00  0.00     0.083 H 
ATOM     14  CAQ RX4 d          24.819   1.825  47.700  0.00  0.00    -0.077 A 
ATOM     15  H4  RX4 d          22.938   2.740  48.243  0.00  0.00     0.083 H 
ATOM     16  H5  RX4 d          24.382   1.011  47.131  0.00  0.00     0.084 H 
ENDBRANCH   3   6
ENDBRANCH   1   3
BRANCH   1  17
ATOM     17  NAW RX4 d          26.928   2.681  45.513  0.00  0.00    -0.345 N 
ATOM     18  CBB RX4 d          27.655   3.475  44.722  0.00  0.00     0.241 C 
ATOM     19  OAI RX4 d          28.692   3.084  44.157  0.00  0.00    -0.271 OA
ATOM     20  H9  RX4 d          26.071   2.997  45.918  0.00  0.00     0.163 HD
BRANCH  18  21
ATOM     21  CBF RX4 d          27.333   4.978  44.660  0.00  0.00     0.098 C 
ATOM     22  H10 RX4 d          28.244   5.544  44.413  0.00  0.00     0.088 H 
BRANCH  21  23
ATOM     23  CAR RX4 d          26.805   5.489  45.962  0.00  0.00     0.043 C 
ATOM     24  H11 RX4 d          27.351   6.395  46.265  0.00  0.00     0.052 H 
ATOM     25  H12 RX4 d          26.905   4.720  46.743  0.00  0.00     0.052 H 
BRANCH  23  26
ATOM     26  CAZ RX4 d          25.313   5.817  45.721  0.00  0.00     0.175 C 
ATOM     27  OAK RX4 d          24.963   7.014  45.511  0.00  0.00    -0.648 OA
ATOM     28  OAG RX4 d          24.552   4.854  45.688  0.00  0.00    -0.648 OA
ENDBRANCH  23  26
ENDBRANCH  21  23
BRANCH  21  29
ATOM     29  NAU RX4 d          26.343   5.099  43.533  0.00  0.00    -0.348 N 
ATOM     30  CAX RX4 d          26.713   5.303  42.255  0.00  0.00     0.214 C 
ATOM     31  OAE RX4 d          27.903   5.459  41.888  0.00  0.00    -0.274 OA
ATOM     32  H13 RX4 d          25.369   5.024  43.742  0.00  0.00     0.163 HD
BRANCH  30  33
ATOM     33  CAA RX4 d          25.553   5.349  41.217  0.00  0.00    -0.003 C 
ATOM     34  H14 RX4 d          25.154   6.372  41.158  0.00  0.00     0.040 H 
ATOM     35  H15 RX4 d          24.755   4.661  41.530  0.00  0.00     0.040 H 
ATOM     36  H16 RX4 d          25.933   5.046  40.230  0.00  0.00     0.040 H 
ENDBRANCH  30  33
ENDBRANCH  21  29
ENDBRANCH  18  21
ENDBRANCH   1  17
BRANCH   1  37
ATOM     37  P1  RX4 d          26.558   0.271  44.591  0.00  0.00     0.130 P 
ATOM     38  O4  RX4 d          26.229   1.033  43.318  0.00  0.00    -0.666 OA
ATOM     39  O3  RX4 d          25.177  -0.139  45.053  0.00  0.00    -0.666 OA
BRANCH  37  40
ATOM     40  CAT RX4 d          27.624  -1.120  44.244  0.00  0.00     0.020 C 
ATOM     41  H17 RX4 d          28.422  -1.124  45.000  0.00  0.00     0.050 H 
ATOM     42  H18 RX4 d          28.064  -0.961  43.248  0.00  0.00     0.050 H 
BRANCH  40  43
ATOM     43  CBD RX4 d          26.976  -2.508  44.247  0.00  0.00     0.029 C 
ATOM     44  H19 RX4 d          26.058  -2.500  44.854  0.00  0.00     0.054 H 
BRANCH  43  45
ATOM     45  CAB RX4 d          26.681  -3.077  42.771  0.00  0.00    -0.064 C 
ATOM     46  H20 RX4 d          26.906  -2.299  42.027  0.00  0.00     0.028 H 
ATOM     47  H21 RX4 d          25.622  -3.364  42.693  0.00  0.00     0.028 H 
ATOM     48  H22 RX4 d          27.314  -3.958  42.583  0.00  0.00     0.028 H 
ENDBRANCH  43  45
BRANCH  43  49
ATOM     49  CBA RX4 d          28.063  -3.498  44.819  0.00  0.00     0.222 C 
ATOM     50  OAH RX4 d          28.412  -3.424  46.008  0.00  0.00    -0.273 OA
ATOM     51  N   RX4 d          28.638  -4.329  43.960  0.00  0.00    -0.348 N 
ATOM     52  H23 RX4 d          28.355  -4.351  43.001  0.00  0.00     0.163 HD
BRANCH  51  53
ATOM     53  CA  RX4 d          29.730  -5.242  44.464  0.00  0.00     0.086 C 
ATOM     54  H24 RX4 d          29.777  -5.233  45.563  0.00  0.00     0.086 H 
BRANCH  53  55
ATOM     55  CB  RX4 d          29.488  -6.670  43.955  0.00  0.00    -0.049 C 
ATOM     56  H25 RX4 d          28.570  -6.693  43.350  0.00  0.00     0.030 H 
ATOM     57  H26 RX4 d          29.379  -7.351  44.813  0.00  0.00     0.030 H 
ATOM     58  H27 RX4 d          30.342  -6.989  43.339  0.00  0.00     0.030 H 
ENDBRANCH  53  55
BRANCH  53  59
ATOM     59  C   RX4 d          31.053  -4.680  43.841  0.00  0.00     0.237 C 
ATOM     60  O   RX4 d          31.870  -4.037  44.583  0.00  0.00    -0.271 OA
ATOM     61  NAD RX4 d          31.292  -4.928  42.565  0.00  0.00    -0.368 N 
ATOM     62  H28 RX4 d          32.127  -4.584  42.136  0.00  0.00     0.159 HD
ATOM     63  H29 RX4 d          30.637  -5.460  42.028  0.00  0.00     0.159 HD
ENDBRANCH  53  59
ENDBRANCH  51  53
ENDBRANCH  43  49
ENDBRANCH  40  43
ENDBRANCH  37  40
ENDBRANCH   1  37
TORSDOF 16
ENDMDL
MODEL 8
REMARK VINA RESULT:      -5.2      1.797      8.398
REMARK  16 active torsions:
REMARK  status: ('A' for Active; 'I' for Inactive)
REMARK    1  A    between atoms: CBC_6  and  CAS_7 
REMARK    2  A    between atoms: CAS_7  and  CBG_8 
REMARK    3  A    between atoms: CBG_8  and  NAW_9 
REMARK    4  A    between atoms: CBG_8  and  P1_21 
REMARK       I    between atoms: NAW_9  and  CBB_10 
REMARK    5  A    between atoms: CBB_10  and  CBF_12 
REMARK    6  A    between atoms: CBF_12  and  CAR_13 
REMARK    7  A    between atoms: CBF_12  and  NAU_17 
REMARK    8  A    between atoms: CAR_13  and  CAZ_14 
REMARK       I    between atoms: NAU_17  and  CAX_18 
REMARK    9  A    between atoms: CAX_18  and  CAA_19 
REMARK   10  A    between atoms: P1_21  and  CAT_24 
REMARK   11  A    between atoms: CAT_24  and  CBD_25 
REMARK   12  A    between atoms: CBD_25  and  CAB_26 
REMARK   13  A    between atoms: CBD_25  and  CBA_27 
REMARK       I    between atoms: CBA_27  and  N_29 
REMARK   14  A    between atoms: N_29  and  CA_30 
REMARK   15  A    between atoms: CA_30  and  CB_31 
REMARK   16  A    between atoms: CA_30  and  C_32 
REMARK       I    between atoms: C_32  and  NAD_34 
ROOT
ATOM      1  CBG RX4 d          27.181   1.803  45.286  0.00  0.00     0.091 C 
ATOM      2  H8  RX4 d          28.023   1.756  45.994  0.00  0.00     0.089 H 
ENDROOT
BRANCH   1   3
ATOM      3  CAS RX4 d          26.021   0.889  45.837  0.00  0.00    -0.013 C 
ATOM      4  H6  RX4 d          25.201   0.828  45.106  0.00  0.00     0.044 H 
ATOM      5  H7  RX4 d          26.398  -0.122  46.050  0.00  0.00     0.044 H 
BRANCH   3   6
ATOM      6  CBC RX4 d          25.533   1.570  47.141  0.00  0.00    -0.056 A 
ATOM      7  CAP RX4 d          24.135   1.779  47.246  0.00  0.00    -0.077 A 
ATOM      8  CAN RX4 d          23.539   2.418  48.325  0.00  0.00    -0.082 A 
ATOM      9  H1  RX4 d          23.499   1.422  46.443  0.00  0.00     0.084 H 
ATOM     10  CAM RX4 d          24.449   2.880  49.303  0.00  0.00    -0.083 A 
ATOM     11  H2  RX4 d          22.467   2.551  48.410  0.00  0.00     0.083 H 
ATOM     12  CAO RX4 d          25.851   2.715  49.211  0.00  0.00    -0.082 A 
ATOM     13  H3  RX4 d          24.050   3.388  50.172  0.00  0.00     0.083 H 
ATOM     14  CAQ RX4 d          26.413   2.052  48.108  0.00  0.00    -0.077 A 
ATOM     15  H4  RX4 d          26.493   3.103  49.994  0.00  0.00     0.083 H 
ATOM     16  H5  RX4 d          27.485   1.920  48.013  0.00  0.00     0.084 H 
ENDBRANCH   3   6
ENDBRANCH   1   3
BRANCH   1  17
ATOM     17  NAW RX4 d          26.732   3.184  45.141  0.00  0.00    -0.345 N 
ATOM     18  CBB RX4 d          27.550   4.150  45.572  0.00  0.00     0.241 C 
ATOM     19  OAI RX4 d          28.683   3.909  46.025  0.00  0.00    -0.271 OA
ATOM     20  H9  RX4 d          25.845   3.400  44.734  0.00  0.00     0.163 HD
BRANCH  18  21
ATOM     21  CBF RX4 d          27.015   5.584  45.713  0.00  0.00     0.098 C 
ATOM     22  H10 RX4 d          27.854   6.283  45.851  0.00  0.00     0.088 H 
BRANCH  21  23
ATOM     23  CAR RX4 d          26.095   5.724  46.884  0.00  0.00     0.043 C 
ATOM     24  H11 RX4 d          26.365   6.611  47.476  0.00  0.00     0.052 H 
ATOM     25  H12 RX4 d          26.149   4.828  47.521  0.00  0.00     0.052 H 
BRANCH  23  26
ATOM     26  CAZ RX4 d          24.673   5.882  46.297  0.00  0.00     0.175 C 
ATOM     27  OAK RX4 d          24.075   4.870  45.832  0.00  0.00    -0.648 OA
ATOM     28  OAG RX4 d          24.181   7.004  46.381  0.00  0.00    -0.648 OA
ENDBRANCH  23  26
ENDBRANCH  21  23
BRANCH  21  29
ATOM     29  NAU RX4 d          26.340   5.860  44.396  0.00  0.00    -0.348 N 
ATOM     30  CAX RX4 d          26.951   5.679  43.211  0.00  0.00     0.214 C 
ATOM     31  OAE RX4 d          28.145   5.313  43.089  0.00  0.00    -0.274 OA
ATOM     32  H13 RX4 d          25.397   6.192  44.403  0.00  0.00     0.163 HD
BRANCH  30  33
ATOM     33  CAA RX4 d          26.079   5.965  41.954  0.00  0.00    -0.003 C 
ATOM     34  H14 RX4 d          26.732   6.191  41.098  0.00  0.00     0.040 H 
ATOM     35  H15 RX4 d          25.422   6.825  42.151  0.00  0.00     0.040 H 
ATOM     36  H16 RX4 d          25.466   5.080  41.724  0.00  0.00     0.040 H 
ENDBRANCH  30  33
ENDBRANCH  21  29
ENDBRANCH  18  21
ENDBRANCH   1  17
BRANCH   1  37
ATOM     37  P1  RX4 d          27.750   1.310  43.644  0.00  0.00     0.130 P 
ATOM     38  O4  RX4 d          29.230   1.606  43.477  0.00  0.00    -0.666 OA
ATOM     39  O3  RX4 d          27.157   2.133  42.523  0.00  0.00    -0.666 OA
BRANCH  37  40
ATOM     40  CAT RX4 d          27.428  -0.440  43.477  0.00  0.00     0.020 C 
ATOM     41  H17 RX4 d          28.212  -0.863  42.832  0.00  0.00     0.050 H 
ATOM     42  H18 RX4 d          26.450  -0.553  42.986  0.00  0.00     0.050 H 
BRANCH  40  43
ATOM     43  CBD RX4 d          27.396  -1.266  44.768  0.00  0.00     0.029 C 
ATOM     44  H19 RX4 d          27.968  -0.760  45.560  0.00  0.00     0.054 H 
BRANCH  43  45
ATOM     45  CAB RX4 d          25.905  -1.607  45.269  0.00  0.00    -0.064 C 
ATOM     46  H20 RX4 d          25.581  -0.849  45.997  0.00  0.00     0.028 H 
ATOM     47  H21 RX4 d          25.896  -2.599  45.743  0.00  0.00     0.028 H 
ATOM     48  H22 RX4 d          25.219  -1.605  44.408  0.00  0.00     0.028 H 
ENDBRANCH  43  45
BRANCH  43  49
ATOM     49  CBA RX4 d          27.999  -2.676  44.402  0.00  0.00     0.222 C 
ATOM     50  OAH RX4 d          29.212  -2.796  44.168  0.00  0.00    -0.273 OA
ATOM     51  N   RX4 d          27.146  -3.683  44.266  0.00  0.00    -0.348 N 
ATOM     52  H23 RX4 d          26.169  -3.553  44.436  0.00  0.00     0.163 HD
BRANCH  51  53
ATOM     53  CA  RX4 d          27.686  -5.031  43.849  0.00  0.00     0.086 C 
ATOM     54  H24 RX4 d          28.654  -5.235  44.330  0.00  0.00     0.086 H 
BRANCH  53  55
ATOM     55  CB  RX4 d          26.673  -6.128  44.208  0.00  0.00    -0.049 C 
ATOM     56  H25 RX4 d          26.708  -6.318  45.291  0.00  0.00     0.030 H 
ATOM     57  H26 RX4 d          26.925  -7.051  43.665  0.00  0.00     0.030 H 
ATOM     58  H27 RX4 d          25.662  -5.800  43.926  0.00  0.00     0.030 H 
ENDBRANCH  53  55
BRANCH  53  59
ATOM     59  C   RX4 d          27.837  -4.947  42.291  0.00  0.00     0.237 C 
ATOM     60  O   RX4 d          28.920  -5.348  41.746  0.00  0.00    -0.271 OA
ATOM     61  NAD RX4 d          26.812  -4.492  41.592  0.00  0.00    -0.368 N 
ATOM     62  H28 RX4 d          26.876  -4.427  40.596  0.00  0.00     0.159 HD
ATOM     63  H29 RX4 d          25.972  -4.214  42.059  0.00  0.00     0.159 HD
ENDBRANCH  53  59
ENDBRANCH  51  53
ENDBRANCH  43  49
ENDBRANCH  40  43
ENDBRANCH  37  40
ENDBRANCH   1  37
TORSDOF 16
ENDMDL
MODEL 9
REMARK VINA RESULT:      -5.1      2.513      6.500
REMARK  16 active torsions:
REMARK  status: ('A' for Active; 'I' for Inactive)
REMARK    1  A    between atoms: CBC_6  and  CAS_7 
REMARK    2  A    between atoms: CAS_7  and  CBG_8 
REMARK    3  A    between atoms: CBG_8  and  NAW_9 
REMARK    4  A    between atoms: CBG_8  and  P1_21 
REMARK       I    between atoms: NAW_9  and  CBB_10 
REMARK    5  A    between atoms: CBB_10  and  CBF_12 
REMARK    6  A    between atoms: CBF_12  and  CAR_13 
REMARK    7  A    between atoms: CBF_12  and  NAU_17 
REMARK    8  A    between atoms: CAR_13  and  CAZ_14 
REMARK       I    between atoms: NAU_17  and  CAX_18 
REMARK    9  A    between atoms: CAX_18  and  CAA_19 
REMARK   10  A    between atoms: P1_21  and  CAT_24 
REMARK   11  A    between atoms: CAT_24  and  CBD_25 
REMARK   12  A    between atoms: CBD_25  and  CAB_26 
REMARK   13  A    between atoms: CBD_25  and  CBA_27 
REMARK       I    between atoms: CBA_27  and  N_29 
REMARK   14  A    between atoms: N_29  and  CA_30 
REMARK   15  A    between atoms: CA_30  and  CB_31 
REMARK   16  A    between atoms: CA_30  and  C_32 
REMARK       I    between atoms: C_32  and  NAD_34 
ROOT
ATOM      1  CBG RX4 d          26.787  -0.093  44.000  0.00  0.00     0.091 C 
ATOM      2  H8  RX4 d          26.125  -0.584  43.272  0.00  0.00     0.089 H 
ENDROOT
BRANCH   1   3
ATOM      3  CAS RX4 d          28.210  -0.765  43.908  0.00  0.00    -0.013 C 
ATOM      4  H6  RX4 d          28.742  -0.414  43.011  0.00  0.00     0.044 H 
ATOM      5  H7  RX4 d          28.804  -0.531  44.803  0.00  0.00     0.044 H 
BRANCH   3   6
ATOM      6  CBC RX4 d          27.948  -2.290  43.817  0.00  0.00    -0.056 A 
ATOM      7  CAP RX4 d          28.933  -3.124  44.404  0.00  0.00    -0.077 A 
ATOM      8  CAN RX4 d          28.875  -4.511  44.369  0.00  0.00    -0.082 A 
ATOM      9  H1  RX4 d          29.772  -2.656  44.905  0.00  0.00     0.084 H 
ATOM     10  CAM RX4 d          27.766  -5.030  43.664  0.00  0.00    -0.083 A 
ATOM     11  H2  RX4 d          29.619  -5.142  44.842  0.00  0.00     0.083 H 
ATOM     12  CAO RX4 d          26.785  -4.224  43.039  0.00  0.00    -0.082 A 
ATOM     13  H3  RX4 d          27.661  -6.107  43.597  0.00  0.00     0.083 H 
ATOM     14  CAQ RX4 d          26.873  -2.824  43.109  0.00  0.00    -0.077 A 
ATOM     15  H4  RX4 d          25.963  -4.689  42.506  0.00  0.00     0.083 H 
ATOM     16  H5  RX4 d          26.137  -2.187  42.633  0.00  0.00     0.084 H 
ENDBRANCH   3   6
ENDBRANCH   1   3
BRANCH   1  17
ATOM     17  NAW RX4 d          26.866   1.336  43.714  0.00  0.00    -0.345 N 
ATOM     18  CBB RX4 d          27.943   1.996  44.148  0.00  0.00     0.241 C 
ATOM     19  OAI RX4 d          28.887   1.425  44.722  0.00  0.00    -0.271 OA
ATOM     20  H9  RX4 d          26.140   1.804  43.210  0.00  0.00     0.163 HD
BRANCH  18  21
ATOM     21  CBF RX4 d          27.943   3.534  44.133  0.00  0.00     0.098 C 
ATOM     22  H10 RX4 d          28.821   3.902  43.582  0.00  0.00     0.088 H 
BRANCH  21  23
ATOM     23  CAR RX4 d          27.989   4.105  45.515  0.00  0.00     0.043 C 
ATOM     24  H11 RX4 d          28.918   3.805  46.021  0.00  0.00     0.052 H 
ATOM     25  H12 RX4 d          27.123   3.759  46.100  0.00  0.00     0.052 H 
BRANCH  23  26
ATOM     26  CAZ RX4 d          27.942   5.642  45.346  0.00  0.00     0.175 C 
ATOM     27  OAK RX4 d          26.845   6.207  45.072  0.00  0.00    -0.648 OA
ATOM     28  OAG RX4 d          28.996   6.236  45.557  0.00  0.00    -0.648 OA
ENDBRANCH  23  26
ENDBRANCH  21  23
BRANCH  21  29
ATOM     29  NAU RX4 d          26.688   3.897  43.386  0.00  0.00    -0.348 N 
ATOM     30  CAX RX4 d          26.701   4.595  42.235  0.00  0.00     0.214 C 
ATOM     31  OAE RX4 d          27.743   5.047  41.703  0.00  0.00    -0.274 OA
ATOM     32  H13 RX4 d          25.808   3.608  43.760  0.00  0.00     0.163 HD
BRANCH  30  33
ATOM     33  CAA RX4 d          25.310   4.832  41.576  0.00  0.00    -0.003 C 
ATOM     34  H14 RX4 d          24.933   3.883  41.165  0.00  0.00     0.040 H 
ATOM     35  H15 RX4 d          25.408   5.569  40.766  0.00  0.00     0.040 H 
ATOM     36  H16 RX4 d          24.605   5.210  42.332  0.00  0.00     0.040 H 
ENDBRANCH  30  33
ENDBRANCH  21  29
ENDBRANCH  18  21
ENDBRANCH   1  17
BRANCH   1  37
ATOM     37  P1  RX4 d          26.057  -0.211  45.649  0.00  0.00     0.130 P 
ATOM     38  O4  RX4 d          27.138  -0.216  46.716  0.00  0.00    -0.666 OA
ATOM     39  O3  RX4 d          25.373  -1.532  45.918  0.00  0.00    -0.666 OA
BRANCH  37  40
ATOM     40  CAT RX4 d          24.972   1.195  45.847  0.00  0.00     0.020 C 
ATOM     41  H17 RX4 d          23.950   0.861  45.615  0.00  0.00     0.050 H 
ATOM     42  H18 RX4 d          25.282   1.959  45.119  0.00  0.00     0.050 H 
BRANCH  40  43
ATOM     43  CBD RX4 d          24.940   1.857  47.229  0.00  0.00     0.029 C 
ATOM     44  H19 RX4 d          24.236   1.328  47.890  0.00  0.00     0.054 H 
BRANCH  43  45
ATOM     45  CAB RX4 d          26.392   1.971  47.914  0.00  0.00    -0.064 C 
ATOM     46  H20 RX4 d          27.160   1.637  47.201  0.00  0.00     0.028 H 
ATOM     47  H21 RX4 d          26.424   1.338  48.812  0.00  0.00     0.028 H 
ATOM     48  H22 RX4 d          26.583   3.018  48.195  0.00  0.00     0.028 H 
ENDBRANCH  43  45
BRANCH  43  49
ATOM     49  CBA RX4 d          24.521   3.358  46.987  0.00  0.00     0.222 C 
ATOM     50  OAH RX4 d          24.649   3.870  45.864  0.00  0.00    -0.273 OA
ATOM     51  N   RX4 d          24.123   4.054  48.043  0.00  0.00    -0.348 N 
ATOM     52  H23 RX4 d          24.052   3.623  48.943  0.00  0.00     0.163 HD
BRANCH  51  53
ATOM     53  CA  RX4 d          23.781   5.513  47.856  0.00  0.00     0.086 C 
ATOM     54  H24 RX4 d          23.484   5.719  46.817  0.00  0.00     0.086 H 
BRANCH  53  55
ATOM     55  CB  RX4 d          22.651   5.908  48.818  0.00  0.00    -0.049 C 
ATOM     56  H25 RX4 d          22.425   6.978  48.698  0.00  0.00     0.030 H 
ATOM     57  H26 RX4 d          22.967   5.713  49.853  0.00  0.00     0.030 H 
ATOM     58  H27 RX4 d          21.752   5.315  48.590  0.00  0.00     0.030 H 
ENDBRANCH  53  55
BRANCH  53  59
ATOM     59  C   RX4 d          25.087   6.292  48.233  0.00  0.00     0.237 C 
ATOM     60  O   RX4 d          25.712   5.982  49.303  0.00  0.00    -0.271 OA
ATOM     61  NAD RX4 d          25.516   7.224  47.401  0.00  0.00    -0.368 N 
ATOM     62  H28 RX4 d          26.347   7.739  47.612  0.00  0.00     0.159 HD
ATOM     63  H29 RX4 d          25.010   7.414  46.559  0.00  0.00     0.159 HD
ENDBRANCH  53  59
ENDBRANCH  51  53
ENDBRANCH  43  49
ENDBRANCH  40  43
ENDBRANCH  37  40
ENDBRANCH   1  37
TORSDOF 16
ENDMDL
MODEL 10
REMARK VINA RESULT:      -4.4      3.605      6.838
REMARK  16 active torsions:
REMARK  status: ('A' for Active; 'I' for Inactive)
REMARK    1  A    between atoms: CBC_6  and  CAS_7 
REMARK    2  A    between atoms: CAS_7  and  CBG_8 
REMARK    3  A    between atoms: CBG_8  and  NAW_9 
REMARK    4  A    between atoms: CBG_8  and  P1_21 
REMARK       I    between atoms: NAW_9  and  CBB_10 
REMARK    5  A    between atoms: CBB_10  and  CBF_12 
REMARK    6  A    between atoms: CBF_12  and  CAR_13 
REMARK    7  A    between atoms: CBF_12  and  NAU_17 
REMARK    8  A    between atoms: CAR_13  and  CAZ_14 
REMARK       I    between atoms: NAU_17  and  CAX_18 
REMARK    9  A    between atoms: CAX_18  and  CAA_19 
REMARK   10  A    between atoms: P1_21  and  CAT_24 
REMARK   11  A    between atoms: CAT_24  and  CBD_25 
REMARK   12  A    between atoms: CBD_25  and  CAB_26 
REMARK   13  A    between atoms: CBD_25  and  CBA_27 
REMARK       I    between atoms: CBA_27  and  N_29 
REMARK   14  A    between atoms: N_29  and  CA_30 
REMARK   15  A    between atoms: CA_30  and  CB_31 
REMARK   16  A    between atoms: CA_30  and  C_32 
REMARK       I    between atoms: C_32  and  NAD_34 
ROOT
ATOM      1  CBG RX4 d          26.491   2.315  45.198  0.00  0.00     0.091 C 
ATOM      2  H8  RX4 d          25.751   1.646  45.663  0.00  0.00     0.089 H 
ENDROOT
BRANCH   1   3
ATOM      3  CAS RX4 d          27.180   1.541  44.010  0.00  0.00    -0.013 C 
ATOM      4  H6  RX4 d          26.652   1.738  43.066  0.00  0.00     0.044 H 
ATOM      5  H7  RX4 d          28.232   1.846  43.913  0.00  0.00     0.044 H 
BRANCH   3   6
ATOM      6  CBC RX4 d          27.086   0.038  44.378  0.00  0.00    -0.056 A 
ATOM      7  CAP RX4 d          28.105  -0.795  43.851  0.00  0.00    -0.077 A 
ATOM      8  CAN RX4 d          28.141  -2.169  44.045  0.00  0.00    -0.082 A 
ATOM      9  H1  RX4 d          28.895  -0.336  43.268  0.00  0.00     0.084 H 
ATOM     10  CAM RX4 d          27.052  -2.682  44.786  0.00  0.00    -0.083 A 
ATOM     11  H2  RX4 d          28.938  -2.796  43.661  0.00  0.00     0.083 H 
ATOM     12  CAO RX4 d          26.004  -1.881  45.297  0.00  0.00    -0.082 A 
ATOM     13  H3  RX4 d          27.019  -3.748  44.974  0.00  0.00     0.083 H 
ATOM     14  CAQ RX4 d          26.011  -0.492  45.089  0.00  0.00    -0.077 A 
ATOM     15  H4  RX4 d          25.193  -2.341  45.850  0.00  0.00     0.083 H 
ATOM     16  H5  RX4 d          25.215   0.140  45.466  0.00  0.00     0.084 H 
ENDBRANCH   3   6
ENDBRANCH   1   3
BRANCH   1  17
ATOM     17  NAW RX4 d          25.831   3.525  44.718  0.00  0.00    -0.345 N 
ATOM     18  CBB RX4 d          25.922   3.805  43.414  0.00  0.00     0.241 C 
ATOM     19  OAI RX4 d          26.488   3.044  42.609  0.00  0.00    -0.271 OA
ATOM     20  H9  RX4 d          25.328   4.123  45.342  0.00  0.00     0.163 HD
BRANCH  18  21
ATOM     21  CBF RX4 d          25.504   5.196  42.910  0.00  0.00     0.098 C 
ATOM     22  H10 RX4 d          25.226   5.139  41.847  0.00  0.00     0.088 H 
BRANCH  21  23
ATOM     23  CAR RX4 d          26.608   6.195  43.049  0.00  0.00     0.043 C 
ATOM     24  H11 RX4 d          27.369   5.825  43.753  0.00  0.00     0.052 H 
ATOM     25  H12 RX4 d          26.210   7.155  43.409  0.00  0.00     0.052 H 
BRANCH  23  26
ATOM     26  CAZ RX4 d          27.217   6.362  41.637  0.00  0.00     0.175 C 
ATOM     27  OAK RX4 d          28.437   6.671  41.517  0.00  0.00    -0.648 OA
ATOM     28  OAG RX4 d          26.466   6.114  40.698  0.00  0.00    -0.648 OA
ENDBRANCH  23  26
ENDBRANCH  21  23
BRANCH  21  29
ATOM     29  NAU RX4 d          24.290   5.539  43.730  0.00  0.00    -0.348 N 
ATOM     30  CAX RX4 d          24.357   6.254  44.868  0.00  0.00     0.214 C 
ATOM     31  OAE RX4 d          25.429   6.661  45.377  0.00  0.00    -0.274 OA
ATOM     32  H13 RX4 d          23.395   5.221  43.417  0.00  0.00     0.163 HD
BRANCH  30  33
ATOM     33  CAA RX4 d          22.992   6.557  45.554  0.00  0.00    -0.003 C 
ATOM     34  H14 RX4 d          23.049   6.291  46.619  0.00  0.00     0.040 H 
ATOM     35  H15 RX4 d          22.200   5.967  45.071  0.00  0.00     0.040 H 
ATOM     36  H16 RX4 d          22.762   7.629  45.456  0.00  0.00     0.040 H 
ENDBRANCH  30  33
ENDBRANCH  21  29
ENDBRANCH  18  21
ENDBRANCH   1  17
BRANCH   1  37
ATOM     37  P1  RX4 d          27.665   2.875  46.451  0.00  0.00     0.130 P 
ATOM     38  O4  RX4 d          28.961   2.089  46.363  0.00  0.00    -0.666 OA
ATOM     39  O3  RX4 d          27.233   2.570  47.868  0.00  0.00    -0.666 OA
BRANCH  37  40
ATOM     40  CAT RX4 d          27.954   4.615  46.164  0.00  0.00     0.020 C 
ATOM     41  H17 RX4 d          26.980   5.086  45.970  0.00  0.00     0.050 H 
ATOM     42  H18 RX4 d          28.589   4.703  45.270  0.00  0.00     0.050 H 
BRANCH  40  43
ATOM     43  CBD RX4 d          28.631   5.401  47.292  0.00  0.00     0.029 C 
ATOM     44  H19 RX4 d          29.393   4.781  47.787  0.00  0.00     0.054 H 
BRANCH  43  45
ATOM     45  CAB RX4 d          29.260   6.800  46.805  0.00  0.00    -0.064 C 
ATOM     46  H20 RX4 d          29.798   6.649  45.858  0.00  0.00     0.028 H 
ATOM     47  H21 RX4 d          29.958   7.173  47.568  0.00  0.00     0.028 H 
ATOM     48  H22 RX4 d          28.453   7.533  46.656  0.00  0.00     0.028 H 
ENDBRANCH  43  45
BRANCH  43  49
ATOM     49  CBA RX4 d          27.478   5.833  48.279  0.00  0.00     0.222 C 
ATOM     50  OAH RX4 d          27.742   6.485  49.301  0.00  0.00    -0.273 OA
ATOM     51  N   RX4 d          26.256   5.390  48.014  0.00  0.00    -0.348 N 
ATOM     52  H23 RX4 d          26.076   4.845  47.196  0.00  0.00     0.163 HD
BRANCH  51  53
ATOM     53  CA  RX4 d          25.144   5.730  48.978  0.00  0.00     0.086 C 
ATOM     54  H24 RX4 d          25.449   5.536  50.017  0.00  0.00     0.086 H 
BRANCH  53  55
ATOM     55  CB  RX4 d          24.745   7.203  48.809  0.00  0.00    -0.049 C 
ATOM     56  H25 RX4 d          23.830   7.403  49.387  0.00  0.00     0.030 H 
ATOM     57  H26 RX4 d          24.560   7.413  47.745  0.00  0.00     0.030 H 
ATOM     58  H27 RX4 d          25.558   7.848  49.175  0.00  0.00     0.030 H 
ENDBRANCH  53  55
BRANCH  53  59
ATOM     59  C   RX4 d          23.946   4.810  48.561  0.00  0.00     0.237 C 
ATOM     60  O   RX4 d          22.751   5.239  48.701  0.00  0.00    -0.271 OA
ATOM     61  NAD RX4 d          24.224   3.629  48.039  0.00  0.00    -0.368 N 
ATOM     62  H28 RX4 d          23.482   3.018  47.761  0.00  0.00     0.159 HD
ATOM     63  H29 RX4 d          25.176   3.345  47.921  0.00  0.00     0.159 HD
ENDBRANCH  53  59
ENDBRANCH  51  53
ENDBRANCH  43  49
ENDBRANCH  40  43
ENDBRANCH  37  40
ENDBRANCH   1  37
TORSDOF 16
ENDMDL
