MODEL 1
REMARK VINA RESULT:      -5.9      0.000      0.000
REMARK  5 active torsions:
REMARK  status: ('A' for Active; 'I' for Inactive)
REMARK    1  A    between atoms: C2_2  and  O2_8 
REMARK    2  A    between atoms: C3_3  and  O3_9 
REMARK    3  A    between atoms: C4_4  and  O4_10 
REMARK    4  A    between atoms: C5_5  and  C6_6 
REMARK    5  A    between atoms: C6_6  and  O6_12 
ROOT
ATOM      1  C1  MOL d         -10.338 -29.681 -28.889  0.00  0.00     0.291 C 
ATOM      2  C2  MOL d         -11.423 -28.868 -28.166  0.00  0.00     0.146 C 
ATOM      3  C3  MOL d         -10.912 -28.428 -26.794  0.00  0.00     0.096 C 
ATOM      4  C4  MOL d         -10.383 -29.629 -26.014  0.00  0.00     0.090 C 
ATOM      5  C5  MOL d          -9.103 -30.127 -26.712  0.00  0.00     0.095 C 
ATOM      6  O1  MOL d         -10.398 -29.833 -30.082  0.00  0.00    -0.262 OA
ATOM      7  O5  MOL d          -9.289 -30.245 -28.181  0.00  0.00    -0.309 OA
ATOM      8  H1  MOL d         -12.322 -29.490 -28.044  0.00  0.00     0.103 H 
ATOM      9  H2  MOL d         -10.100 -27.699 -26.926  0.00  0.00     0.091 H 
ATOM     10  H3  MOL d         -10.152 -29.328 -24.981  0.00  0.00     0.091 H 
ATOM     11  H4  MOL d          -8.294 -29.410 -26.511  0.00  0.00     0.091 H 
ENDROOT
BRANCH   5  12
ATOM     12  C6  MOL d          -8.705 -31.502 -26.176  0.00  0.00     0.044 C 
ATOM     13  H5  MOL d          -7.661 -31.711 -26.453  0.00  0.00     0.078 H 
ATOM     14  H6  MOL d          -9.362 -32.267 -26.615  0.00  0.00     0.078 H 
BRANCH  12  15
ATOM     15  O6  MOL d          -8.830 -31.532 -24.756  0.00  0.00    -0.398 OA
ATOM     16  H10 MOL d          -8.050 -31.921 -24.378  0.00  0.00     0.209 HD
ENDBRANCH  12  15
ENDBRANCH   5  12
BRANCH   4  17
ATOM     17  O4  MOL d         -11.365 -30.674 -25.999  0.00  0.00    -0.390 OA
ATOM     18  H9  MOL d         -11.212 -31.241 -25.253  0.00  0.00     0.210 HD
ENDBRANCH   4  17
BRANCH   3  19
ATOM     19  O3  MOL d         -11.975 -27.823 -26.086  0.00  0.00    -0.390 OA
ATOM     20  H8  MOL d         -12.698 -28.435 -26.017  0.00  0.00     0.210 HD
ENDBRANCH   3  19
BRANCH   2  21
ATOM     21  O2  MOL d         -11.749 -27.693 -28.926  0.00  0.00    -0.383 OA
ATOM     22  H7  MOL d         -11.581 -27.856 -29.847  0.00  0.00     0.210 HD
ENDBRANCH   2  21
TORSDOF 5
ENDMDL
MODEL 2
REMARK VINA RESULT:      -5.4      1.439      3.922
REMARK  5 active torsions:
REMARK  status: ('A' for Active; 'I' for Inactive)
REMARK    1  A    between atoms: C2_2  and  O2_8 
REMARK    2  A    between atoms: C3_3  and  O3_9 
REMARK    3  A    between atoms: C4_4  and  O4_10 
REMARK    4  A    between atoms: C5_5  and  C6_6 
REMARK    5  A    between atoms: C6_6  and  O6_12 
ROOT
ATOM      1  C1  MOL d         -10.886 -27.833 -26.626  0.00  0.00     0.291 C 
ATOM      2  C2  MOL d          -9.994 -28.874 -25.932  0.00  0.00     0.146 C 
ATOM      3  C3  MOL d          -9.025 -29.483 -26.946  0.00  0.00     0.096 C 
ATOM      4  C4  MOL d          -9.786 -30.000 -28.164  0.00  0.00     0.090 C 
ATOM      5  C5  MOL d         -10.357 -28.786 -28.922  0.00  0.00     0.095 C 
ATOM      6  O1  MOL d         -11.472 -27.011 -25.968  0.00  0.00    -0.262 OA
ATOM      7  O5  MOL d         -11.027 -27.830 -28.004  0.00  0.00    -0.309 OA
ATOM      8  H1  MOL d         -10.625 -29.665 -25.502  0.00  0.00     0.103 H 
ATOM      9  H2  MOL d          -8.308 -28.715 -27.270  0.00  0.00     0.091 H 
ATOM     10  H3  MOL d          -9.104 -30.561 -28.819  0.00  0.00     0.091 H 
ATOM     11  H4  MOL d          -9.529 -28.272 -29.432  0.00  0.00     0.091 H 
ENDROOT
BRANCH   5  12
ATOM     12  C6  MOL d         -11.384 -29.241 -29.959  0.00  0.00     0.044 C 
ATOM     13  H5  MOL d         -11.674 -28.382 -30.583  0.00  0.00     0.078 H 
ATOM     14  H6  MOL d         -12.271 -29.636 -29.443  0.00  0.00     0.078 H 
BRANCH  12  15
ATOM     15  O6  MOL d         -10.829 -30.259 -30.789  0.00  0.00    -0.398 OA
ATOM     16  H10 MOL d         -10.447 -29.863 -31.563  0.00  0.00     0.209 HD
ENDBRANCH  12  15
ENDBRANCH   5  12
BRANCH   4  17
ATOM     17  O4  MOL d         -10.858 -30.856 -27.744  0.00  0.00    -0.390 OA
ATOM     18  H9  MOL d         -11.084 -31.449 -28.450  0.00  0.00     0.210 HD
ENDBRANCH   4  17
BRANCH   3  19
ATOM     19  O3  MOL d          -8.328 -30.545 -26.327  0.00  0.00    -0.390 OA
ATOM     20  H8  MOL d          -8.829 -31.347 -26.418  0.00  0.00     0.210 HD
ENDBRANCH   3  19
BRANCH   2  21
ATOM     21  O2  MOL d          -9.225 -28.250 -24.890  0.00  0.00    -0.383 OA
ATOM     22  H7  MOL d          -9.789 -27.678 -24.382  0.00  0.00     0.210 HD
ENDBRANCH   2  21
TORSDOF 5
ENDMDL
MODEL 3
REMARK VINA RESULT:      -4.6      1.234      4.184
REMARK  5 active torsions:
REMARK  status: ('A' for Active; 'I' for Inactive)
REMARK    1  A    between atoms: C2_2  and  O2_8 
REMARK    2  A    between atoms: C3_3  and  O3_9 
REMARK    3  A    between atoms: C4_4  and  O4_10 
REMARK    4  A    between atoms: C5_5  and  C6_6 
REMARK    5  A    between atoms: C6_6  and  O6_12 
ROOT
ATOM      1  C1  MOL d         -11.314 -30.906 -26.184  0.00  0.00     0.291 C 
ATOM      2  C2  MOL d          -9.779 -30.848 -26.185  0.00  0.00     0.146 C 
ATOM      3  C3  MOL d          -9.314 -29.427 -26.506  0.00  0.00     0.096 C 
ATOM      4  C4  MOL d          -9.977 -28.928 -27.788  0.00  0.00     0.090 C 
ATOM      5  C5  MOL d         -11.480 -28.742 -27.508  0.00  0.00     0.095 C 
ATOM      6  O1  MOL d         -11.879 -31.819 -25.638  0.00  0.00    -0.262 OA
ATOM      7  O5  MOL d         -12.059 -29.917 -26.807  0.00  0.00    -0.309 OA
ATOM      8  H1  MOL d          -9.389 -31.544 -26.943  0.00  0.00     0.103 H 
ATOM      9  H2  MOL d          -9.588 -28.760 -25.677  0.00  0.00     0.091 H 
ATOM     10  H3  MOL d          -9.531 -27.968 -28.087  0.00  0.00     0.091 H 
ATOM     11  H4  MOL d         -11.611 -27.850 -26.879  0.00  0.00     0.091 H 
ENDROOT
BRANCH   5  12
ATOM     12  C6  MOL d         -12.246 -28.553 -28.817  0.00  0.00     0.044 C 
ATOM     13  H5  MOL d         -13.118 -27.907 -28.638  0.00  0.00     0.078 H 
ATOM     14  H6  MOL d         -12.584 -29.533 -29.185  0.00  0.00     0.078 H 
BRANCH  12  15
ATOM     15  O6  MOL d         -11.405 -27.946 -29.797  0.00  0.00    -0.398 OA
ATOM     16  H10 MOL d         -11.840 -27.181 -30.156  0.00  0.00     0.209 HD
ENDBRANCH  12  15
ENDBRANCH   5  12
BRANCH   4  17
ATOM     17  O4  MOL d          -9.794 -29.888 -28.838  0.00  0.00    -0.390 OA
ATOM     18  H9  MOL d         -10.626 -30.305 -29.033  0.00  0.00     0.210 HD
ENDBRANCH   4  17
BRANCH   3  19
ATOM     19  O3  MOL d          -7.909 -29.432 -26.660  0.00  0.00    -0.390 OA
ATOM     20  H8  MOL d          -7.512 -29.871 -25.918  0.00  0.00     0.210 HD
ENDBRANCH   3  19
BRANCH   2  21
ATOM     21  O2  MOL d          -9.269 -31.210 -24.892  0.00  0.00    -0.383 OA
ATOM     22  H7  MOL d          -9.059 -30.422 -24.404  0.00  0.00     0.210 HD
ENDBRANCH   2  21
TORSDOF 5
ENDMDL
MODEL 4
REMARK VINA RESULT:      -4.5      1.416      3.644
REMARK  5 active torsions:
REMARK  status: ('A' for Active; 'I' for Inactive)
REMARK    1  A    between atoms: C2_2  and  O2_8 
REMARK    2  A    between atoms: C3_3  and  O3_9 
REMARK    3  A    between atoms: C4_4  and  O4_10 
REMARK    4  A    between atoms: C5_5  and  C6_6 
REMARK    5  A    between atoms: C6_6  and  O6_12 
ROOT
ATOM      1  C1  MOL d          -9.107 -30.748 -27.413  0.00  0.00     0.291 C 
ATOM      2  C2  MOL d          -9.036 -29.617 -26.375  0.00  0.00     0.146 C 
ATOM      3  C3  MOL d         -10.385 -28.903 -26.294  0.00  0.00     0.096 C 
ATOM      4  C4  MOL d         -10.842 -28.470 -27.684  0.00  0.00     0.090 C 
ATOM      5  C5  MOL d         -11.173 -29.737 -28.496  0.00  0.00     0.095 C 
ATOM      6  O1  MOL d          -8.287 -31.630 -27.396  0.00  0.00    -0.262 OA
ATOM      7  O5  MOL d         -10.106 -30.763 -28.373  0.00  0.00    -0.309 OA
ATOM      8  H1  MOL d          -8.255 -28.901 -26.671  0.00  0.00     0.103 H 
ATOM      9  H2  MOL d         -11.133 -29.587 -25.867  0.00  0.00     0.091 H 
ATOM     10  H3  MOL d         -11.737 -27.836 -27.601  0.00  0.00     0.091 H 
ATOM     11  H4  MOL d         -12.118 -30.156 -28.119  0.00  0.00     0.091 H 
ENDROOT
BRANCH   5  12
ATOM     12  C6  MOL d         -11.329 -29.395 -29.977  0.00  0.00     0.044 C 
ATOM     13  H5  MOL d         -10.983 -28.365 -30.150  0.00  0.00     0.078 H 
ATOM     14  H6  MOL d         -12.389 -29.478 -30.259  0.00  0.00     0.078 H 
BRANCH  12  15
ATOM     15  O6  MOL d         -10.558 -30.291 -30.775  0.00  0.00    -0.398 OA
ATOM     16  H10 MOL d         -11.136 -30.919 -31.193  0.00  0.00     0.209 HD
ENDBRANCH  12  15
ENDBRANCH   5  12
BRANCH   4  17
ATOM     17  O4  MOL d          -9.795 -27.737 -28.336  0.00  0.00    -0.390 OA
ATOM     18  H9  MOL d         -10.013 -27.625 -29.254  0.00  0.00     0.210 HD
ENDBRANCH   4  17
BRANCH   3  19
ATOM     19  O3  MOL d         -10.251 -27.773 -25.456  0.00  0.00    -0.390 OA
ATOM     20  H8  MOL d         -11.039 -27.245 -25.510  0.00  0.00     0.210 HD
ENDBRANCH   3  19
BRANCH   2  21
ATOM     21  O2  MOL d          -8.729 -30.156 -25.078  0.00  0.00    -0.383 OA
ATOM     22  H7  MOL d          -7.814 -30.409 -25.051  0.00  0.00     0.210 HD
ENDBRANCH   2  21
TORSDOF 5
ENDMDL
MODEL 5
REMARK VINA RESULT:      -4.3      1.329      3.872
REMARK  5 active torsions:
REMARK  status: ('A' for Active; 'I' for Inactive)
REMARK    1  A    between atoms: C2_2  and  O2_8 
REMARK    2  A    between atoms: C3_3  and  O3_9 
REMARK    3  A    between atoms: C4_4  and  O4_10 
REMARK    4  A    between atoms: C5_5  and  C6_6 
REMARK    5  A    between atoms: C6_6  and  O6_12 
ROOT
ATOM      1  C1  MOL d          -9.365 -29.700 -26.972  0.00  0.00     0.291 C 
ATOM      2  C2  MOL d         -10.156 -30.423 -25.871  0.00  0.00     0.146 C 
ATOM      3  C3  MOL d         -11.416 -31.052 -26.465  0.00  0.00     0.096 C 
ATOM      4  C4  MOL d         -12.211 -30.010 -27.248  0.00  0.00     0.090 C 
ATOM      5  C5  MOL d         -11.397 -29.626 -28.498  0.00  0.00     0.095 C 
ATOM      6  O1  MOL d          -8.204 -29.433 -26.799  0.00  0.00    -0.262 OA
ATOM      7  O5  MOL d          -9.976 -29.349 -28.165  0.00  0.00    -0.309 OA
ATOM      8  H1  MOL d         -10.437 -29.700 -25.090  0.00  0.00     0.103 H 
ATOM      9  H2  MOL d         -11.129 -31.869 -27.144  0.00  0.00     0.091 H 
ATOM     10  H3  MOL d         -13.181 -30.432 -27.550  0.00  0.00     0.091 H 
ATOM     11  H4  MOL d         -11.441 -30.460 -29.214  0.00  0.00     0.091 H 
ENDROOT
BRANCH   5  12
ATOM     12  C6  MOL d         -11.980 -28.372 -29.149  0.00  0.00     0.044 C 
ATOM     13  H5  MOL d         -12.300 -27.671 -28.364  0.00  0.00     0.078 H 
ATOM     14  H6  MOL d         -12.847 -28.653 -29.766  0.00  0.00     0.078 H 
BRANCH  12  15
ATOM     15  O6  MOL d         -11.001 -27.742 -29.972  0.00  0.00    -0.398 OA
ATOM     16  H10 MOL d         -11.308 -27.725 -30.871  0.00  0.00     0.209 HD
ENDBRANCH  12  15
ENDBRANCH   5  12
BRANCH   4  17
ATOM     17  O4  MOL d         -12.427 -28.848 -26.435  0.00  0.00    -0.390 OA
ATOM     18  H9  MOL d         -12.231 -28.068 -26.940  0.00  0.00     0.210 HD
ENDBRANCH   4  17
BRANCH   3  19
ATOM     19  O3  MOL d         -12.205 -31.571 -25.414  0.00  0.00    -0.390 OA
ATOM     20  H8  MOL d         -11.916 -31.200 -24.589  0.00  0.00     0.210 HD
ENDBRANCH   3  19
BRANCH   2  21
ATOM     21  O2  MOL d          -9.357 -31.469 -25.294  0.00  0.00    -0.383 OA
ATOM     22  H7  MOL d          -8.794 -31.841 -25.962  0.00  0.00     0.210 HD
ENDBRANCH   2  21
TORSDOF 5
ENDMDL
MODEL 6
REMARK VINA RESULT:      -3.8      1.064      2.665
REMARK  5 active torsions:
REMARK  status: ('A' for Active; 'I' for Inactive)
REMARK    1  A    between atoms: C2_2  and  O2_8 
REMARK    2  A    between atoms: C3_3  and  O3_9 
REMARK    3  A    between atoms: C4_4  and  O4_10 
REMARK    4  A    between atoms: C5_5  and  C6_6 
REMARK    5  A    between atoms: C6_6  and  O6_12 
ROOT
ATOM      1  C1  MOL d         -11.636 -28.936 -26.466  0.00  0.00     0.291 C 
ATOM      2  C2  MOL d         -11.264 -28.204 -27.765  0.00  0.00     0.146 C 
ATOM      3  C3  MOL d         -10.610 -29.181 -28.741  0.00  0.00     0.096 C 
ATOM      4  C4  MOL d          -9.455 -29.916 -28.064  0.00  0.00     0.090 C 
ATOM      5  C5  MOL d         -10.044 -30.848 -26.989  0.00  0.00     0.095 C 
ATOM      6  O1  MOL d         -12.443 -28.452 -25.715  0.00  0.00    -0.262 OA
ATOM      7  O5  MOL d         -11.048 -30.150 -26.146  0.00  0.00    -0.309 OA
ATOM      8  H1  MOL d         -10.563 -27.387 -27.534  0.00  0.00     0.103 H 
ATOM      9  H2  MOL d         -11.356 -29.917 -29.074  0.00  0.00     0.091 H 
ATOM     10  H3  MOL d          -8.903 -30.507 -28.810  0.00  0.00     0.091 H 
ATOM     11  H4  MOL d         -10.528 -31.698 -27.491  0.00  0.00     0.091 H 
ENDROOT
BRANCH   5  12
ATOM     12  C6  MOL d          -8.939 -31.367 -26.071  0.00  0.00     0.044 C 
ATOM     13  H5  MOL d          -8.016 -31.503 -26.654  0.00  0.00     0.078 H 
ATOM     14  H6  MOL d          -9.247 -32.332 -25.641  0.00  0.00     0.078 H 
BRANCH  12  15
ATOM     15  O6  MOL d          -8.696 -30.438 -25.016  0.00  0.00    -0.398 OA
ATOM     16  H10 MOL d          -7.797 -30.523 -24.721  0.00  0.00     0.209 HD
ENDBRANCH  12  15
ENDBRANCH   5  12
BRANCH   4  17
ATOM     17  O4  MOL d          -8.567 -28.970 -27.452  0.00  0.00    -0.390 OA
ATOM     18  H9  MOL d          -7.764 -28.918 -27.957  0.00  0.00     0.210 HD
ENDBRANCH   4  17
BRANCH   3  19
ATOM     19  O3  MOL d         -10.133 -28.458 -29.858  0.00  0.00    -0.390 OA
ATOM     20  H8  MOL d          -9.217 -28.663 -29.999  0.00  0.00     0.210 HD
ENDBRANCH   3  19
BRANCH   2  21
ATOM     21  O2  MOL d         -12.443 -27.666 -28.385  0.00  0.00    -0.383 OA
ATOM     22  H7  MOL d         -12.240 -26.822 -28.769  0.00  0.00     0.210 HD
ENDBRANCH   2  21
TORSDOF 5
ENDMDL
MODEL 7
REMARK VINA RESULT:      -3.4      1.404      3.981
REMARK  5 active torsions:
REMARK  status: ('A' for Active; 'I' for Inactive)
REMARK    1  A    between atoms: C2_2  and  O2_8 
REMARK    2  A    between atoms: C3_3  and  O3_9 
REMARK    3  A    between atoms: C4_4  and  O4_10 
REMARK    4  A    between atoms: C5_5  and  C6_6 
REMARK    5  A    between atoms: C6_6  and  O6_12 
ROOT
ATOM      1  C1  MOL d          -9.637 -29.833 -26.247  0.00  0.00     0.291 C 
ATOM      2  C2  MOL d          -9.556 -30.702 -27.512  0.00  0.00     0.146 C 
ATOM      3  C3  MOL d          -9.928 -29.869 -28.738  0.00  0.00     0.096 C 
ATOM      4  C4  MOL d         -11.270 -29.173 -28.521  0.00  0.00     0.090 C 
ATOM      5  C5  MOL d         -11.085 -28.107 -27.425  0.00  0.00     0.095 C 
ATOM      6  O1  MOL d          -9.075 -30.184 -25.241  0.00  0.00    -0.262 OA
ATOM      7  O5  MOL d         -10.354 -28.647 -26.250  0.00  0.00    -0.309 OA
ATOM      8  H1  MOL d         -10.252 -31.549 -27.416  0.00  0.00     0.103 H 
ATOM      9  H2  MOL d          -9.152 -29.108 -28.908  0.00  0.00     0.091 H 
ATOM     10  H3  MOL d         -11.595 -28.695 -29.456  0.00  0.00     0.091 H 
ATOM     11  H4  MOL d         -10.513 -27.267 -27.847  0.00  0.00     0.091 H 
ENDROOT
BRANCH   5  12
ATOM     12  C6  MOL d         -12.443 -27.600 -26.941  0.00  0.00     0.044 C 
ATOM     13  H5  MOL d         -13.187 -28.404 -27.041  0.00  0.00     0.078 H 
ATOM     14  H6  MOL d         -12.749 -26.739 -27.554  0.00  0.00     0.078 H 
BRANCH  12  15
ATOM     15  O6  MOL d         -12.363 -27.200 -25.575  0.00  0.00    -0.398 OA
ATOM     16  H10 MOL d         -11.482 -26.897 -25.386  0.00  0.00     0.209 HD
ENDBRANCH  12  15
ENDBRANCH   5  12
BRANCH   4  17
ATOM     17  O4  MOL d         -12.254 -30.130 -28.105  0.00  0.00    -0.390 OA
ATOM     18  H9  MOL d         -12.561 -30.616 -28.862  0.00  0.00     0.210 HD
ENDBRANCH   4  17
BRANCH   3  19
ATOM     19  O3  MOL d         -10.002 -30.722 -29.862  0.00  0.00    -0.390 OA
ATOM     20  H8  MOL d          -9.649 -30.274 -30.622  0.00  0.00     0.210 HD
ENDBRANCH   3  19
BRANCH   2  21
ATOM     21  O2  MOL d          -8.218 -31.196 -27.687  0.00  0.00    -0.383 OA
ATOM     22  H7  MOL d          -8.078 -31.407 -28.603  0.00  0.00     0.210 HD
ENDBRANCH   2  21
TORSDOF 5
ENDMDL
MODEL 8
REMARK VINA RESULT:      -3.0      1.604      3.039
REMARK  5 active torsions:
REMARK  status: ('A' for Active; 'I' for Inactive)
REMARK    1  A    between atoms: C2_2  and  O2_8 
REMARK    2  A    between atoms: C3_3  and  O3_9 
REMARK    3  A    between atoms: C4_4  and  O4_10 
REMARK    4  A    between atoms: C5_5  and  C6_6 
REMARK    5  A    between atoms: C6_6  and  O6_12 
ROOT
ATOM      1  C1  MOL d         -11.129 -28.387 -28.909  0.00  0.00     0.291 C 
ATOM      2  C2  MOL d         -10.194 -29.514 -29.372  0.00  0.00     0.146 C 
ATOM      3  C3  MOL d          -9.976 -30.509 -28.232  0.00  0.00     0.096 C 
ATOM      4  C4  MOL d          -9.526 -29.780 -26.969  0.00  0.00     0.090 C 
ATOM      5  C5  MOL d         -10.705 -28.929 -26.461  0.00  0.00     0.095 C 
ATOM      6  O1  MOL d         -11.690 -27.700 -29.724  0.00  0.00    -0.262 OA
ATOM      7  O5  MOL d         -11.335 -28.150 -27.559  0.00  0.00    -0.309 OA
ATOM      8  H1  MOL d          -9.228 -29.083 -29.676  0.00  0.00     0.103 H 
ATOM      9  H2  MOL d         -10.919 -31.036 -28.025  0.00  0.00     0.091 H 
ATOM     10  H3  MOL d          -9.235 -30.511 -26.201  0.00  0.00     0.091 H 
ATOM     11  H4  MOL d         -11.457 -29.600 -26.022  0.00  0.00     0.091 H 
ENDROOT
BRANCH   5  12
ATOM     12  C6  MOL d         -10.229 -27.940 -25.397  0.00  0.00     0.044 C 
ATOM     13  H5  MOL d         -11.029 -27.791 -24.657  0.00  0.00     0.078 H 
ATOM     14  H6  MOL d          -9.987 -26.980 -25.876  0.00  0.00     0.078 H 
BRANCH  12  15
ATOM     15  O6  MOL d          -9.069 -28.444 -24.739  0.00  0.00    -0.398 OA
ATOM     16  H10 MOL d          -8.327 -27.882 -24.932  0.00  0.00     0.209 HD
ENDBRANCH  12  15
ENDBRANCH   5  12
BRANCH   4  17
ATOM     17  O4  MOL d          -8.409 -28.930 -27.267  0.00  0.00    -0.390 OA
ATOM     18  H9  MOL d          -8.397 -28.199 -26.661  0.00  0.00     0.210 HD
ENDBRANCH   4  17
BRANCH   3  19
ATOM     19  O3  MOL d          -8.992 -31.445 -28.626  0.00  0.00    -0.390 OA
ATOM     20  H8  MOL d          -8.620 -31.855 -27.854  0.00  0.00     0.210 HD
ENDBRANCH   3  19
BRANCH   2  21
ATOM     21  O2  MOL d         -10.778 -30.217 -30.481  0.00  0.00    -0.383 OA
ATOM     22  H7  MOL d         -11.695 -30.386 -30.300  0.00  0.00     0.210 HD
ENDBRANCH   2  21
TORSDOF 5
ENDMDL
