MODEL 1
REMARK VINA RESULT:      -6.7      0.000      0.000
REMARK  6 active torsions:
REMARK  status: ('A' for Active; 'I' for Inactive)
REMARK    1  A    between atoms: N1_2  and  O7_5 
REMARK    2  A    between atoms: C2_3  and  O2_6 
REMARK    3  A    between atoms: C3_7  and  O3_8 
REMARK    4  A    between atoms: C4_9  and  O4_10 
REMARK    5  A    between atoms: C5_11  and  C6_12 
REMARK    6  A    between atoms: C6_12  and  O6_13 
ROOT
ATOM      1  C1  GOX d           0.115  11.146  10.264  0.00  0.00     0.159 C 
ATOM      2  N1  GOX d           0.436  10.877  11.514  0.00  0.00    -0.120 NA
ATOM      3  C2  GOX d           1.254  11.795   9.454  0.00  0.00     0.121 C 
ATOM      4  N5  GOX d          -1.168  10.837   9.771  0.00  0.00    -0.365 N 
ATOM      5  C3  GOX d           0.699  12.280   8.117  0.00  0.00     0.094 C 
ATOM      6  C4  GOX d          -0.198  11.206   7.493  0.00  0.00     0.084 C 
ATOM      7  C5  GOX d          -1.480  11.164   8.373  0.00  0.00     0.058 C 
ATOM      8  H1  GOX d           2.030  11.038   9.264  0.00  0.00     0.099 H 
ATOM      9  H2  GOX d          -1.872  10.390  10.377  0.00  0.00     0.161 HD
ATOM     10  H5  GOX d           0.118  13.202   8.261  0.00  0.00     0.091 H 
ATOM     11  H7  GOX d           0.307  10.229   7.522  0.00  0.00     0.090 H 
ATOM     12  H9  GOX d          -1.954  12.155   8.331  0.00  0.00     0.079 H 
ENDROOT
BRANCH   7  13
ATOM     13  C6  GOX d          -2.489  10.102   7.890  0.00  0.00     0.038 C 
ATOM     14  H10 GOX d          -2.464  10.056   6.792  0.00  0.00     0.077 H 
ATOM     15  H11 GOX d          -3.498  10.388   8.223  0.00  0.00     0.077 H 
BRANCH  13  16
ATOM     16  O6  GOX d          -2.176   8.826   8.412  0.00  0.00    -0.399 OA
ATOM     17  H12 GOX d          -2.384   8.161   7.766  0.00  0.00     0.209 HD
ENDBRANCH  13  16
ENDBRANCH   7  13
BRANCH   6  18
ATOM     18  O4  GOX d          -0.505  11.526   6.141  0.00  0.00    -0.391 OA
ATOM     19  H8  GOX d           0.117  12.169   5.820  0.00  0.00     0.210 HD
ENDBRANCH   6  18
BRANCH   5  20
ATOM     20  O3  GOX d           1.823  12.534   7.277  0.00  0.00    -0.390 OA
ATOM     21  H6  GOX d           2.425  11.801   7.325  0.00  0.00     0.210 HD
ENDBRANCH   5  20
BRANCH   2  22
ATOM     22  O7  GOX d          -0.515  10.255  12.327  0.00  0.00    -0.265 OA
ATOM     23  H3  GOX d          -1.382  10.401  11.967  0.00  0.00     0.247 HD
ENDBRANCH   2  22
BRANCH   3  24
ATOM     24  O2  GOX d           1.838  12.864  10.158  0.00  0.00    -0.385 OA
ATOM     25  H4  GOX d           1.672  12.759  11.087  0.00  0.00     0.210 HD
ENDBRANCH   3  24
TORSDOF 6
ENDMDL
MODEL 2
REMARK VINA RESULT:      -5.8      1.534      3.073
REMARK  6 active torsions:
REMARK  status: ('A' for Active; 'I' for Inactive)
REMARK    1  A    between atoms: N1_2  and  O7_5 
REMARK    2  A    between atoms: C2_3  and  O2_6 
REMARK    3  A    between atoms: C3_7  and  O3_8 
REMARK    4  A    between atoms: C4_9  and  O4_10 
REMARK    5  A    between atoms: C5_11  and  C6_12 
REMARK    6  A    between atoms: C6_12  and  O6_13 
ROOT
ATOM      1  C1  GOX d           0.970  11.952   9.780  0.00  0.00     0.159 C 
ATOM      2  N1  GOX d           1.781  12.952  10.064  0.00  0.00    -0.120 NA
ATOM      3  C2  GOX d           1.025  11.504   8.306  0.00  0.00     0.121 C 
ATOM      4  N5  GOX d           0.158  11.383  10.781  0.00  0.00    -0.365 N 
ATOM      5  C3  GOX d          -0.116  10.524   8.044  0.00  0.00     0.094 C 
ATOM      6  C4  GOX d          -0.206   9.496   9.176  0.00  0.00     0.084 C 
ATOM      7  C5  GOX d          -0.736  10.277  10.412  0.00  0.00     0.058 C 
ATOM      8  H1  GOX d           1.982  10.993   8.127  0.00  0.00     0.099 H 
ATOM      9  H2  GOX d           0.190  11.734  11.749  0.00  0.00     0.161 HD
ATOM     10  H5  GOX d          -1.070  11.066   7.966  0.00  0.00     0.091 H 
ATOM     11  H7  GOX d           0.792   9.086   9.393  0.00  0.00     0.090 H 
ATOM     12  H9  GOX d          -1.727  10.681  10.160  0.00  0.00     0.079 H 
ENDROOT
BRANCH   7  13
ATOM     13  C6  GOX d          -0.861   9.382  11.663  0.00  0.00     0.038 C 
ATOM     14  H10 GOX d          -0.473   8.379  11.428  0.00  0.00     0.077 H 
ATOM     15  H11 GOX d          -1.921   9.307  11.947  0.00  0.00     0.077 H 
BRANCH  13  16
ATOM     16  O6  GOX d          -0.129   9.916  12.748  0.00  0.00    -0.399 OA
ATOM     17  H12 GOX d           0.563  10.475  12.417  0.00  0.00     0.209 HD
ENDBRANCH  13  16
ENDBRANCH   7  13
BRANCH   6  18
ATOM     18  O4  GOX d          -1.076   8.428   8.822  0.00  0.00    -0.391 OA
ATOM     19  H8  GOX d          -0.697   7.937   8.102  0.00  0.00     0.210 HD
ENDBRANCH   6  18
BRANCH   5  20
ATOM     20  O3  GOX d           0.181   9.874   6.809  0.00  0.00    -0.390 OA
ATOM     21  H6  GOX d          -0.450   9.180   6.658  0.00  0.00     0.210 HD
ENDBRANCH   5  20
BRANCH   2  22
ATOM     22  O7  GOX d           1.836  13.412  11.381  0.00  0.00    -0.265 OA
ATOM     23  H3  GOX d           1.392  12.794  11.951  0.00  0.00     0.247 HD
ENDBRANCH   2  22
BRANCH   3  24
ATOM     24  O2  GOX d           0.936  12.604   7.433  0.00  0.00    -0.385 OA
ATOM     25  H4  GOX d           1.449  13.324   7.780  0.00  0.00     0.210 HD
ENDBRANCH   3  24
TORSDOF 6
ENDMDL
MODEL 3
REMARK VINA RESULT:      -5.7      1.264      3.477
REMARK  6 active torsions:
REMARK  status: ('A' for Active; 'I' for Inactive)
REMARK    1  A    between atoms: N1_2  and  O7_5 
REMARK    2  A    between atoms: C2_3  and  O2_6 
REMARK    3  A    between atoms: C3_7  and  O3_8 
REMARK    4  A    between atoms: C4_9  and  O4_10 
REMARK    5  A    between atoms: C5_11  and  C6_12 
REMARK    6  A    between atoms: C6_12  and  O6_13 
ROOT
ATOM      1  C1  GOX d          -0.435  10.064  10.554  0.00  0.00     0.159 C 
ATOM      2  N1  GOX d          -0.895   9.463  11.634  0.00  0.00    -0.120 NA
ATOM      3  C2  GOX d          -1.360   9.936   9.328  0.00  0.00     0.121 C 
ATOM      4  N5  GOX d           0.794  10.752  10.586  0.00  0.00    -0.365 N 
ATOM      5  C3  GOX d          -0.622  10.449   8.094  0.00  0.00     0.094 C 
ATOM      6  C4  GOX d           0.088  11.769   8.410  0.00  0.00     0.084 C 
ATOM      7  C5  GOX d           1.268  11.398   9.354  0.00  0.00     0.058 C 
ATOM      8  H1  GOX d          -2.254  10.556   9.492  0.00  0.00     0.099 H 
ATOM      9  H2  GOX d           1.349  10.801  11.453  0.00  0.00     0.161 HD
ATOM     10  H5  GOX d           0.118   9.707   7.761  0.00  0.00     0.091 H 
ATOM     11  H7  GOX d          -0.601  12.454   8.925  0.00  0.00     0.090 H 
ATOM     12  H9  GOX d           1.931  10.706   8.814  0.00  0.00     0.079 H 
ENDROOT
BRANCH   7  13
ATOM     13  C6  GOX d           2.080  12.634   9.794  0.00  0.00     0.038 C 
ATOM     14  H10 GOX d           2.013  13.404   9.011  0.00  0.00     0.077 H 
ATOM     15  H11 GOX d           3.131  12.342   9.933  0.00  0.00     0.077 H 
BRANCH  13  16
ATOM     16  O6  GOX d           1.584  13.165  11.007  0.00  0.00    -0.399 OA
ATOM     17  H12 GOX d           1.765  14.097  11.040  0.00  0.00     0.209 HD
ENDBRANCH  13  16
ENDBRANCH   7  13
BRANCH   6  18
ATOM     18  O4  GOX d           0.552  12.392   7.218  0.00  0.00    -0.391 OA
ATOM     19  H8  GOX d           0.250  11.897   6.465  0.00  0.00     0.210 HD
ENDBRANCH   6  18
BRANCH   5  20
ATOM     20  O3  GOX d          -1.607  10.648   7.083  0.00  0.00    -0.390 OA
ATOM     21  H6  GOX d          -1.357  10.171   6.300  0.00  0.00     0.210 HD
ENDBRANCH   5  20
BRANCH   2  22
ATOM     22  O7  GOX d          -0.149   9.548  12.812  0.00  0.00    -0.265 OA
ATOM     23  H3  GOX d           0.089   8.674  13.099  0.00  0.00     0.247 HD
ENDBRANCH   2  22
BRANCH   3  24
ATOM     24  O2  GOX d          -1.771   8.604   9.134  0.00  0.00    -0.385 OA
ATOM     25  H4  GOX d          -2.546   8.590   8.585  0.00  0.00     0.210 HD
ENDBRANCH   3  24
TORSDOF 6
ENDMDL
MODEL 4
REMARK VINA RESULT:      -5.5      1.690      3.582
REMARK  6 active torsions:
REMARK  status: ('A' for Active; 'I' for Inactive)
REMARK    1  A    between atoms: N1_2  and  O7_5 
REMARK    2  A    between atoms: C2_3  and  O2_6 
REMARK    3  A    between atoms: C3_7  and  O3_8 
REMARK    4  A    between atoms: C4_9  and  O4_10 
REMARK    5  A    between atoms: C5_11  and  C6_12 
REMARK    6  A    between atoms: C6_12  and  O6_13 
ROOT
ATOM      1  C1  GOX d          -0.047  11.354   7.615  0.00  0.00     0.159 C 
ATOM      2  N1  GOX d          -0.229  11.698   6.355  0.00  0.00    -0.120 NA
ATOM      3  C2  GOX d           0.895  12.296   8.389  0.00  0.00     0.121 C 
ATOM      4  N5  GOX d          -0.691  10.220   8.147  0.00  0.00    -0.365 N 
ATOM      5  C3  GOX d           1.221  11.670   9.742  0.00  0.00     0.094 C 
ATOM      6  C4  GOX d          -0.052  11.120  10.394  0.00  0.00     0.084 C 
ATOM      7  C5  GOX d          -0.450   9.873   9.554  0.00  0.00     0.058 C 
ATOM      8  H1  GOX d           0.380  13.255   8.553  0.00  0.00     0.099 H 
ATOM      9  H2  GOX d          -1.318   9.646   7.564  0.00  0.00     0.161 HD
ATOM     10  H5  GOX d           1.948  10.855   9.616  0.00  0.00     0.091 H 
ATOM     11  H7  GOX d          -0.853  11.872  10.348  0.00  0.00     0.090 H 
ATOM     12  H9  GOX d           0.375   9.147   9.612  0.00  0.00     0.079 H 
ENDROOT
BRANCH   7  13
ATOM     13  C6  GOX d          -1.743   9.207  10.068  0.00  0.00     0.038 C 
ATOM     14  H10 GOX d          -1.988   8.352   9.422  0.00  0.00     0.077 H 
ATOM     15  H11 GOX d          -2.562   9.940  10.033  0.00  0.00     0.077 H 
BRANCH  13  16
ATOM     16  O6  GOX d          -1.589   8.751  11.398  0.00  0.00    -0.399 OA
ATOM     17  H12 GOX d          -2.306   8.166  11.616  0.00  0.00     0.209 HD
ENDBRANCH  13  16
ENDBRANCH   7  13
BRANCH   6  18
ATOM     18  O4  GOX d           0.184  10.779  11.755  0.00  0.00    -0.391 OA
ATOM     19  H8  GOX d          -0.209  11.435  12.318  0.00  0.00     0.210 HD
ENDBRANCH   6  18
BRANCH   5  20
ATOM     20  O3  GOX d           1.779  12.707  10.547  0.00  0.00    -0.390 OA
ATOM     21  H6  GOX d           1.234  12.839  11.313  0.00  0.00     0.210 HD
ENDBRANCH   5  20
BRANCH   2  22
ATOM     22  O7  GOX d          -1.094  10.929   5.572  0.00  0.00    -0.265 OA
ATOM     23  H3  GOX d          -0.613  10.556   4.843  0.00  0.00     0.247 HD
ENDBRANCH   2  22
BRANCH   3  24
ATOM     24  O2  GOX d           2.077  12.544   7.667  0.00  0.00    -0.385 OA
ATOM     25  H4  GOX d           2.737  11.907   7.913  0.00  0.00     0.210 HD
ENDBRANCH   3  24
TORSDOF 6
ENDMDL
MODEL 5
REMARK VINA RESULT:      -5.3      1.084      3.596
REMARK  6 active torsions:
REMARK  status: ('A' for Active; 'I' for Inactive)
REMARK    1  A    between atoms: N1_2  and  O7_5 
REMARK    2  A    between atoms: C2_3  and  O2_6 
REMARK    3  A    between atoms: C3_7  and  O3_8 
REMARK    4  A    between atoms: C4_9  and  O4_10 
REMARK    5  A    between atoms: C5_11  and  C6_12 
REMARK    6  A    between atoms: C6_12  and  O6_13 
ROOT
ATOM      1  C1  GOX d          -1.159  10.631   8.297  0.00  0.00     0.159 C 
ATOM      2  N1  GOX d          -2.273  10.249   7.704  0.00  0.00    -0.120 NA
ATOM      3  C2  GOX d          -0.294  11.582   7.447  0.00  0.00     0.121 C 
ATOM      4  N5  GOX d          -0.849  10.181   9.597  0.00  0.00    -0.365 N 
ATOM      5  C3  GOX d           1.063  11.757   8.125  0.00  0.00     0.094 C 
ATOM      6  C4  GOX d           0.881  11.990   9.628  0.00  0.00     0.084 C 
ATOM      7  C5  GOX d           0.408  10.628  10.211  0.00  0.00     0.058 C 
ATOM      8  H1  GOX d          -0.794  12.560   7.392  0.00  0.00     0.099 H 
ATOM      9  H2  GOX d          -1.490   9.553  10.104  0.00  0.00     0.161 HD
ATOM     10  H5  GOX d           1.682  10.862   7.967  0.00  0.00     0.091 H 
ATOM     11  H7  GOX d           0.112  12.757   9.800  0.00  0.00     0.090 H 
ATOM     12  H9  GOX d           1.192   9.882  10.015  0.00  0.00     0.079 H 
ENDROOT
BRANCH   7  13
ATOM     13  C6  GOX d           0.150  10.698  11.731  0.00  0.00     0.038 C 
ATOM     14  H10 GOX d           1.104  10.570  12.264  0.00  0.00     0.077 H 
ATOM     15  H11 GOX d          -0.540   9.890  12.015  0.00  0.00     0.077 H 
BRANCH  13  16
ATOM     16  O6  GOX d          -0.418  11.940  12.095  0.00  0.00    -0.399 OA
ATOM     17  H12 GOX d          -0.912  12.289  11.362  0.00  0.00     0.209 HD
ENDBRANCH  13  16
ENDBRANCH   7  13
BRANCH   6  18
ATOM     18  O4  GOX d           2.100  12.417  10.224  0.00  0.00    -0.391 OA
ATOM     19  H8  GOX d           2.161  13.364  10.175  0.00  0.00     0.210 HD
ENDBRANCH   6  18
BRANCH   5  20
ATOM     20  O3  GOX d           1.677  12.892   7.519  0.00  0.00    -0.390 OA
ATOM     21  H6  GOX d           1.307  13.027   6.655  0.00  0.00     0.210 HD
ENDBRANCH   5  20
BRANCH   2  22
ATOM     22  O7  GOX d          -3.147   9.413   8.402  0.00  0.00    -0.265 OA
ATOM     23  H3  GOX d          -3.961   9.875   8.569  0.00  0.00     0.247 HD
ENDBRANCH   2  22
BRANCH   3  24
ATOM     24  O2  GOX d          -0.129  11.091   6.139  0.00  0.00    -0.385 OA
ATOM     25  H4  GOX d          -0.981  10.930   5.752  0.00  0.00     0.210 HD
ENDBRANCH   3  24
TORSDOF 6
ENDMDL
MODEL 6
REMARK VINA RESULT:      -5.0      1.784      4.143
REMARK  6 active torsions:
REMARK  status: ('A' for Active; 'I' for Inactive)
REMARK    1  A    between atoms: N1_2  and  O7_5 
REMARK    2  A    between atoms: C2_3  and  O2_6 
REMARK    3  A    between atoms: C3_7  and  O3_8 
REMARK    4  A    between atoms: C4_9  and  O4_10 
REMARK    5  A    between atoms: C5_11  and  C6_12 
REMARK    6  A    between atoms: C6_12  and  O6_13 
ROOT
ATOM      1  C1  GOX d          -1.403  10.416   8.735  0.00  0.00     0.159 C 
ATOM      2  N1  GOX d          -2.396   9.776   8.149  0.00  0.00    -0.120 NA
ATOM      3  C2  GOX d          -0.795   9.662   9.933  0.00  0.00     0.121 C 
ATOM      4  N5  GOX d          -0.979  11.672   8.255  0.00  0.00    -0.365 N 
ATOM      5  C3  GOX d           0.162  10.594  10.671  0.00  0.00     0.094 C 
ATOM      6  C4  GOX d           1.056  11.337   9.674  0.00  0.00     0.084 C 
ATOM      7  C5  GOX d           0.125  12.350   8.947  0.00  0.00     0.058 C 
ATOM      8  H1  GOX d          -0.231   8.796   9.557  0.00  0.00     0.099 H 
ATOM      9  H2  GOX d          -1.433  12.104   7.437  0.00  0.00     0.161 HD
ATOM     10  H5  GOX d          -0.405  11.323  11.267  0.00  0.00     0.091 H 
ATOM     11  H7  GOX d           1.478  10.629   8.946  0.00  0.00     0.090 H 
ATOM     12  H9  GOX d          -0.287  13.035   9.702  0.00  0.00     0.079 H 
ENDROOT
BRANCH   7  13
ATOM     13  C6  GOX d           0.873  13.171   7.877  0.00  0.00     0.038 C 
ATOM     14  H10 GOX d           1.199  14.124   8.318  0.00  0.00     0.077 H 
ATOM     15  H11 GOX d           0.191  13.370   7.037  0.00  0.00     0.077 H 
BRANCH  13  16
ATOM     16  O6  GOX d           2.005  12.474   7.397  0.00  0.00    -0.399 OA
ATOM     17  H12 GOX d           2.390  11.971   8.106  0.00  0.00     0.209 HD
ENDBRANCH  13  16
ENDBRANCH   7  13
BRANCH   6  18
ATOM     18  O4  GOX d           2.122  11.999  10.345  0.00  0.00    -0.391 OA
ATOM     19  H8  GOX d           2.897  11.449  10.325  0.00  0.00     0.210 HD
ENDBRANCH   6  18
BRANCH   5  20
ATOM     20  O3  GOX d           0.954   9.771  11.526  0.00  0.00    -0.390 OA
ATOM     21  H6  GOX d           1.122   8.940  11.096  0.00  0.00     0.210 HD
ENDBRANCH   5  20
BRANCH   2  22
ATOM     22  O7  GOX d          -2.995  10.357   7.029  0.00  0.00    -0.265 OA
ATOM     23  H3  GOX d          -3.891  10.595   7.238  0.00  0.00     0.247 HD
ENDBRANCH   2  22
BRANCH   3  24
ATOM     24  O2  GOX d          -1.796   9.197  10.806  0.00  0.00    -0.385 OA
ATOM     25  H4  GOX d          -2.126   8.363  10.493  0.00  0.00     0.210 HD
ENDBRANCH   3  24
TORSDOF 6
ENDMDL
MODEL 7
REMARK VINA RESULT:      -4.8      1.934      4.254
REMARK  6 active torsions:
REMARK  status: ('A' for Active; 'I' for Inactive)
REMARK    1  A    between atoms: N1_2  and  O7_5 
REMARK    2  A    between atoms: C2_3  and  O2_6 
REMARK    3  A    between atoms: C3_7  and  O3_8 
REMARK    4  A    between atoms: C4_9  and  O4_10 
REMARK    5  A    between atoms: C5_11  and  C6_12 
REMARK    6  A    between atoms: C6_12  and  O6_13 
ROOT
ATOM      1  C1  GOX d           0.488  11.025   8.744  0.00  0.00     0.159 C 
ATOM      2  N1  GOX d           1.292  11.674   7.926  0.00  0.00    -0.120 NA
ATOM      3  C2  GOX d          -0.736  10.398   8.048  0.00  0.00     0.121 C 
ATOM      4  N5  GOX d           0.781  10.941  10.120  0.00  0.00    -0.365 N 
ATOM      5  C3  GOX d          -1.707   9.892   9.112  0.00  0.00     0.094 C 
ATOM      6  C4  GOX d          -0.950   9.134  10.206  0.00  0.00     0.084 C 
ATOM      7  C5  GOX d          -0.152  10.214  10.992  0.00  0.00     0.058 C 
ATOM      8  H1  GOX d          -0.399   9.546   7.439  0.00  0.00     0.099 H 
ATOM      9  H2  GOX d           1.629  11.380  10.506  0.00  0.00     0.161 HD
ATOM     10  H5  GOX d          -2.248  10.738   9.561  0.00  0.00     0.091 H 
ATOM     11  H7  GOX d          -0.255   8.412   9.753  0.00  0.00     0.090 H 
ATOM     12  H9  GOX d          -0.873  10.923  11.423  0.00  0.00     0.079 H 
ENDROOT
BRANCH   7  13
ATOM     13  C6  GOX d           0.697   9.606  12.128  0.00  0.00     0.038 C 
ATOM     14  H10 GOX d           0.063   8.942  12.734  0.00  0.00     0.077 H 
ATOM     15  H11 GOX d           1.087  10.418  12.759  0.00  0.00     0.077 H 
BRANCH  13  16
ATOM     16  O6  GOX d           1.783   8.861  11.612  0.00  0.00    -0.399 OA
ATOM     17  H12 GOX d           1.451   8.109  11.135  0.00  0.00     0.209 HD
ENDBRANCH  13  16
ENDBRANCH   7  13
BRANCH   6  18
ATOM     18  O4  GOX d          -1.853   8.434  11.054  0.00  0.00    -0.391 OA
ATOM     19  H8  GOX d          -1.449   8.300  11.903  0.00  0.00     0.210 HD
ENDBRANCH   6  18
BRANCH   5  20
ATOM     20  O3  GOX d          -2.621   9.021   8.449  0.00  0.00    -0.390 OA
ATOM     21  H6  GOX d          -2.898   9.418   7.631  0.00  0.00     0.210 HD
ENDBRANCH   5  20
BRANCH   2  22
ATOM     22  O7  GOX d           2.451  12.251   8.450  0.00  0.00    -0.265 OA
ATOM     23  H3  GOX d           2.252  13.122   8.776  0.00  0.00     0.247 HD
ENDBRANCH   2  22
BRANCH   3  24
ATOM     24  O2  GOX d          -1.374  11.324   7.202  0.00  0.00    -0.385 OA
ATOM     25  H4  GOX d          -2.222  10.984   6.944  0.00  0.00     0.210 HD
ENDBRANCH   3  24
TORSDOF 6
ENDMDL
MODEL 8
REMARK VINA RESULT:      -4.7      1.014      1.014
REMARK  6 active torsions:
REMARK  status: ('A' for Active; 'I' for Inactive)
REMARK    1  A    between atoms: N1_2  and  O7_5 
REMARK    2  A    between atoms: C2_3  and  O2_6 
REMARK    3  A    between atoms: C3_7  and  O3_8 
REMARK    4  A    between atoms: C4_9  and  O4_10 
REMARK    5  A    between atoms: C5_11  and  C6_12 
REMARK    6  A    between atoms: C6_12  and  O6_13 
ROOT
ATOM      1  C1  GOX d           0.640  10.509  10.190  0.00  0.00     0.159 C 
ATOM      2  N1  GOX d           1.440  10.170  11.181  0.00  0.00    -0.120 NA
ATOM      3  C2  GOX d           1.344  11.274   9.053  0.00  0.00     0.121 C 
ATOM      4  N5  GOX d          -0.727  10.165  10.224  0.00  0.00    -0.365 N 
ATOM      5  C3  GOX d           0.289  11.821   8.095  0.00  0.00     0.094 C 
ATOM      6  C4  GOX d          -0.759  10.747   7.789  0.00  0.00     0.084 C 
ATOM      7  C5  GOX d          -1.580  10.574   9.100  0.00  0.00     0.058 C 
ATOM      8  H1  GOX d           1.995  10.575   8.506  0.00  0.00     0.099 H 
ATOM      9  H2  GOX d          -1.119   9.640  11.019  0.00  0.00     0.161 HD
ATOM     10  H5  GOX d          -0.205  12.698   8.538  0.00  0.00     0.091 H 
ATOM     11  H7  GOX d          -0.264   9.799   7.531  0.00  0.00     0.090 H 
ATOM     12  H9  GOX d          -2.052  11.538   9.335  0.00  0.00     0.079 H 
ENDROOT
BRANCH   7  13
ATOM     13  C6  GOX d          -2.675   9.495   8.968  0.00  0.00     0.038 C 
ATOM     14  H10 GOX d          -3.607   9.969   8.626  0.00  0.00     0.077 H 
ATOM     15  H11 GOX d          -2.839   9.029   9.951  0.00  0.00     0.077 H 
BRANCH  13  16
ATOM     16  O6  GOX d          -2.299   8.496   8.042  0.00  0.00    -0.399 OA
ATOM     17  H12 GOX d          -3.064   8.212   7.555  0.00  0.00     0.209 HD
ENDBRANCH  13  16
ENDBRANCH   7  13
BRANCH   6  18
ATOM     18  O4  GOX d          -1.589  11.145   6.704  0.00  0.00    -0.391 OA
ATOM     19  H8  GOX d          -1.937  10.373   6.273  0.00  0.00     0.210 HD
ENDBRANCH   6  18
BRANCH   5  20
ATOM     20  O3  GOX d           0.976  12.194   6.902  0.00  0.00    -0.390 OA
ATOM     21  H6  GOX d           1.442  13.009   7.049  0.00  0.00     0.210 HD
ENDBRANCH   5  20
BRANCH   2  22
ATOM     22  O7  GOX d           0.909   9.441  12.248  0.00  0.00    -0.265 OA
ATOM     23  H3  GOX d           0.214   8.876  11.930  0.00  0.00     0.247 HD
ENDBRANCH   2  22
BRANCH   3  24
ATOM     24  O2  GOX d           2.139  12.320   9.556  0.00  0.00    -0.385 OA
ATOM     25  H4  GOX d           1.727  13.153   9.357  0.00  0.00     0.210 HD
ENDBRANCH   3  24
TORSDOF 6
ENDMDL
MODEL 9
REMARK VINA RESULT:      -4.2      1.437      3.476
REMARK  6 active torsions:
REMARK  status: ('A' for Active; 'I' for Inactive)
REMARK    1  A    between atoms: N1_2  and  O7_5 
REMARK    2  A    between atoms: C2_3  and  O2_6 
REMARK    3  A    between atoms: C3_7  and  O3_8 
REMARK    4  A    between atoms: C4_9  and  O4_10 
REMARK    5  A    between atoms: C5_11  and  C6_12 
REMARK    6  A    between atoms: C6_12  and  O6_13 
ROOT
ATOM      1  C1  GOX d           0.563  11.260  10.256  0.00  0.00     0.159 C 
ATOM      2  N1  GOX d           1.362  12.126  10.848  0.00  0.00    -0.120 NA
ATOM      3  C2  GOX d          -0.199  10.346  11.235  0.00  0.00     0.121 C 
ATOM      4  N5  GOX d           0.455  11.229   8.852  0.00  0.00    -0.365 N 
ATOM      5  C3  GOX d          -0.892   9.240  10.443  0.00  0.00     0.094 C 
ATOM      6  C4  GOX d          -1.586   9.824   9.208  0.00  0.00     0.084 C 
ATOM      7  C5  GOX d          -0.442  10.240   8.239  0.00  0.00     0.058 C 
ATOM      8  H1  GOX d          -0.962  10.943  11.756  0.00  0.00     0.099 H 
ATOM      9  H2  GOX d           0.993  11.886   8.267  0.00  0.00     0.161 HD
ATOM     10  H5  GOX d          -0.158   8.486  10.125  0.00  0.00     0.091 H 
ATOM     11  H7  GOX d          -2.176  10.708   9.491  0.00  0.00     0.090 H 
ATOM     12  H9  GOX d           0.133   9.338   7.985  0.00  0.00     0.079 H 
ENDROOT
BRANCH   7  13
ATOM     13  C6  GOX d          -0.976  10.879   6.941  0.00  0.00     0.038 C 
ATOM     14  H10 GOX d          -1.691  11.674   7.199  0.00  0.00     0.077 H 
ATOM     15  H11 GOX d          -1.484  10.108   6.344  0.00  0.00     0.077 H 
BRANCH  13  16
ATOM     16  O6  GOX d           0.075  11.436   6.176  0.00  0.00    -0.399 OA
ATOM     17  H12 GOX d           0.333  12.269   6.554  0.00  0.00     0.209 HD
ENDBRANCH  13  16
ENDBRANCH   7  13
BRANCH   6  18
ATOM     18  O4  GOX d          -2.450   8.864   8.612  0.00  0.00    -0.391 OA
ATOM     19  H8  GOX d          -2.672   9.143   7.731  0.00  0.00     0.210 HD
ENDBRANCH   6  18
BRANCH   5  20
ATOM     20  O3  GOX d          -1.853   8.653  11.317  0.00  0.00    -0.390 OA
ATOM     21  H6  GOX d          -1.439   8.446  12.147  0.00  0.00     0.210 HD
ENDBRANCH   5  20
BRANCH   2  22
ATOM     22  O7  GOX d           2.075  13.027  10.053  0.00  0.00    -0.265 OA
ATOM     23  H3  GOX d           2.632  13.563  10.605  0.00  0.00     0.247 HD
ENDBRANCH   2  22
BRANCH   3  24
ATOM     24  O2  GOX d           0.665   9.791  12.197  0.00  0.00    -0.385 OA
ATOM     25  H4  GOX d           0.608  10.295  13.000  0.00  0.00     0.210 HD
ENDBRANCH   3  24
TORSDOF 6
ENDMDL
MODEL 10
REMARK VINA RESULT:      -3.9      1.618      4.879
REMARK  6 active torsions:
REMARK  status: ('A' for Active; 'I' for Inactive)
REMARK    1  A    between atoms: N1_2  and  O7_5 
REMARK    2  A    between atoms: C2_3  and  O2_6 
REMARK    3  A    between atoms: C3_7  and  O3_8 
REMARK    4  A    between atoms: C4_9  and  O4_10 
REMARK    5  A    between atoms: C5_11  and  C6_12 
REMARK    6  A    between atoms: C6_12  and  O6_13 
ROOT
ATOM      1  C1  GOX d          -0.933  10.627   8.191  0.00  0.00     0.159 C 
ATOM      2  N1  GOX d          -1.253  10.599   6.912  0.00  0.00    -0.120 NA
ATOM      3  C2  GOX d          -1.578   9.499   9.020  0.00  0.00     0.121 C 
ATOM      4  N5  GOX d          -0.069  11.621   8.692  0.00  0.00    -0.365 N 
ATOM      5  C3  GOX d          -1.340   9.774  10.502  0.00  0.00     0.094 C 
ATOM      6  C4  GOX d           0.115  10.192  10.739  0.00  0.00     0.084 C 
ATOM      7  C5  GOX d           0.250  11.615  10.126  0.00  0.00     0.058 C 
ATOM      8  H1  GOX d          -1.099   8.545   8.753  0.00  0.00     0.099 H 
ATOM      9  H2  GOX d           0.332  12.335   8.066  0.00  0.00     0.161 HD
ATOM     10  H5  GOX d          -2.010  10.574  10.851  0.00  0.00     0.091 H 
ATOM     11  H7  GOX d           0.794   9.497  10.224  0.00  0.00     0.090 H 
ATOM     12  H9  GOX d          -0.448  12.280  10.655  0.00  0.00     0.079 H 
ENDROOT
BRANCH   7  13
ATOM     13  C6  GOX d           1.680  12.178  10.258  0.00  0.00     0.038 C 
ATOM     14  H10 GOX d           2.040  12.481   9.264  0.00  0.00     0.077 H 
ATOM     15  H11 GOX d           2.338  11.395  10.664  0.00  0.00     0.077 H 
BRANCH  13  16
ATOM     16  O6  GOX d           1.710  13.298  11.120  0.00  0.00    -0.399 OA
ATOM     17  H12 GOX d           1.163  13.128  11.878  0.00  0.00     0.209 HD
ENDBRANCH  13  16
ENDBRANCH   7  13
BRANCH   6  18
ATOM     18  O4  GOX d           0.421  10.192  12.128  0.00  0.00    -0.391 OA
ATOM     19  H8  GOX d           1.334   9.955  12.250  0.00  0.00     0.210 HD
ENDBRANCH   6  18
BRANCH   5  20
ATOM     20  O3  GOX d          -1.624   8.559  11.193  0.00  0.00    -0.390 OA
ATOM     21  H6  GOX d          -2.556   8.508  11.371  0.00  0.00     0.210 HD
ENDBRANCH   5  20
BRANCH   2  22
ATOM     22  O7  GOX d          -0.693  11.558   6.065  0.00  0.00    -0.265 OA
ATOM     23  H3  GOX d          -0.413  11.142   5.258  0.00  0.00     0.247 HD
ENDBRANCH   2  22
BRANCH   3  24
ATOM     24  O2  GOX d          -2.956   9.395   8.756  0.00  0.00    -0.385 OA
ATOM     25  H4  GOX d          -3.086   8.956   7.924  0.00  0.00     0.210 HD
ENDBRANCH   3  24
TORSDOF 6
ENDMDL
