MODEL 1
REMARK VINA RESULT:      -7.2      0.000      0.000
REMARK  19 active torsions:
REMARK  status: ('A' for Active; 'I' for Inactive)
REMARK    1  A    between atoms: NA1_2  and  OA7_3 
REMARK    2  A    between atoms: CA2_4  and  OA2_5 
REMARK    3  A    between atoms: CA3_6  and  OA3_7 
REMARK    4  A    between atoms: CA4_8  and  OA4_9 
REMARK    5  A    between atoms: OA4_9  and  CB1_14 
REMARK    6  A    between atoms: CA5_10  and  CA6_12 
REMARK    7  A    between atoms: CA6_12  and  OA6_13 
REMARK    8  A    between atoms: CB2_15  and  OB2_20 
REMARK    9  A    between atoms: CB3_16  and  OB3_21 
REMARK   10  A    between atoms: CB4_17  and  OB4_22 
REMARK   11  A    between atoms: CB5_18  and  CB6_19 
REMARK   12  A    between atoms: CB6_19  and  OB6_24 
REMARK   13  A    between atoms: OB4_22  and  CD1_25 
REMARK   14  A    between atoms: CD2_26  and  OD2_31 
REMARK   15  A    between atoms: CD3_27  and  OD3_32 
REMARK   16  A    between atoms: CD4_28  and  OD4_33 
REMARK   17  A    between atoms: CD5_29  and  CD6_30 
REMARK   18  A    between atoms: CD6_30  and  OD6_35 
REMARK   19  A    between atoms: OD4_33  and  CD7_36 
ROOT
ATOM      1  CB1 MOL d          13.639  17.560  40.148  0.00  0.00     0.159 C 
ATOM      2  CB2 MOL d          13.422  17.905  38.598  0.00  0.00     0.110 C 
ATOM      3  CB3 MOL d          13.471  16.629  37.679  0.00  0.00     0.092 C 
ATOM      4  CB4 MOL d          14.871  15.964  37.888  0.00  0.00     0.096 C 
ATOM      5  CB5 MOL d          14.978  15.542  39.498  0.00  0.00     0.089 C 
ATOM      6  OB5 MOL d          14.886  16.772  40.318  0.00  0.00    -0.348 OA
ATOM      7  H12 MOL d          13.740  18.495  40.718  0.00  0.00     0.133 H 
ATOM      8  H13 MOL d          14.235  18.572  38.277  0.00  0.00     0.094 H 
ATOM      9  H14 MOL d          12.676  15.923  37.958  0.00  0.00     0.091 H 
ATOM     10  H15 MOL d          15.675  16.667  37.625  0.00  0.00     0.091 H 
ATOM     11  H16 MOL d          14.151  14.860  39.744  0.00  0.00     0.090 H 
ENDROOT
BRANCH   4  12
ATOM     12  OB4 MOL d          14.951  14.810  37.068  0.00  0.00    -0.348 OA
BRANCH  12  13
ATOM     13  CD1 MOL d          16.118  14.870  36.180  0.00  0.00     0.159 C 
ATOM     14  CD2 MOL d          15.770  14.890  34.637  0.00  0.00     0.110 C 
ATOM     15  CD3 MOL d          15.025  13.531  34.278  0.00  0.00     0.092 C 
ATOM     16  H23 MOL d          16.690  14.974  34.039  0.00  0.00     0.094 H 
ATOM     17  CD4 MOL d          15.994  12.341  34.569  0.00  0.00     0.092 C 
ATOM     18  H24 MOL d          14.108  13.433  34.878  0.00  0.00     0.091 H 
ATOM     19  CD5 MOL d          16.382  12.361  36.159  0.00  0.00     0.089 C 
ATOM     20  H25 MOL d          16.904  12.451  33.961  0.00  0.00     0.091 H 
ATOM     21  OD5 MOL d          17.010  13.688  36.472  0.00  0.00    -0.348 OA
ATOM     22  H26 MOL d          15.469  12.236  36.758  0.00  0.00     0.090 H 
ATOM     23  H22 MOL d          16.667  15.794  36.410  0.00  0.00     0.133 H 
BRANCH  14  24
ATOM     24  OD2 MOL d          14.929  16.036  34.401  0.00  0.00    -0.388 OA
ATOM     25  H29 MOL d          14.125  15.946  34.898  0.00  0.00     0.210 HD
ENDBRANCH  14  24
BRANCH  15  26
ATOM     26  OD3 MOL d          14.710  13.521  32.908  0.00  0.00    -0.390 OA
ATOM     27  H30 MOL d          15.438  13.880  32.414  0.00  0.00     0.210 HD
ENDBRANCH  15  26
BRANCH  17  28
ATOM     28  OD4 MOL d          15.347  11.060  34.255  0.00  0.00    -0.385 OA
BRANCH  28  29
ATOM     29  CD7 MOL d          15.931  10.345  33.134  0.00  0.00     0.005 C 
ATOM     30  H32 MOL d          16.105  11.044  32.303  0.00  0.00     0.066 H 
ATOM     31  H33 MOL d          15.243   9.551  32.807  0.00  0.00     0.066 H 
ATOM     32  H34 MOL d          16.888   9.897  33.443  0.00  0.00     0.066 H 
ENDBRANCH  28  29
ENDBRANCH  17  28
BRANCH  19  33
ATOM     33  CD6 MOL d          17.373  11.210  36.504  0.00  0.00     0.043 C 
ATOM     34  H27 MOL d          17.794  11.390  37.505  0.00  0.00     0.078 H 
ATOM     35  H28 MOL d          18.184  11.202  35.761  0.00  0.00     0.078 H 
BRANCH  33  36
ATOM     36  OD6 MOL d          16.724   9.933  36.496  0.00  0.00    -0.398 OA
ATOM     37  H31 MOL d          16.051   9.918  37.167  0.00  0.00     0.209 HD
ENDBRANCH  33  36
ENDBRANCH  19  33
ENDBRANCH  12  13
ENDBRANCH   4  12
BRANCH   3  38
ATOM     38  OB3 MOL d          13.292  17.046  36.303  0.00  0.00    -0.390 OA
ATOM     39  H20 MOL d          13.316  17.995  36.255  0.00  0.00     0.210 HD
ENDBRANCH   3  38
BRANCH   5  40
ATOM     40  CB6 MOL d          16.295  14.876  39.843  0.00  0.00     0.043 C 
ATOM     41  H17 MOL d          16.363  14.753  40.934  0.00  0.00     0.078 H 
ATOM     42  H18 MOL d          17.123  15.511  39.494  0.00  0.00     0.078 H 
BRANCH  40  43
ATOM     43  OB6 MOL d          16.390  13.631  39.238  0.00  0.00    -0.398 OA
ATOM     44  H21 MOL d          15.766  13.037  39.639  0.00  0.00     0.209 HD
ENDBRANCH  40  43
ENDBRANCH   5  40
BRANCH   2  45
ATOM     45  OB2 MOL d          12.171  18.620  38.476  0.00  0.00    -0.388 OA
ATOM     46  H19 MOL d          11.839  18.528  37.591  0.00  0.00     0.210 HD
ENDBRANCH   2  45
BRANCH   1  47
ATOM     47  OA4 MOL d          12.489  16.866  40.609  0.00  0.00    -0.348 OA
BRANCH  47  48
ATOM     48  CA4 MOL d          12.419  16.776  41.930  0.00  0.00     0.090 C 
ATOM     49  CA3 MOL d          11.551  17.965  42.482  0.00  0.00     0.094 C 
ATOM     50  CA2 MOL d          11.013  17.622  43.916  0.00  0.00     0.121 C 
ATOM     51  H4  MOL d          10.689  18.093  41.810  0.00  0.00     0.091 H 
ATOM     52  CA1 MOL d          10.258  16.281  43.851  0.00  0.00     0.159 C 
ATOM     53  H2  MOL d          11.889  17.481  44.566  0.00  0.00     0.099 H 
ATOM     54  NA1 MOL d           9.197  16.116  44.627  0.00  0.00    -0.120 NA
ATOM     55  NA5 MOL d          10.694  15.224  42.993  0.00  0.00    -0.365 N 
ATOM     56  CA5 MOL d          11.831  15.407  42.071  0.00  0.00     0.059 C 
ATOM     57  H8  MOL d          10.206  14.318  43.020  0.00  0.00     0.161 HD
ATOM     58  H7  MOL d          11.501  15.093  41.070  0.00  0.00     0.079 H 
ATOM     59  H6  MOL d          13.413  16.816  42.398  0.00  0.00     0.090 H 
BRANCH  49  60
ATOM     60  OA3 MOL d          12.217  19.112  42.515  0.00  0.00    -0.390 OA
ATOM     61  H5  MOL d          12.338  19.381  43.419  0.00  0.00     0.210 HD
ENDBRANCH  49  60
BRANCH  50  62
ATOM     62  OA2 MOL d          10.272  18.589  44.480  0.00  0.00    -0.385 OA
ATOM     63  H3  MOL d          10.443  18.614  45.414  0.00  0.00     0.210 HD
ENDBRANCH  50  62
BRANCH  54  64
ATOM     64  OA7 MOL d           8.561  14.958  44.553  0.00  0.00    -0.265 OA
ATOM     65  H1  MOL d           9.182  14.249  44.670  0.00  0.00     0.247 HD
ENDBRANCH  54  64
BRANCH  56  66
ATOM     66  CA6 MOL d          12.946  14.440  42.583  0.00  0.00     0.038 C 
ATOM     67  H9  MOL d          13.161  13.693  41.804  0.00  0.00     0.077 H 
ATOM     68  H10 MOL d          12.592  13.930  43.492  0.00  0.00     0.077 H 
BRANCH  66  69
ATOM     69  OA6 MOL d          14.094  15.131  42.873  0.00  0.00    -0.399 OA
ATOM     70  H11 MOL d          14.815  14.771  42.369  0.00  0.00     0.209 HD
ENDBRANCH  66  69
ENDBRANCH  56  66
ENDBRANCH  47  48
ENDBRANCH   1  47
TORSDOF 19
ENDMDL
MODEL 2
REMARK VINA RESULT:      -6.3      1.775      3.274
REMARK  19 active torsions:
REMARK  status: ('A' for Active; 'I' for Inactive)
REMARK    1  A    between atoms: NA1_2  and  OA7_3 
REMARK    2  A    between atoms: CA2_4  and  OA2_5 
REMARK    3  A    between atoms: CA3_6  and  OA3_7 
REMARK    4  A    between atoms: CA4_8  and  OA4_9 
REMARK    5  A    between atoms: OA4_9  and  CB1_14 
REMARK    6  A    between atoms: CA5_10  and  CA6_12 
REMARK    7  A    between atoms: CA6_12  and  OA6_13 
REMARK    8  A    between atoms: CB2_15  and  OB2_20 
REMARK    9  A    between atoms: CB3_16  and  OB3_21 
REMARK   10  A    between atoms: CB4_17  and  OB4_22 
REMARK   11  A    between atoms: CB5_18  and  CB6_19 
REMARK   12  A    between atoms: CB6_19  and  OB6_24 
REMARK   13  A    between atoms: OB4_22  and  CD1_25 
REMARK   14  A    between atoms: CD2_26  and  OD2_31 
REMARK   15  A    between atoms: CD3_27  and  OD3_32 
REMARK   16  A    between atoms: CD4_28  and  OD4_33 
REMARK   17  A    between atoms: CD5_29  and  CD6_30 
REMARK   18  A    between atoms: CD6_30  and  OD6_35 
REMARK   19  A    between atoms: OD4_33  and  CD7_36 
ROOT
ATOM      1  CB1 MOL d          12.618  16.799  39.946  0.00  0.00     0.159 C 
ATOM      2  CB2 MOL d          12.840  17.571  38.559  0.00  0.00     0.110 C 
ATOM      3  CB3 MOL d          13.530  16.673  37.468  0.00  0.00     0.092 C 
ATOM      4  CB4 MOL d          14.907  16.213  38.051  0.00  0.00     0.096 C 
ATOM      5  CB5 MOL d          14.586  15.333  39.430  0.00  0.00     0.089 C 
ATOM      6  OB5 MOL d          13.901  16.212  40.406  0.00  0.00    -0.348 OA
ATOM      7  H12 MOL d          12.270  17.513  40.707  0.00  0.00     0.133 H 
ATOM      8  H13 MOL d          13.503  18.429  38.745  0.00  0.00     0.094 H 
ATOM      9  H14 MOL d          12.908  15.795  37.242  0.00  0.00     0.091 H 
ATOM     10  H15 MOL d          15.533  17.085  38.293  0.00  0.00     0.091 H 
ATOM     11  H16 MOL d          13.939  14.483  39.168  0.00  0.00     0.090 H 
ENDROOT
BRANCH   4  12
ATOM     12  OB4 MOL d          15.560  15.404  37.088  0.00  0.00    -0.348 OA
BRANCH  12  13
ATOM     13  CD1 MOL d          14.882  14.112  36.932  0.00  0.00     0.159 C 
ATOM     14  CD2 MOL d          15.825  12.924  36.483  0.00  0.00     0.110 C 
ATOM     15  CD3 MOL d          16.418  13.274  35.050  0.00  0.00     0.092 C 
ATOM     16  H23 MOL d          15.256  11.984  36.426  0.00  0.00     0.094 H 
ATOM     17  CD4 MOL d          15.234  13.397  34.039  0.00  0.00     0.092 C 
ATOM     18  H24 MOL d          16.982  14.217  35.094  0.00  0.00     0.091 H 
ATOM     19  CD5 MOL d          14.242  14.599  34.540  0.00  0.00     0.089 C 
ATOM     20  H25 MOL d          14.681  12.447  34.003  0.00  0.00     0.091 H 
ATOM     21  OD5 MOL d          13.767  14.267  35.925  0.00  0.00    -0.348 OA
ATOM     22  H26 MOL d          14.799  15.546  34.560  0.00  0.00     0.090 H 
ATOM     23  H22 MOL d          14.446  13.843  37.905  0.00  0.00     0.133 H 
BRANCH  14  24
ATOM     24  OD2 MOL d          16.865  12.803  37.474  0.00  0.00    -0.388 OA
ATOM     25  H29 MOL d          17.551  12.235  37.145  0.00  0.00     0.210 HD
ENDBRANCH  14  24
BRANCH  15  26
ATOM     26  OD3 MOL d          17.257  12.229  34.625  0.00  0.00    -0.390 OA
ATOM     27  H30 MOL d          17.578  12.418  33.751  0.00  0.00     0.210 HD
ENDBRANCH  15  26
BRANCH  17  28
ATOM     28  OD4 MOL d          15.734  13.725  32.697  0.00  0.00    -0.385 OA
BRANCH  28  29
ATOM     29  CD7 MOL d          16.497  14.959  32.619  0.00  0.00     0.005 C 
ATOM     30  H32 MOL d          16.371  15.407  31.623  0.00  0.00     0.066 H 
ATOM     31  H33 MOL d          17.562  14.743  32.792  0.00  0.00     0.066 H 
ATOM     32  H34 MOL d          16.136  15.662  33.386  0.00  0.00     0.066 H 
ENDBRANCH  28  29
ENDBRANCH  17  28
BRANCH  19  33
ATOM     33  CD6 MOL d          13.023  14.749  33.583  0.00  0.00     0.043 C 
ATOM     34  H27 MOL d          12.317  13.927  33.773  0.00  0.00     0.078 H 
ATOM     35  H28 MOL d          13.377  14.696  32.543  0.00  0.00     0.078 H 
BRANCH  33  36
ATOM     36  OD6 MOL d          12.347  15.997  33.780  0.00  0.00    -0.398 OA
ATOM     37  H31 MOL d          11.685  15.894  34.454  0.00  0.00     0.209 HD
ENDBRANCH  33  36
ENDBRANCH  19  33
ENDBRANCH  12  13
ENDBRANCH   4  12
BRANCH   3  38
ATOM     38  OB3 MOL d          13.710  17.463  36.266  0.00  0.00    -0.390 OA
ATOM     39  H20 MOL d          14.615  17.406  35.983  0.00  0.00     0.210 HD
ENDBRANCH   3  38
BRANCH   5  40
ATOM     40  CB6 MOL d          15.843  14.817  40.102  0.00  0.00     0.043 C 
ATOM     41  H17 MOL d          16.010  13.772  39.803  0.00  0.00     0.078 H 
ATOM     42  H18 MOL d          15.716  14.870  41.194  0.00  0.00     0.078 H 
BRANCH  40  43
ATOM     43  OB6 MOL d          16.944  15.577  39.735  0.00  0.00    -0.398 OA
ATOM     44  H21 MOL d          16.786  16.488  39.956  0.00  0.00     0.209 HD
ENDBRANCH  40  43
ENDBRANCH   5  40
BRANCH   2  45
ATOM     45  OB2 MOL d          11.556  18.074  38.122  0.00  0.00    -0.388 OA
ATOM     46  H19 MOL d          11.556  18.160  37.176  0.00  0.00     0.210 HD
ENDBRANCH   2  45
BRANCH   1  47
ATOM     47  OA4 MOL d          11.611  15.818  39.746  0.00  0.00    -0.348 OA
BRANCH  47  48
ATOM     48  CA4 MOL d          10.883  15.578  40.828  0.00  0.00     0.090 C 
ATOM     49  CA3 MOL d          11.841  15.236  42.027  0.00  0.00     0.094 C 
ATOM     50  CA2 MOL d          11.101  15.460  43.393  0.00  0.00     0.121 C 
ATOM     51  H4  MOL d          12.698  15.925  41.980  0.00  0.00     0.091 H 
ATOM     52  CA1 MOL d          10.555  16.900  43.426  0.00  0.00     0.159 C 
ATOM     53  H2  MOL d          10.240  14.775  43.411  0.00  0.00     0.099 H 
ATOM     54  NA1 MOL d          10.536  17.541  44.585  0.00  0.00    -0.120 NA
ATOM     55  NA5 MOL d          10.057  17.532  42.245  0.00  0.00    -0.365 N 
ATOM     56  CA5 MOL d          10.129  16.865  40.931  0.00  0.00     0.059 C 
ATOM     57  H8  MOL d           9.639  18.472  42.312  0.00  0.00     0.161 HD
ATOM     58  H7  MOL d          10.594  17.569  40.226  0.00  0.00     0.079 H 
ATOM     59  H6  MOL d          10.190  14.737  40.679  0.00  0.00     0.090 H 
BRANCH  49  60
ATOM     60  OA3 MOL d          12.311  13.997  41.969  0.00  0.00    -0.390 OA
ATOM     61  H5  MOL d          11.598  13.397  41.783  0.00  0.00     0.210 HD
ENDBRANCH  49  60
BRANCH  50  62
ATOM     62  OA2 MOL d          11.837  15.177  44.479  0.00  0.00    -0.385 OA
ATOM     63  H3  MOL d          12.759  15.223  44.257  0.00  0.00     0.210 HD
ENDBRANCH  50  62
BRANCH  54  64
ATOM     64  OA7 MOL d          10.066  18.778  44.591  0.00  0.00    -0.265 OA
ATOM     65  H1  MOL d           9.633  18.955  43.764  0.00  0.00     0.247 HD
ENDBRANCH  54  64
BRANCH  56  66
ATOM     66  CA6 MOL d           8.646  16.605  40.511  0.00  0.00     0.038 C 
ATOM     67  H9  MOL d           8.044  17.496  40.743  0.00  0.00     0.077 H 
ATOM     68  H10 MOL d           8.258  15.743  41.073  0.00  0.00     0.077 H 
BRANCH  66  69
ATOM     69  OA6 MOL d           8.561  16.342  39.167  0.00  0.00    -0.399 OA
ATOM     70  H11 MOL d           9.110  15.595  38.957  0.00  0.00     0.209 HD
ENDBRANCH  66  69
ENDBRANCH  56  66
ENDBRANCH  47  48
ENDBRANCH   1  47
TORSDOF 19
ENDMDL
MODEL 3
REMARK VINA RESULT:      -5.9      2.108      2.749
REMARK  19 active torsions:
REMARK  status: ('A' for Active; 'I' for Inactive)
REMARK    1  A    between atoms: NA1_2  and  OA7_3 
REMARK    2  A    between atoms: CA2_4  and  OA2_5 
REMARK    3  A    between atoms: CA3_6  and  OA3_7 
REMARK    4  A    between atoms: CA4_8  and  OA4_9 
REMARK    5  A    between atoms: OA4_9  and  CB1_14 
REMARK    6  A    between atoms: CA5_10  and  CA6_12 
REMARK    7  A    between atoms: CA6_12  and  OA6_13 
REMARK    8  A    between atoms: CB2_15  and  OB2_20 
REMARK    9  A    between atoms: CB3_16  and  OB3_21 
REMARK   10  A    between atoms: CB4_17  and  OB4_22 
REMARK   11  A    between atoms: CB5_18  and  CB6_19 
REMARK   12  A    between atoms: CB6_19  and  OB6_24 
REMARK   13  A    between atoms: OB4_22  and  CD1_25 
REMARK   14  A    between atoms: CD2_26  and  OD2_31 
REMARK   15  A    between atoms: CD3_27  and  OD3_32 
REMARK   16  A    between atoms: CD4_28  and  OD4_33 
REMARK   17  A    between atoms: CD5_29  and  CD6_30 
REMARK   18  A    between atoms: CD6_30  and  OD6_35 
REMARK   19  A    between atoms: OD4_33  and  CD7_36 
ROOT
ATOM      1  CB1 MOL d          11.389  17.091  38.075  0.00  0.00     0.159 C 
ATOM      2  CB2 MOL d          10.650  16.504  36.780  0.00  0.00     0.110 C 
ATOM      3  CB3 MOL d          11.210  15.100  36.344  0.00  0.00     0.092 C 
ATOM      4  CB4 MOL d          12.736  15.284  36.052  0.00  0.00     0.096 C 
ATOM      5  CB5 MOL d          13.449  15.794  37.470  0.00  0.00     0.089 C 
ATOM      6  OB5 MOL d          12.857  17.097  37.856  0.00  0.00    -0.348 OA
ATOM      7  H12 MOL d          11.059  18.126  38.244  0.00  0.00     0.133 H 
ATOM      8  H13 MOL d          10.816  17.198  35.944  0.00  0.00     0.094 H 
ATOM      9  H14 MOL d          11.069  14.363  37.147  0.00  0.00     0.091 H 
ATOM     10  H15 MOL d          12.890  16.030  35.259  0.00  0.00     0.091 H 
ATOM     11  H16 MOL d          13.261  15.046  38.253  0.00  0.00     0.090 H 
ENDROOT
BRANCH   4  12
ATOM     12  OB4 MOL d          13.273  14.035  35.650  0.00  0.00    -0.348 OA
BRANCH  12  13
ATOM     13  CD1 MOL d          13.777  14.092  34.273  0.00  0.00     0.159 C 
ATOM     14  CD2 MOL d          13.455  12.812  33.401  0.00  0.00     0.110 C 
ATOM     15  CD3 MOL d          14.174  11.561  34.070  0.00  0.00     0.092 C 
ATOM     16  H23 MOL d          13.828  12.944  32.375  0.00  0.00     0.094 H 
ATOM     17  CD4 MOL d          15.715  11.811  34.063  0.00  0.00     0.092 C 
ATOM     18  H24 MOL d          13.813  11.425  35.101  0.00  0.00     0.091 H 
ATOM     19  CD5 MOL d          16.030  13.164  34.930  0.00  0.00     0.089 C 
ATOM     20  H25 MOL d          16.061  11.942  33.027  0.00  0.00     0.091 H 
ATOM     21  OD5 MOL d          15.271  14.303  34.312  0.00  0.00    -0.348 OA
ATOM     22  H26 MOL d          15.693  13.018  35.966  0.00  0.00     0.090 H 
ATOM     23  H22 MOL d          13.309  14.957  33.781  0.00  0.00     0.133 H 
BRANCH  14  24
ATOM     24  OD2 MOL d          12.022  12.655  33.381  0.00  0.00    -0.388 OA
ATOM     25  H29 MOL d          11.644  13.282  32.776  0.00  0.00     0.210 HD
ENDBRANCH  14  24
BRANCH  15  26
ATOM     26  OD3 MOL d          13.907  10.409  33.310  0.00  0.00    -0.390 OA
ATOM     27  H30 MOL d          13.273   9.869  33.767  0.00  0.00     0.210 HD
ENDBRANCH  15  26
BRANCH  17  28
ATOM     28  OD4 MOL d          16.424  10.680  34.678  0.00  0.00    -0.385 OA
BRANCH  28  29
ATOM     29  CD7 MOL d          17.345   9.989  33.791  0.00  0.00     0.005 C 
ATOM     30  H32 MOL d          17.618   9.018  34.230  0.00  0.00     0.066 H 
ATOM     31  H33 MOL d          18.251  10.598  33.657  0.00  0.00     0.066 H 
ATOM     32  H34 MOL d          16.863   9.827  32.815  0.00  0.00     0.066 H 
ENDBRANCH  28  29
ENDBRANCH  17  28
BRANCH  19  33
ATOM     33  CD6 MOL d          17.554  13.480  34.933  0.00  0.00     0.043 C 
ATOM     34  H27 MOL d          17.694  14.559  35.103  0.00  0.00     0.078 H 
ATOM     35  H28 MOL d          17.978  13.204  33.956  0.00  0.00     0.078 H 
BRANCH  33  36
ATOM     36  OD6 MOL d          18.242  12.756  35.960  0.00  0.00    -0.398 OA
ATOM     37  H31 MOL d          18.433  11.878  35.652  0.00  0.00     0.209 HD
ENDBRANCH  33  36
ENDBRANCH  19  33
ENDBRANCH  12  13
ENDBRANCH   4  12
BRANCH   3  38
ATOM     38  OB3 MOL d          10.500  14.669  35.157  0.00  0.00    -0.390 OA
ATOM     39  H20 MOL d          10.829  13.820  34.883  0.00  0.00     0.210 HD
ENDBRANCH   3  38
BRANCH   5  40
ATOM     40  CB6 MOL d          14.943  16.009  37.331  0.00  0.00     0.043 C 
ATOM     41  H17 MOL d          15.136  17.069  37.110  0.00  0.00     0.078 H 
ATOM     42  H18 MOL d          15.321  15.388  36.505  0.00  0.00     0.078 H 
BRANCH  40  43
ATOM     43  OB6 MOL d          15.600  15.662  38.502  0.00  0.00    -0.398 OA
ATOM     44  H21 MOL d          15.323  16.240  39.203  0.00  0.00     0.209 HD
ENDBRANCH  40  43
ENDBRANCH   5  40
BRANCH   2  45
ATOM     45  OB2 MOL d           9.231  16.463  37.061  0.00  0.00    -0.388 OA
ATOM     46  H19 MOL d           8.966  17.280  37.467  0.00  0.00     0.210 HD
ENDBRANCH   2  45
BRANCH   1  47
ATOM     47  OA4 MOL d          11.008  16.302  39.193  0.00  0.00    -0.348 OA
BRANCH  47  48
ATOM     48  CA4 MOL d          11.111  16.940  40.351  0.00  0.00     0.090 C 
ATOM     49  CA3 MOL d           9.684  17.063  41.000  0.00  0.00     0.094 C 
ATOM     50  CA2 MOL d           9.812  17.320  42.543  0.00  0.00     0.121 C 
ATOM     51  H4  MOL d           9.162  16.106  40.849  0.00  0.00     0.091 H 
ATOM     52  CA1 MOL d          10.678  16.204  43.157  0.00  0.00     0.159 C 
ATOM     53  H2  MOL d          10.350  18.270  42.671  0.00  0.00     0.099 H 
ATOM     54  NA1 MOL d          10.390  15.781  44.379  0.00  0.00    -0.120 NA
ATOM     55  NA5 MOL d          11.784  15.646  42.444  0.00  0.00    -0.365 N 
ATOM     56  CA5 MOL d          12.085  16.052  41.058  0.00  0.00     0.059 C 
ATOM     57  H8  MOL d          12.383  14.947  42.906  0.00  0.00     0.161 HD
ATOM     58  H7  MOL d          12.180  15.136  40.456  0.00  0.00     0.079 H 
ATOM     59  H6  MOL d          11.531  17.949  40.228  0.00  0.00     0.090 H 
BRANCH  49  60
ATOM     60  OA3 MOL d           8.950  18.020  40.446  0.00  0.00    -0.390 OA
ATOM     61  H5  MOL d           8.048  17.931  40.731  0.00  0.00     0.210 HD
ENDBRANCH  49  60
BRANCH  50  62
ATOM     62  OA2 MOL d           8.640  17.456  43.185  0.00  0.00    -0.385 OA
ATOM     63  H3  MOL d           8.702  17.055  44.044  0.00  0.00     0.210 HD
ENDBRANCH  50  62
BRANCH  54  64
ATOM     64  OA7 MOL d          11.145  14.819  44.886  0.00  0.00    -0.265 OA
ATOM     65  H1  MOL d          10.592  14.101  45.170  0.00  0.00     0.247 HD
ENDBRANCH  54  64
BRANCH  56  66
ATOM     66  CA6 MOL d          13.464  16.782  41.124  0.00  0.00     0.038 C 
ATOM     67  H9  MOL d          14.195  16.229  40.516  0.00  0.00     0.077 H 
ATOM     68  H10 MOL d          13.806  16.813  42.170  0.00  0.00     0.077 H 
BRANCH  66  69
ATOM     69  OA6 MOL d          13.359  18.064  40.647  0.00  0.00    -0.399 OA
ATOM     70  H11 MOL d          12.480  18.387  40.803  0.00  0.00     0.209 HD
ENDBRANCH  66  69
ENDBRANCH  56  66
ENDBRANCH  47  48
ENDBRANCH   1  47
TORSDOF 19
ENDMDL
MODEL 4
REMARK VINA RESULT:      -5.8      1.998      3.167
REMARK  19 active torsions:
REMARK  status: ('A' for Active; 'I' for Inactive)
REMARK    1  A    between atoms: NA1_2  and  OA7_3 
REMARK    2  A    between atoms: CA2_4  and  OA2_5 
REMARK    3  A    between atoms: CA3_6  and  OA3_7 
REMARK    4  A    between atoms: CA4_8  and  OA4_9 
REMARK    5  A    between atoms: OA4_9  and  CB1_14 
REMARK    6  A    between atoms: CA5_10  and  CA6_12 
REMARK    7  A    between atoms: CA6_12  and  OA6_13 
REMARK    8  A    between atoms: CB2_15  and  OB2_20 
REMARK    9  A    between atoms: CB3_16  and  OB3_21 
REMARK   10  A    between atoms: CB4_17  and  OB4_22 
REMARK   11  A    between atoms: CB5_18  and  CB6_19 
REMARK   12  A    between atoms: CB6_19  and  OB6_24 
REMARK   13  A    between atoms: OB4_22  and  CD1_25 
REMARK   14  A    between atoms: CD2_26  and  OD2_31 
REMARK   15  A    between atoms: CD3_27  and  OD3_32 
REMARK   16  A    between atoms: CD4_28  and  OD4_33 
REMARK   17  A    between atoms: CD5_29  and  CD6_30 
REMARK   18  A    between atoms: CD6_30  and  OD6_35 
REMARK   19  A    between atoms: OD4_33  and  CD7_36 
ROOT
ATOM      1  CB1 MOL d          12.830  16.778  39.069  0.00  0.00     0.159 C 
ATOM      2  CB2 MOL d          12.906  17.072  37.496  0.00  0.00     0.110 C 
ATOM      3  CB3 MOL d          13.740  15.991  36.715  0.00  0.00     0.092 C 
ATOM      4  CB4 MOL d          15.178  15.985  37.329  0.00  0.00     0.096 C 
ATOM      5  CB5 MOL d          15.024  15.571  38.936  0.00  0.00     0.089 C 
ATOM      6  OB5 MOL d          14.199  16.598  39.614  0.00  0.00    -0.348 OA
ATOM      7  H12 MOL d          12.364  17.636  39.577  0.00  0.00     0.133 H 
ATOM      8  H13 MOL d          13.407  18.040  37.350  0.00  0.00     0.094 H 
ATOM      9  H14 MOL d          13.281  14.997  36.827  0.00  0.00     0.091 H 
ATOM     10  H15 MOL d          15.641  16.979  37.235  0.00  0.00     0.091 H 
ATOM     11  H16 MOL d          14.537  14.588  39.007  0.00  0.00     0.090 H 
ENDROOT
BRANCH   4  12
ATOM     12  OB4 MOL d          15.960  15.022  36.642  0.00  0.00    -0.348 OA
BRANCH  12  13
ATOM     13  CD1 MOL d          15.139  14.232  35.718  0.00  0.00     0.159 C 
ATOM     14  CD2 MOL d          15.087  12.685  36.043  0.00  0.00     0.110 C 
ATOM     15  CD3 MOL d          16.560  12.100  35.916  0.00  0.00     0.092 C 
ATOM     16  H23 MOL d          14.424  12.168  35.333  0.00  0.00     0.094 H 
ATOM     17  CD4 MOL d          17.050  12.299  34.446  0.00  0.00     0.092 C 
ATOM     18  H24 MOL d          17.234  12.618  36.616  0.00  0.00     0.091 H 
ATOM     19  CD5 MOL d          17.055  13.901  34.109  0.00  0.00     0.089 C 
ATOM     20  H25 MOL d          16.370  11.774  33.759  0.00  0.00     0.091 H 
ATOM     21  OD5 MOL d          15.664  14.427  34.316  0.00  0.00    -0.348 OA
ATOM     22  H26 MOL d          17.747  14.414  34.792  0.00  0.00     0.090 H 
ATOM     23  H22 MOL d          14.111  14.619  35.769  0.00  0.00     0.133 H 
BRANCH  14  24
ATOM     24  OD2 MOL d          14.571  12.544  37.382  0.00  0.00    -0.388 OA
ATOM     25  H29 MOL d          13.806  11.981  37.368  0.00  0.00     0.210 HD
ENDBRANCH  14  24
BRANCH  15  26
ATOM     26  OD3 MOL d          16.540  10.723  36.195  0.00  0.00    -0.390 OA
ATOM     27  H30 MOL d          16.147  10.259  35.465  0.00  0.00     0.210 HD
ENDBRANCH  15  26
BRANCH  17  28
ATOM     28  OD4 MOL d          18.413  11.776  34.281  0.00  0.00    -0.385 OA
BRANCH  28  29
ATOM     29  CD7 MOL d          18.505  10.568  33.479  0.00  0.00     0.005 C 
ATOM     30  H32 MOL d          17.582  10.446  32.892  0.00  0.00     0.066 H 
ATOM     31  H33 MOL d          18.636   9.698  34.141  0.00  0.00     0.066 H 
ATOM     32  H34 MOL d          19.366  10.645  32.798  0.00  0.00     0.066 H 
ENDBRANCH  28  29
ENDBRANCH  17  28
BRANCH  19  33
ATOM     33  CD6 MOL d          17.507  14.159  32.642  0.00  0.00     0.043 C 
ATOM     34  H27 MOL d          17.289  15.205  32.380  0.00  0.00     0.078 H 
ATOM     35  H28 MOL d          16.947  13.488  31.973  0.00  0.00     0.078 H 
BRANCH  33  36
ATOM     36  OD6 MOL d          18.909  13.920  32.471  0.00  0.00    -0.398 OA
ATOM     37  H31 MOL d          19.143  13.099  32.889  0.00  0.00     0.209 HD
ENDBRANCH  33  36
ENDBRANCH  19  33
ENDBRANCH  12  13
ENDBRANCH   4  12
BRANCH   3  38
ATOM     38  OB3 MOL d          13.771  16.356  35.313  0.00  0.00    -0.390 OA
ATOM     39  H20 MOL d          12.924  16.177  34.921  0.00  0.00     0.210 HD
ENDBRANCH   3  38
BRANCH   5  40
ATOM     40  CB6 MOL d          16.356  15.524  39.660  0.00  0.00     0.043 C 
ATOM     41  H17 MOL d          16.557  16.506  40.111  0.00  0.00     0.078 H 
ATOM     42  H18 MOL d          17.150  15.282  38.938  0.00  0.00     0.078 H 
BRANCH  40  43
ATOM     43  OB6 MOL d          16.338  14.560  40.657  0.00  0.00    -0.398 OA
ATOM     44  H21 MOL d          16.780  14.896  41.429  0.00  0.00     0.209 HD
ENDBRANCH  40  43
ENDBRANCH   5  40
BRANCH   2  45
ATOM     45  OB2 MOL d          11.551  17.182  37.001  0.00  0.00    -0.388 OA
ATOM     46  H19 MOL d          11.334  18.097  36.873  0.00  0.00     0.210 HD
ENDBRANCH   2  45
BRANCH   1  47
ATOM     47  OA4 MOL d          12.011  15.633  39.263  0.00  0.00    -0.348 OA
BRANCH  47  48
ATOM     48  CA4 MOL d          11.339  15.650  40.405  0.00  0.00     0.090 C 
ATOM     49  CA3 MOL d          12.314  15.284  41.583  0.00  0.00     0.094 C 
ATOM     50  CA2 MOL d          11.729  15.789  42.949  0.00  0.00     0.121 C 
ATOM     51  H4  MOL d          13.269  15.800  41.402  0.00  0.00     0.091 H 
ATOM     52  CA1 MOL d          11.438  17.297  42.831  0.00  0.00     0.159 C 
ATOM     53  H2  MOL d          10.769  15.274  43.100  0.00  0.00     0.099 H 
ATOM     54  NA1 MOL d          11.616  18.059  43.900  0.00  0.00    -0.120 NA
ATOM     55  NA5 MOL d          10.965  17.869  41.609  0.00  0.00    -0.365 N 
ATOM     56  CA5 MOL d          10.823  17.055  40.388  0.00  0.00     0.059 C 
ATOM     57  H8  MOL d          10.719  18.869  41.581  0.00  0.00     0.161 HD
ATOM     58  H7  MOL d          11.345  17.580  39.575  0.00  0.00     0.079 H 
ATOM     59  H6  MOL d          10.504  14.935  40.402  0.00  0.00     0.090 H 
BRANCH  49  60
ATOM     60  OA3 MOL d          12.562  13.982  41.655  0.00  0.00    -0.390 OA
ATOM     61  H5  MOL d          11.779  13.527  41.940  0.00  0.00     0.210 HD
ENDBRANCH  49  60
BRANCH  50  62
ATOM     62  OA2 MOL d          12.487  15.506  44.020  0.00  0.00    -0.385 OA
ATOM     63  H3  MOL d          12.399  14.585  44.234  0.00  0.00     0.210 HD
ENDBRANCH  50  62
BRANCH  54  64
ATOM     64  OA7 MOL d          11.364  19.353  43.776  0.00  0.00    -0.265 OA
ATOM     65  H1  MOL d          10.674  19.598  44.380  0.00  0.00     0.247 HD
ENDBRANCH  54  64
BRANCH  56  66
ATOM     66  CA6 MOL d           9.290  17.015  40.086  0.00  0.00     0.038 C 
ATOM     67  H9  MOL d           8.865  18.017  40.247  0.00  0.00     0.077 H 
ATOM     68  H10 MOL d           8.807  16.298  40.767  0.00  0.00     0.077 H 
BRANCH  66  69
ATOM     69  OA6 MOL d           9.059  16.630  38.790  0.00  0.00    -0.399 OA
ATOM     70  H11 MOL d           9.877  16.356  38.392  0.00  0.00     0.209 HD
ENDBRANCH  66  69
ENDBRANCH  56  66
ENDBRANCH  47  48
ENDBRANCH   1  47
TORSDOF 19
ENDMDL
MODEL 5
REMARK VINA RESULT:      -5.3      1.849      3.439
REMARK  19 active torsions:
REMARK  status: ('A' for Active; 'I' for Inactive)
REMARK    1  A    between atoms: NA1_2  and  OA7_3 
REMARK    2  A    between atoms: CA2_4  and  OA2_5 
REMARK    3  A    between atoms: CA3_6  and  OA3_7 
REMARK    4  A    between atoms: CA4_8  and  OA4_9 
REMARK    5  A    between atoms: OA4_9  and  CB1_14 
REMARK    6  A    between atoms: CA5_10  and  CA6_12 
REMARK    7  A    between atoms: CA6_12  and  OA6_13 
REMARK    8  A    between atoms: CB2_15  and  OB2_20 
REMARK    9  A    between atoms: CB3_16  and  OB3_21 
REMARK   10  A    between atoms: CB4_17  and  OB4_22 
REMARK   11  A    between atoms: CB5_18  and  CB6_19 
REMARK   12  A    between atoms: CB6_19  and  OB6_24 
REMARK   13  A    between atoms: OB4_22  and  CD1_25 
REMARK   14  A    between atoms: CD2_26  and  OD2_31 
REMARK   15  A    between atoms: CD3_27  and  OD3_32 
REMARK   16  A    between atoms: CD4_28  and  OD4_33 
REMARK   17  A    between atoms: CD5_29  and  CD6_30 
REMARK   18  A    between atoms: CD6_30  and  OD6_35 
REMARK   19  A    between atoms: OD4_33  and  CD7_36 
ROOT
ATOM      1  CB1 MOL d          13.570  16.312  37.463  0.00  0.00     0.159 C 
ATOM      2  CB2 MOL d          12.696  16.110  36.134  0.00  0.00     0.110 C 
ATOM      3  CB3 MOL d          12.460  14.594  35.786  0.00  0.00     0.092 C 
ATOM      4  CB4 MOL d          13.868  13.938  35.605  0.00  0.00     0.096 C 
ATOM      5  CB5 MOL d          14.674  14.097  37.056  0.00  0.00     0.089 C 
ATOM      6  OB5 MOL d          14.833  15.539  37.356  0.00  0.00    -0.348 OA
ATOM      7  H12 MOL d          13.823  17.376  37.573  0.00  0.00     0.133 H 
ATOM      8  H13 MOL d          13.242  16.559  35.292  0.00  0.00     0.094 H 
ATOM      9  H14 MOL d          11.916  14.093  36.599  0.00  0.00     0.091 H 
ATOM     10  H15 MOL d          14.428  14.441  34.803  0.00  0.00     0.091 H 
ATOM     11  H16 MOL d          14.085  13.609  37.846  0.00  0.00     0.090 H 
ENDROOT
BRANCH   4  12
ATOM     12  OB4 MOL d          13.692  12.569  35.284  0.00  0.00    -0.348 OA
BRANCH  12  13
ATOM     13  CD1 MOL d          13.560  12.375  33.836  0.00  0.00     0.159 C 
ATOM     14  CD2 MOL d          14.047  10.964  33.313  0.00  0.00     0.110 C 
ATOM     15  CD3 MOL d          15.600  10.827  33.625  0.00  0.00     0.092 C 
ATOM     16  H23 MOL d          13.880  10.879  32.229  0.00  0.00     0.094 H 
ATOM     17  CD4 MOL d          16.363  11.950  32.852  0.00  0.00     0.092 C 
ATOM     18  H24 MOL d          15.778  10.919  34.707  0.00  0.00     0.091 H 
ATOM     19  CD5 MOL d          15.816  13.404  33.369  0.00  0.00     0.089 C 
ATOM     20  H25 MOL d          16.178  11.843  31.773  0.00  0.00     0.091 H 
ATOM     21  OD5 MOL d          14.335  13.460  33.128  0.00  0.00    -0.348 OA
ATOM     22  H26 MOL d          16.017  13.506  34.445  0.00  0.00     0.090 H 
ATOM     23  H22 MOL d          12.495  12.476  33.580  0.00  0.00     0.133 H 
BRANCH  14  24
ATOM     24  OD2 MOL d          13.275   9.960  34.004  0.00  0.00    -0.388 OA
ATOM     25  H29 MOL d          12.839   9.405  33.369  0.00  0.00     0.210 HD
ENDBRANCH  14  24
BRANCH  15  26
ATOM     26  OD3 MOL d          16.060   9.581  33.165  0.00  0.00    -0.390 OA
ATOM     27  H30 MOL d          16.269   9.027  33.908  0.00  0.00     0.210 HD
ENDBRANCH  15  26
BRANCH  17  28
ATOM     28  OD4 MOL d          17.806  11.867  33.113  0.00  0.00    -0.385 OA
BRANCH  28  29
ATOM     29  CD7 MOL d          18.165  11.818  34.520  0.00  0.00     0.005 C 
ATOM     30  H32 MOL d          17.251  11.786  35.131  0.00  0.00     0.066 H 
ATOM     31  H33 MOL d          18.748  12.714  34.781  0.00  0.00     0.066 H 
ATOM     32  H34 MOL d          18.768  10.918  34.714  0.00  0.00     0.066 H 
ENDBRANCH  28  29
ENDBRANCH  17  28
BRANCH  19  33
ATOM     33  CD6 MOL d          16.522  14.565  32.610  0.00  0.00     0.043 C 
ATOM     34  H27 MOL d          16.693  14.258  31.567  0.00  0.00     0.078 H 
ATOM     35  H28 MOL d          17.487  14.773  33.094  0.00  0.00     0.078 H 
BRANCH  33  36
ATOM     36  OD6 MOL d          15.731  15.760  32.617  0.00  0.00    -0.398 OA
ATOM     37  H31 MOL d          16.218  16.457  33.041  0.00  0.00     0.209 HD
ENDBRANCH  33  36
ENDBRANCH  19  33
ENDBRANCH  12  13
ENDBRANCH   4  12
BRANCH   3  38
ATOM     38  OB3 MOL d          11.687  14.518  34.563  0.00  0.00    -0.390 OA
ATOM     39  H20 MOL d          11.391  15.388  34.322  0.00  0.00     0.210 HD
ENDBRANCH   3  38
BRANCH   5  40
ATOM     40  CB6 MOL d          16.064  13.494  37.023  0.00  0.00     0.043 C 
ATOM     41  H17 MOL d          16.069  12.632  36.339  0.00  0.00     0.078 H 
ATOM     42  H18 MOL d          16.336  13.159  38.036  0.00  0.00     0.078 H 
BRANCH  40  43
ATOM     43  OB6 MOL d          16.994  14.426  36.587  0.00  0.00    -0.398 OA
ATOM     44  H21 MOL d          16.601  14.974  35.917  0.00  0.00     0.209 HD
ENDBRANCH  40  43
ENDBRANCH   5  40
BRANCH   2  45
ATOM     45  OB2 MOL d          11.454  16.832  36.309  0.00  0.00    -0.388 OA
ATOM     46  H19 MOL d          11.595  17.565  36.895  0.00  0.00     0.210 HD
ENDBRANCH   2  45
BRANCH   1  47
ATOM     47  OA4 MOL d          12.779  15.912  38.573  0.00  0.00    -0.348 OA
BRANCH  47  48
ATOM     48  CA4 MOL d          13.158  16.464  39.718  0.00  0.00     0.090 C 
ATOM     49  CA3 MOL d          11.980  17.341  40.280  0.00  0.00     0.094 C 
ATOM     50  CA2 MOL d          12.166  17.574  41.821  0.00  0.00     0.121 C 
ATOM     51  H4  MOL d          11.043  16.785  40.124  0.00  0.00     0.091 H 
ATOM     52  CA1 MOL d          12.305  16.205  42.512  0.00  0.00     0.159 C 
ATOM     53  H2  MOL d          13.115  18.114  41.955  0.00  0.00     0.099 H 
ATOM     54  NA1 MOL d          11.796  16.056  43.726  0.00  0.00    -0.120 NA
ATOM     55  NA5 MOL d          12.985  15.118  41.879  0.00  0.00    -0.365 N 
ATOM     56  CA5 MOL d          13.502  15.238  40.502  0.00  0.00     0.059 C 
ATOM     57  H8  MOL d          13.117  14.236  42.393  0.00  0.00     0.161 HD
ATOM     58  H7  MOL d          13.130  14.375  39.931  0.00  0.00     0.079 H 
ATOM     59  H6  MOL d          14.045  17.102  39.593  0.00  0.00     0.090 H 
BRANCH  49  60
ATOM     60  OA3 MOL d          11.870  18.509  39.660  0.00  0.00    -0.390 OA
ATOM     61  H5  MOL d          11.051  18.535  39.179  0.00  0.00     0.210 HD
ENDBRANCH  49  60
BRANCH  50  62
ATOM     62  OA2 MOL d          11.214  18.330  42.391  0.00  0.00    -0.385 OA
ATOM     63  H3  MOL d          11.621  19.001  42.925  0.00  0.00     0.210 HD
ENDBRANCH  50  62
BRANCH  54  64
ATOM     64  OA7 MOL d          11.923  14.870  44.301  0.00  0.00    -0.265 OA
ATOM     65  H1  MOL d          11.489  14.881  45.145  0.00  0.00     0.247 HD
ENDBRANCH  54  64
BRANCH  56  66
ATOM     66  CA6 MOL d          15.057  15.152  40.629  0.00  0.00     0.038 C 
ATOM     67  H9  MOL d          15.410  14.241  40.125  0.00  0.00     0.077 H 
ATOM     68  H10 MOL d          15.330  15.110  41.694  0.00  0.00     0.077 H 
BRANCH  66  69
ATOM     69  OA6 MOL d          15.653  16.245  40.055  0.00  0.00    -0.399 OA
ATOM     70  H11 MOL d          16.596  16.124  40.051  0.00  0.00     0.209 HD
ENDBRANCH  66  69
ENDBRANCH  56  66
ENDBRANCH  47  48
ENDBRANCH   1  47
TORSDOF 19
ENDMDL
MODEL 6
REMARK VINA RESULT:      -5.2      1.746      3.202
REMARK  19 active torsions:
REMARK  status: ('A' for Active; 'I' for Inactive)
REMARK    1  A    between atoms: NA1_2  and  OA7_3 
REMARK    2  A    between atoms: CA2_4  and  OA2_5 
REMARK    3  A    between atoms: CA3_6  and  OA3_7 
REMARK    4  A    between atoms: CA4_8  and  OA4_9 
REMARK    5  A    between atoms: OA4_9  and  CB1_14 
REMARK    6  A    between atoms: CA5_10  and  CA6_12 
REMARK    7  A    between atoms: CA6_12  and  OA6_13 
REMARK    8  A    between atoms: CB2_15  and  OB2_20 
REMARK    9  A    between atoms: CB3_16  and  OB3_21 
REMARK   10  A    between atoms: CB4_17  and  OB4_22 
REMARK   11  A    between atoms: CB5_18  and  CB6_19 
REMARK   12  A    between atoms: CB6_19  and  OB6_24 
REMARK   13  A    between atoms: OB4_22  and  CD1_25 
REMARK   14  A    between atoms: CD2_26  and  OD2_31 
REMARK   15  A    between atoms: CD3_27  and  OD3_32 
REMARK   16  A    between atoms: CD4_28  and  OD4_33 
REMARK   17  A    between atoms: CD5_29  and  CD6_30 
REMARK   18  A    between atoms: CD6_30  and  OD6_35 
REMARK   19  A    between atoms: OD4_33  and  CD7_36 
ROOT
ATOM      1  CB1 MOL d          13.500  14.626  39.974  0.00  0.00     0.159 C 
ATOM      2  CB2 MOL d          15.050  14.614  39.564  0.00  0.00     0.110 C 
ATOM      3  CB3 MOL d          15.389  15.658  38.437  0.00  0.00     0.092 C 
ATOM      4  CB4 MOL d          14.505  15.302  37.197  0.00  0.00     0.096 C 
ATOM      5  CB5 MOL d          12.913  15.437  37.674  0.00  0.00     0.089 C 
ATOM      6  OB5 MOL d          12.658  14.463  38.762  0.00  0.00    -0.348 OA
ATOM      7  H12 MOL d          13.298  13.785  40.653  0.00  0.00     0.133 H 
ATOM      8  H13 MOL d          15.294  13.616  39.171  0.00  0.00     0.094 H 
ATOM      9  H14 MOL d          15.162  16.678  38.778  0.00  0.00     0.091 H 
ATOM     10  H15 MOL d          14.713  14.277  36.857  0.00  0.00     0.091 H 
ATOM     11  H16 MOL d          12.734  16.461  38.034  0.00  0.00     0.090 H 
ENDROOT
BRANCH   4  12
ATOM     12  OB4 MOL d          14.790  16.223  36.158  0.00  0.00    -0.348 OA
BRANCH  12  13
ATOM     13  CD1 MOL d          15.686  15.634  35.157  0.00  0.00     0.159 C 
ATOM     14  CD2 MOL d          15.075  15.540  33.701  0.00  0.00     0.110 C 
ATOM     15  CD3 MOL d          13.805  14.585  33.755  0.00  0.00     0.092 C 
ATOM     16  H23 MOL d          15.816  15.126  33.001  0.00  0.00     0.094 H 
ATOM     17  CD4 MOL d          14.270  13.164  34.208  0.00  0.00     0.092 C 
ATOM     18  H24 MOL d          13.060  14.985  34.460  0.00  0.00     0.091 H 
ATOM     19  CD5 MOL d          14.942  13.284  35.696  0.00  0.00     0.089 C 
ATOM     20  H25 MOL d          15.011  12.776  33.493  0.00  0.00     0.091 H 
ATOM     21  OD5 MOL d          16.086  14.253  35.617  0.00  0.00    -0.348 OA
ATOM     22  H26 MOL d          14.190  13.660  36.405  0.00  0.00     0.090 H 
ATOM     23  H22 MOL d          16.586  16.264  35.101  0.00  0.00     0.133 H 
BRANCH  14  24
ATOM     24  OD2 MOL d          14.719  16.877  33.298  0.00  0.00    -0.388 OA
ATOM     25  H29 MOL d          14.955  17.489  33.986  0.00  0.00     0.210 HD
ENDBRANCH  14  24
BRANCH  15  26
ATOM     26  OD3 MOL d          13.245  14.480  32.470  0.00  0.00    -0.390 OA
ATOM     27  H30 MOL d          13.747  13.856  31.958  0.00  0.00     0.210 HD
ENDBRANCH  15  26
BRANCH  17  28
ATOM     28  OD4 MOL d          13.126  12.245  34.277  0.00  0.00    -0.385 OA
BRANCH  28  29
ATOM     29  CD7 MOL d          13.138  11.187  33.281  0.00  0.00     0.005 C 
ATOM     30  H32 MOL d          13.112  10.209  33.783  0.00  0.00     0.066 H 
ATOM     31  H33 MOL d          14.054  11.264  32.676  0.00  0.00     0.066 H 
ATOM     32  H34 MOL d          12.258  11.288  32.628  0.00  0.00     0.066 H 
ENDBRANCH  28  29
ENDBRANCH  17  28
BRANCH  19  33
ATOM     33  CD6 MOL d          15.453  11.898  36.188  0.00  0.00     0.043 C 
ATOM     34  H27 MOL d          14.622  11.363  36.672  0.00  0.00     0.078 H 
ATOM     35  H28 MOL d          16.262  12.054  36.917  0.00  0.00     0.078 H 
BRANCH  33  36
ATOM     36  OD6 MOL d          15.949  11.102  35.106  0.00  0.00    -0.398 OA
ATOM     37  H31 MOL d          16.366  11.667  34.465  0.00  0.00     0.209 HD
ENDBRANCH  33  36
ENDBRANCH  19  33
ENDBRANCH  12  13
ENDBRANCH   4  12
BRANCH   3  38
ATOM     38  OB3 MOL d          16.799  15.553  38.121  0.00  0.00    -0.390 OA
ATOM     39  H20 MOL d          17.264  15.194  38.868  0.00  0.00     0.210 HD
ENDBRANCH   3  38
BRANCH   5  40
ATOM     40  CB6 MOL d          11.937  15.121  36.558  0.00  0.00     0.043 C 
ATOM     41  H17 MOL d          11.019  14.697  36.991  0.00  0.00     0.078 H 
ATOM     42  H18 MOL d          12.393  14.387  35.877  0.00  0.00     0.078 H 
BRANCH  40  43
ATOM     43  OB6 MOL d          11.618  16.267  35.846  0.00  0.00    -0.398 OA
ATOM     44  H21 MOL d          10.703  16.236  35.591  0.00  0.00     0.209 HD
ENDBRANCH  40  43
ENDBRANCH   5  40
BRANCH   2  45
ATOM     45  OB2 MOL d          15.826  14.833  40.765  0.00  0.00    -0.388 OA
ATOM     46  H19 MOL d          16.607  14.293  40.739  0.00  0.00     0.210 HD
ENDBRANCH   2  45
BRANCH   1  47
ATOM     47  OA4 MOL d          13.237  15.841  40.661  0.00  0.00    -0.348 OA
BRANCH  47  48
ATOM     48  CA4 MOL d          12.043  15.876  41.235  0.00  0.00     0.090 C 
ATOM     49  CA3 MOL d          12.157  15.308  42.697  0.00  0.00     0.094 C 
ATOM     50  CA2 MOL d          10.946  15.800  43.566  0.00  0.00     0.121 C 
ATOM     51  H4  MOL d          13.085  15.702  43.139  0.00  0.00     0.091 H 
ATOM     52  CA1 MOL d          10.887  17.338  43.501  0.00  0.00     0.159 C 
ATOM     53  H2  MOL d          10.031  15.410  43.096  0.00  0.00     0.099 H 
ATOM     54  NA1 MOL d          10.492  18.000  44.578  0.00  0.00    -0.120 NA
ATOM     55  NA5 MOL d          11.227  18.044  42.306  0.00  0.00    -0.365 N 
ATOM     56  CA5 MOL d          11.734  17.335  41.116  0.00  0.00     0.059 C 
ATOM     57  H8  MOL d          11.116  19.068  42.275  0.00  0.00     0.161 HD
ATOM     58  H7  MOL d          12.661  17.836  40.800  0.00  0.00     0.079 H 
ATOM     59  H6  MOL d          11.303  15.281  40.681  0.00  0.00     0.090 H 
BRANCH  49  60
ATOM     60  OA3 MOL d          12.222  13.983  42.727  0.00  0.00    -0.390 OA
ATOM     61  H5  MOL d          12.795  13.679  42.031  0.00  0.00     0.210 HD
ENDBRANCH  49  60
BRANCH  50  62
ATOM     62  OA2 MOL d          10.948  15.350  44.831  0.00  0.00    -0.385 OA
ATOM     63  H3  MOL d          10.322  14.641  44.914  0.00  0.00     0.210 HD
ENDBRANCH  50  62
BRANCH  54  64
ATOM     64  OA7 MOL d          10.451  19.321  44.502  0.00  0.00    -0.265 OA
ATOM     65  H1  MOL d           9.685  19.640  44.963  0.00  0.00     0.247 HD
ENDBRANCH  54  64
BRANCH  56  66
ATOM     66  CA6 MOL d          10.638  17.521  40.018  0.00  0.00     0.038 C 
ATOM     67  H9  MOL d           9.655  17.612  40.502  0.00  0.00     0.077 H 
ATOM     68  H10 MOL d          10.640  16.644  39.354  0.00  0.00     0.077 H 
BRANCH  66  69
ATOM     69  OA6 MOL d          10.880  18.648  39.275  0.00  0.00    -0.399 OA
ATOM     70  H11 MOL d          11.802  18.868  39.327  0.00  0.00     0.209 HD
ENDBRANCH  66  69
ENDBRANCH  56  66
ENDBRANCH  47  48
ENDBRANCH   1  47
TORSDOF 19
ENDMDL
MODEL 7
REMARK VINA RESULT:      -5.2      3.217      8.948
REMARK  19 active torsions:
REMARK  status: ('A' for Active; 'I' for Inactive)
REMARK    1  A    between atoms: NA1_2  and  OA7_3 
REMARK    2  A    between atoms: CA2_4  and  OA2_5 
REMARK    3  A    between atoms: CA3_6  and  OA3_7 
REMARK    4  A    between atoms: CA4_8  and  OA4_9 
REMARK    5  A    between atoms: OA4_9  and  CB1_14 
REMARK    6  A    between atoms: CA5_10  and  CA6_12 
REMARK    7  A    between atoms: CA6_12  and  OA6_13 
REMARK    8  A    between atoms: CB2_15  and  OB2_20 
REMARK    9  A    between atoms: CB3_16  and  OB3_21 
REMARK   10  A    between atoms: CB4_17  and  OB4_22 
REMARK   11  A    between atoms: CB5_18  and  CB6_19 
REMARK   12  A    between atoms: CB6_19  and  OB6_24 
REMARK   13  A    between atoms: OB4_22  and  CD1_25 
REMARK   14  A    between atoms: CD2_26  and  OD2_31 
REMARK   15  A    between atoms: CD3_27  and  OD3_32 
REMARK   16  A    between atoms: CD4_28  and  OD4_33 
REMARK   17  A    between atoms: CD5_29  and  CD6_30 
REMARK   18  A    between atoms: CD6_30  and  OD6_35 
REMARK   19  A    between atoms: OD4_33  and  CD7_36 
ROOT
ATOM      1  CB1 MOL d          12.778  15.384  35.367  0.00  0.00     0.159 C 
ATOM      2  CB2 MOL d          13.166  16.841  35.909  0.00  0.00     0.110 C 
ATOM      3  CB3 MOL d          13.111  16.941  37.477  0.00  0.00     0.092 C 
ATOM      4  CB4 MOL d          11.653  16.579  37.912  0.00  0.00     0.096 C 
ATOM      5  CB5 MOL d          11.363  15.017  37.405  0.00  0.00     0.089 C 
ATOM      6  OB5 MOL d          11.467  14.971  35.927  0.00  0.00    -0.348 OA
ATOM      7  H12 MOL d          12.693  15.415  34.271  0.00  0.00     0.133 H 
ATOM      8  H13 MOL d          12.438  17.562  35.509  0.00  0.00     0.094 H 
ATOM      9  H14 MOL d          13.823  16.237  37.932  0.00  0.00     0.091 H 
ATOM     10  H15 MOL d          10.931  17.268  37.451  0.00  0.00     0.091 H 
ATOM     11  H16 MOL d          12.111  14.350  37.857  0.00  0.00     0.090 H 
ENDROOT
BRANCH   4  12
ATOM     12  OB4 MOL d          11.567  16.664  39.325  0.00  0.00    -0.348 OA
BRANCH  12  13
ATOM     13  CD1 MOL d          12.894  16.573  39.944  0.00  0.00     0.159 C 
ATOM     14  CD2 MOL d          13.161  15.229  40.734  0.00  0.00     0.110 C 
ATOM     15  CD3 MOL d          12.119  15.140  41.932  0.00  0.00     0.092 C 
ATOM     16  H23 MOL d          14.185  15.217  41.135  0.00  0.00     0.094 H 
ATOM     17  CD4 MOL d          12.359  16.352  42.889  0.00  0.00     0.092 C 
ATOM     18  H24 MOL d          11.091  15.160  41.542  0.00  0.00     0.091 H 
ATOM     19  CD5 MOL d          12.125  17.736  42.047  0.00  0.00     0.089 C 
ATOM     20  H25 MOL d          13.389  16.318  43.274  0.00  0.00     0.091 H 
ATOM     21  OD5 MOL d          13.072  17.743  40.882  0.00  0.00    -0.348 OA
ATOM     22  H26 MOL d          11.089  17.767  41.679  0.00  0.00     0.090 H 
ATOM     23  H22 MOL d          13.644  16.644  39.143  0.00  0.00     0.133 H 
BRANCH  14  24
ATOM     24  OD2 MOL d          12.992  14.142  39.801  0.00  0.00    -0.388 OA
ATOM     25  H29 MOL d          12.306  14.362  39.181  0.00  0.00     0.210 HD
ENDBRANCH  14  24
BRANCH  15  26
ATOM     26  OD3 MOL d          12.339  13.955  42.654  0.00  0.00    -0.390 OA
ATOM     27  H30 MOL d          12.280  14.137  43.585  0.00  0.00     0.210 HD
ENDBRANCH  15  26
BRANCH  17  28
ATOM     28  OD4 MOL d          11.414  16.316  44.013  0.00  0.00    -0.385 OA
BRANCH  28  29
ATOM     29  CD7 MOL d          10.037  16.041  43.639  0.00  0.00     0.005 C 
ATOM     30  H32 MOL d           9.993  15.100  43.070  0.00  0.00     0.066 H 
ATOM     31  H33 MOL d           9.655  16.863  43.016  0.00  0.00     0.066 H 
ATOM     32  H34 MOL d           9.421  15.951  44.546  0.00  0.00     0.066 H 
ENDBRANCH  28  29
ENDBRANCH  17  28
BRANCH  19  33
ATOM     33  CD6 MOL d          12.379  18.983  42.945  0.00  0.00     0.043 C 
ATOM     34  H27 MOL d          12.246  19.892  42.340  0.00  0.00     0.078 H 
ATOM     35  H28 MOL d          13.411  18.943  43.326  0.00  0.00     0.078 H 
BRANCH  33  36
ATOM     36  OD6 MOL d          11.476  19.028  44.056  0.00  0.00    -0.398 OA
ATOM     37  H31 MOL d          11.954  18.860  44.859  0.00  0.00     0.209 HD
ENDBRANCH  33  36
ENDBRANCH  19  33
ENDBRANCH  12  13
ENDBRANCH   4  12
BRANCH   3  38
ATOM     38  OB3 MOL d          13.451  18.295  37.866  0.00  0.00    -0.390 OA
ATOM     39  H20 MOL d          14.388  18.424  37.773  0.00  0.00     0.210 HD
ENDBRANCH   3  38
BRANCH   5  40
ATOM     40  CB6 MOL d           9.974  14.531  37.767  0.00  0.00     0.043 C 
ATOM     41  H17 MOL d           9.730  13.648  37.159  0.00  0.00     0.078 H 
ATOM     42  H18 MOL d           9.247  15.330  37.561  0.00  0.00     0.078 H 
BRANCH  40  43
ATOM     43  OB6 MOL d           9.908  14.190  39.110  0.00  0.00    -0.398 OA
ATOM     44  H21 MOL d          10.003  14.974  39.640  0.00  0.00     0.209 HD
ENDBRANCH  40  43
ENDBRANCH   5  40
BRANCH   2  45
ATOM     45  OB2 MOL d          14.473  17.175  35.384  0.00  0.00    -0.388 OA
ATOM     46  H19 MOL d          14.388  17.458  34.482  0.00  0.00     0.210 HD
ENDBRANCH   2  45
BRANCH   1  47
ATOM     47  OA4 MOL d          13.826  14.492  35.718  0.00  0.00    -0.348 OA
BRANCH  47  48
ATOM     48  CA4 MOL d          14.347  13.852  34.680  0.00  0.00     0.090 C 
ATOM     49  CA3 MOL d          15.883  14.176  34.593  0.00  0.00     0.094 C 
ATOM     50  CA2 MOL d          16.622  13.078  33.749  0.00  0.00     0.121 C 
ATOM     51  H4  MOL d          16.289  14.158  35.616  0.00  0.00     0.091 H 
ATOM     52  CA1 MOL d          16.312  11.698  34.360  0.00  0.00     0.159 C 
ATOM     53  H2  MOL d          16.189  13.101  32.738  0.00  0.00     0.099 H 
ATOM     54  NA1 MOL d          17.256  10.769  34.332  0.00  0.00    -0.120 NA
ATOM     55  NA5 MOL d          15.032  11.406  34.926  0.00  0.00    -0.365 N 
ATOM     56  CA5 MOL d          13.987  12.443  35.029  0.00  0.00     0.059 C 
ATOM     57  H8  MOL d          14.835  10.455  35.268  0.00  0.00     0.161 HD
ATOM     58  H7  MOL d          13.628  12.450  36.069  0.00  0.00     0.079 H 
ATOM     59  H6  MOL d          13.870  14.147  33.734  0.00  0.00     0.090 H 
BRANCH  49  60
ATOM     60  OA3 MOL d          16.125  15.375  34.079  0.00  0.00    -0.390 OA
ATOM     61  H5  MOL d          16.918  15.730  34.465  0.00  0.00     0.210 HD
ENDBRANCH  49  60
BRANCH  50  62
ATOM     62  OA2 MOL d          17.941  13.278  33.605  0.00  0.00    -0.385 OA
ATOM     63  H3  MOL d          18.362  12.458  33.377  0.00  0.00     0.210 HD
ENDBRANCH  50  62
BRANCH  54  64
ATOM     64  OA7 MOL d          16.971   9.592  34.865  0.00  0.00    -0.265 OA
ATOM     65  H1  MOL d          17.715   9.011  34.763  0.00  0.00     0.247 HD
ENDBRANCH  54  64
BRANCH  56  66
ATOM     66  CA6 MOL d          12.838  11.975  34.080  0.00  0.00     0.038 C 
ATOM     67  H9  MOL d          11.934  11.782  34.676  0.00  0.00     0.077 H 
ATOM     68  H10 MOL d          13.145  11.051  33.569  0.00  0.00     0.077 H 
BRANCH  66  69
ATOM     69  OA6 MOL d          12.560  12.937  33.141  0.00  0.00    -0.399 OA
ATOM     70  H11 MOL d          11.625  12.958  32.979  0.00  0.00     0.209 HD
ENDBRANCH  66  69
ENDBRANCH  56  66
ENDBRANCH  47  48
ENDBRANCH   1  47
TORSDOF 19
ENDMDL
MODEL 8
REMARK VINA RESULT:      -5.1      3.475      9.021
REMARK  19 active torsions:
REMARK  status: ('A' for Active; 'I' for Inactive)
REMARK    1  A    between atoms: NA1_2  and  OA7_3 
REMARK    2  A    between atoms: CA2_4  and  OA2_5 
REMARK    3  A    between atoms: CA3_6  and  OA3_7 
REMARK    4  A    between atoms: CA4_8  and  OA4_9 
REMARK    5  A    between atoms: OA4_9  and  CB1_14 
REMARK    6  A    between atoms: CA5_10  and  CA6_12 
REMARK    7  A    between atoms: CA6_12  and  OA6_13 
REMARK    8  A    between atoms: CB2_15  and  OB2_20 
REMARK    9  A    between atoms: CB3_16  and  OB3_21 
REMARK   10  A    between atoms: CB4_17  and  OB4_22 
REMARK   11  A    between atoms: CB5_18  and  CB6_19 
REMARK   12  A    between atoms: CB6_19  and  OB6_24 
REMARK   13  A    between atoms: OB4_22  and  CD1_25 
REMARK   14  A    between atoms: CD2_26  and  OD2_31 
REMARK   15  A    between atoms: CD3_27  and  OD3_32 
REMARK   16  A    between atoms: CD4_28  and  OD4_33 
REMARK   17  A    between atoms: CD5_29  and  CD6_30 
REMARK   18  A    between atoms: CD6_30  and  OD6_35 
REMARK   19  A    between atoms: OD4_33  and  CD7_36 
ROOT
ATOM      1  CB1 MOL d          12.855  15.277  34.906  0.00  0.00     0.159 C 
ATOM      2  CB2 MOL d          13.353  16.531  35.770  0.00  0.00     0.110 C 
ATOM      3  CB3 MOL d          12.767  16.534  37.230  0.00  0.00     0.092 C 
ATOM      4  CB4 MOL d          11.209  16.559  37.102  0.00  0.00     0.096 C 
ATOM      5  CB5 MOL d          10.762  15.176  36.284  0.00  0.00     0.089 C 
ATOM      6  OB5 MOL d          11.372  15.204  34.934  0.00  0.00    -0.348 OA
ATOM      7  H12 MOL d          13.176  15.405  33.861  0.00  0.00     0.133 H 
ATOM      8  H13 MOL d          13.006  17.450  35.275  0.00  0.00     0.094 H 
ATOM      9  H14 MOL d          13.084  15.632  37.773  0.00  0.00     0.091 H 
ATOM     10  H15 MOL d          10.881  17.450  36.547  0.00  0.00     0.091 H 
ATOM     11  H16 MOL d          11.121  14.299  36.843  0.00  0.00     0.090 H 
ENDROOT
BRANCH   4  12
ATOM     12  OB4 MOL d          10.647  16.567  38.403  0.00  0.00    -0.348 OA
BRANCH  12  13
ATOM     13  CD1 MOL d          11.286  15.567  39.265  0.00  0.00     0.159 C 
ATOM     14  CD2 MOL d          10.279  14.673  40.094  0.00  0.00     0.110 C 
ATOM     15  CD3 MOL d           9.461  15.622  41.073  0.00  0.00     0.092 C 
ATOM     16  H23 MOL d          10.829  13.924  40.684  0.00  0.00     0.094 H 
ATOM     17  CD4 MOL d          10.464  16.309  42.054  0.00  0.00     0.092 C 
ATOM     18  H24 MOL d           8.914  16.381  40.493  0.00  0.00     0.091 H 
ATOM     19  CD5 MOL d          11.528  17.193  41.179  0.00  0.00     0.089 C 
ATOM     20  H25 MOL d          11.000  15.539  42.628  0.00  0.00     0.091 H 
ATOM     21  OD5 MOL d          12.222  16.274  40.216  0.00  0.00    -0.348 OA
ATOM     22  H26 MOL d          10.983  17.968  40.620  0.00  0.00     0.090 H 
ATOM     23  H22 MOL d          11.875  14.897  38.621  0.00  0.00     0.133 H 
BRANCH  14  24
ATOM     24  OD2 MOL d           9.416  14.010  39.150  0.00  0.00    -0.388 OA
ATOM     25  H29 MOL d           9.489  13.069  39.261  0.00  0.00     0.210 HD
ENDBRANCH  14  24
BRANCH  15  26
ATOM     26  OD3 MOL d           8.561  14.850  41.827  0.00  0.00    -0.390 OA
ATOM     27  H30 MOL d           8.129  15.404  42.467  0.00  0.00     0.210 HD
ENDBRANCH  15  26
BRANCH  17  28
ATOM     28  OD4 MOL d           9.752  17.202  42.977  0.00  0.00    -0.385 OA
BRANCH  28  29
ATOM     29  CD7 MOL d           9.801  16.796  44.371  0.00  0.00     0.005 C 
ATOM     30  H32 MOL d           8.943  16.144  44.594  0.00  0.00     0.066 H 
ATOM     31  H33 MOL d           9.760  17.688  45.015  0.00  0.00     0.066 H 
ATOM     32  H34 MOL d          10.737  16.249  44.561  0.00  0.00     0.066 H 
ENDBRANCH  28  29
ENDBRANCH  17  28
BRANCH  19  33
ATOM     33  CD6 MOL d          12.574  17.880  42.105  0.00  0.00     0.043 C 
ATOM     34  H27 MOL d          13.458  18.148  41.508  0.00  0.00     0.078 H 
ATOM     35  H28 MOL d          12.867  17.174  42.897  0.00  0.00     0.078 H 
BRANCH  33  36
ATOM     36  OD6 MOL d          12.046  19.065  42.712  0.00  0.00    -0.398 OA
ATOM     37  H31 MOL d          12.640  19.790  42.557  0.00  0.00     0.209 HD
ENDBRANCH  33  36
ENDBRANCH  19  33
ENDBRANCH  12  13
ENDBRANCH   4  12
BRANCH   3  38
ATOM     38  OB3 MOL d          13.253  17.713  37.919  0.00  0.00    -0.390 OA
ATOM     39  H20 MOL d          14.138  17.557  38.226  0.00  0.00     0.210 HD
ENDBRANCH   3  38
BRANCH   5  40
ATOM     40  CB6 MOL d           9.263  15.066  36.091  0.00  0.00     0.043 C 
ATOM     41  H17 MOL d           8.967  14.009  36.151  0.00  0.00     0.078 H 
ATOM     42  H18 MOL d           8.996  15.466  35.102  0.00  0.00     0.078 H 
BRANCH  40  43
ATOM     43  OB6 MOL d           8.588  15.783  37.069  0.00  0.00    -0.398 OA
ATOM     44  H21 MOL d           8.633  16.711  36.868  0.00  0.00     0.209 HD
ENDBRANCH  40  43
ENDBRANCH   5  40
BRANCH   2  45
ATOM     45  OB2 MOL d          14.800  16.528  35.761  0.00  0.00    -0.388 OA
ATOM     46  H19 MOL d          15.118  17.420  35.831  0.00  0.00     0.210 HD
ENDBRANCH   2  45
BRANCH   1  47
ATOM     47  OA4 MOL d          13.469  14.109  35.432  0.00  0.00    -0.348 OA
BRANCH  47  48
ATOM     48  CA4 MOL d          14.773  14.048  35.202  0.00  0.00     0.090 C 
ATOM     49  CA3 MOL d          15.478  13.344  36.418  0.00  0.00     0.094 C 
ATOM     50  CA2 MOL d          16.880  12.788  35.984  0.00  0.00     0.121 C 
ATOM     51  H4  MOL d          14.849  12.496  36.728  0.00  0.00     0.091 H 
ATOM     52  CA1 MOL d          16.688  11.869  34.763  0.00  0.00     0.159 C 
ATOM     53  H2  MOL d          17.485  13.649  35.663  0.00  0.00     0.099 H 
ATOM     54  NA1 MOL d          17.470  10.807  34.643  0.00  0.00    -0.120 NA
ATOM     55  NA5 MOL d          15.706  12.156  33.765  0.00  0.00    -0.365 N 
ATOM     56  CA5 MOL d          14.778  13.294  33.909  0.00  0.00     0.059 C 
ATOM     57  H8  MOL d          15.645  11.558  32.929  0.00  0.00     0.161 HD
ATOM     58  H7  MOL d          13.758  12.913  33.754  0.00  0.00     0.079 H 
ATOM     59  H6  MOL d          15.214  15.046  35.065  0.00  0.00     0.090 H 
BRANCH  49  60
ATOM     60  OA3 MOL d          15.619  14.151  37.463  0.00  0.00    -0.390 OA
ATOM     61  H5  MOL d          14.825  14.133  37.984  0.00  0.00     0.210 HD
ENDBRANCH  49  60
BRANCH  50  62
ATOM     62  OA2 MOL d          17.568  12.183  36.965  0.00  0.00    -0.385 OA
ATOM     63  H3  MOL d          18.485  12.135  36.724  0.00  0.00     0.210 HD
ENDBRANCH  50  62
BRANCH  54  64
ATOM     64  OA7 MOL d          17.286  10.029  33.589  0.00  0.00    -0.265 OA
ATOM     65  H1  MOL d          16.448  10.230  33.191  0.00  0.00     0.247 HD
ENDBRANCH  54  64
BRANCH  56  66
ATOM     66  CA6 MOL d          15.147  14.285  32.759  0.00  0.00     0.038 C 
ATOM     67  H9  MOL d          14.226  14.728  32.354  0.00  0.00     0.077 H 
ATOM     68  H10 MOL d          15.670  13.735  31.963  0.00  0.00     0.077 H 
BRANCH  66  69
ATOM     69  OA6 MOL d          15.962  15.286  33.223  0.00  0.00    -0.399 OA
ATOM     70  H11 MOL d          16.859  15.107  32.968  0.00  0.00     0.209 HD
ENDBRANCH  66  69
ENDBRANCH  56  66
ENDBRANCH  47  48
ENDBRANCH   1  47
TORSDOF 19
ENDMDL
MODEL 9
REMARK VINA RESULT:      -5.0      2.425      3.774
REMARK  19 active torsions:
REMARK  status: ('A' for Active; 'I' for Inactive)
REMARK    1  A    between atoms: NA1_2  and  OA7_3 
REMARK    2  A    between atoms: CA2_4  and  OA2_5 
REMARK    3  A    between atoms: CA3_6  and  OA3_7 
REMARK    4  A    between atoms: CA4_8  and  OA4_9 
REMARK    5  A    between atoms: OA4_9  and  CB1_14 
REMARK    6  A    between atoms: CA5_10  and  CA6_12 
REMARK    7  A    between atoms: CA6_12  and  OA6_13 
REMARK    8  A    between atoms: CB2_15  and  OB2_20 
REMARK    9  A    between atoms: CB3_16  and  OB3_21 
REMARK   10  A    between atoms: CB4_17  and  OB4_22 
REMARK   11  A    between atoms: CB5_18  and  CB6_19 
REMARK   12  A    between atoms: CB6_19  and  OB6_24 
REMARK   13  A    between atoms: OB4_22  and  CD1_25 
REMARK   14  A    between atoms: CD2_26  and  OD2_31 
REMARK   15  A    between atoms: CD3_27  and  OD3_32 
REMARK   16  A    between atoms: CD4_28  and  OD4_33 
REMARK   17  A    between atoms: CD5_29  and  CD6_30 
REMARK   18  A    between atoms: CD6_30  and  OD6_35 
REMARK   19  A    between atoms: OD4_33  and  CD7_36 
ROOT
ATOM      1  CB1 MOL d          11.024  17.107  38.036  0.00  0.00     0.159 C 
ATOM      2  CB2 MOL d          10.074  16.584  36.856  0.00  0.00     0.110 C 
ATOM      3  CB3 MOL d          10.546  15.206  36.262  0.00  0.00     0.092 C 
ATOM      4  CB4 MOL d          12.001  15.409  35.727  0.00  0.00     0.096 C 
ATOM      5  CB5 MOL d          12.945  15.849  37.029  0.00  0.00     0.089 C 
ATOM      6  OB5 MOL d          12.434  17.129  37.575  0.00  0.00    -0.348 OA
ATOM      7  H12 MOL d          10.732  18.132  38.310  0.00  0.00     0.133 H 
ATOM      8  H13 MOL d          10.102  17.320  36.040  0.00  0.00     0.094 H 
ATOM      9  H14 MOL d          10.538  14.429  37.040  0.00  0.00     0.091 H 
ATOM     10  H15 MOL d          12.024  16.195  34.958  0.00  0.00     0.091 H 
ATOM     11  H16 MOL d          12.888  15.062  37.794  0.00  0.00     0.090 H 
ENDROOT
BRANCH   4  12
ATOM     12  OB4 MOL d          12.457  14.184  35.178  0.00  0.00    -0.348 OA
BRANCH  12  13
ATOM     13  CD1 MOL d          12.261  14.147  33.724  0.00  0.00     0.159 C 
ATOM     14  CD2 MOL d          12.845  12.861  33.014  0.00  0.00     0.110 C 
ATOM     15  CD3 MOL d          14.420  12.841  33.236  0.00  0.00     0.092 C 
ATOM     16  H23 MOL d          12.626  12.886  31.936  0.00  0.00     0.094 H 
ATOM     17  CD4 MOL d          15.031  14.116  32.571  0.00  0.00     0.092 C 
ATOM     18  H24 MOL d          14.650  12.825  34.312  0.00  0.00     0.091 H 
ATOM     19  CD5 MOL d          14.383  15.439  33.284  0.00  0.00     0.089 C 
ATOM     20  H25 MOL d          14.796  14.117  31.496  0.00  0.00     0.091 H 
ATOM     21  OD5 MOL d          12.892  15.378  33.119  0.00  0.00    -0.348 OA
ATOM     22  H26 MOL d          14.635  15.435  34.354  0.00  0.00     0.090 H 
ATOM     23  H22 MOL d          11.179  14.172  33.531  0.00  0.00     0.133 H 
BRANCH  14  24
ATOM     24  OD2 MOL d          12.209  11.713  33.612  0.00  0.00    -0.388 OA
ATOM     25  H29 MOL d          11.829  11.172  32.931  0.00  0.00     0.210 HD
ENDBRANCH  14  24
BRANCH  15  26
ATOM     26  OD3 MOL d          14.965  11.708  32.608  0.00  0.00    -0.390 OA
ATOM     27  H30 MOL d          14.436  11.482  31.851  0.00  0.00     0.210 HD
ENDBRANCH  15  26
BRANCH  17  28
ATOM     28  OD4 MOL d          16.488  14.144  32.754  0.00  0.00    -0.385 OA
BRANCH  28  29
ATOM     29  CD7 MOL d          16.926  14.081  34.138  0.00  0.00     0.005 C 
ATOM     30  H32 MOL d          16.050  13.977  34.795  0.00  0.00     0.066 H 
ATOM     31  H33 MOL d          17.468  15.003  34.394  0.00  0.00     0.066 H 
ATOM     32  H34 MOL d          17.591  13.214  34.273  0.00  0.00     0.066 H 
ENDBRANCH  28  29
ENDBRANCH  17  28
BRANCH  19  33
ATOM     33  CD6 MOL d          14.936  16.745  32.639  0.00  0.00     0.043 C 
ATOM     34  H27 MOL d          14.534  16.836  31.619  0.00  0.00     0.078 H 
ATOM     35  H28 MOL d          16.033  16.685  32.598  0.00  0.00     0.078 H 
BRANCH  33  36
ATOM     36  OD6 MOL d          14.561  17.905  33.391  0.00  0.00    -0.398 OA
ATOM     37  H31 MOL d          15.174  18.608  33.212  0.00  0.00     0.209 HD
ENDBRANCH  33  36
ENDBRANCH  19  33
ENDBRANCH  12  13
ENDBRANCH   4  12
BRANCH   3  38
ATOM     38  OB3 MOL d           9.643  14.833  35.191  0.00  0.00    -0.390 OA
ATOM     39  H20 MOL d           8.834  14.500  35.562  0.00  0.00     0.210 HD
ENDBRANCH   3  38
BRANCH   5  40
ATOM     40  CB6 MOL d          14.396  16.076  36.652  0.00  0.00     0.043 C 
ATOM     41  H17 MOL d          14.506  17.085  36.229  0.00  0.00     0.078 H 
ATOM     42  H18 MOL d          14.694  15.330  35.900  0.00  0.00     0.078 H 
BRANCH  40  43
ATOM     43  OB6 MOL d          15.217  15.955  37.763  0.00  0.00    -0.398 OA
ATOM     44  H21 MOL d          15.602  15.087  37.778  0.00  0.00     0.209 HD
ENDBRANCH  40  43
ENDBRANCH   5  40
BRANCH   2  45
ATOM     45  OB2 MOL d           8.723  16.525  37.370  0.00  0.00    -0.388 OA
ATOM     46  H19 MOL d           8.372  17.404  37.437  0.00  0.00     0.210 HD
ENDBRANCH   2  45
BRANCH   1  47
ATOM     47  OA4 MOL d          10.832  16.261  39.162  0.00  0.00    -0.348 OA
BRANCH  47  48
ATOM     48  CA4 MOL d          11.063  16.862  40.321  0.00  0.00     0.090 C 
ATOM     49  CA3 MOL d           9.715  16.973  41.122  0.00  0.00     0.094 C 
ATOM     50  CA2 MOL d          10.008  17.180  42.650  0.00  0.00     0.121 C 
ATOM     51  H4  MOL d           9.171  16.024  40.998  0.00  0.00     0.091 H 
ATOM     52  CA1 MOL d          10.925  16.040  43.133  0.00  0.00     0.159 C 
ATOM     53  H2  MOL d          10.566  18.123  42.748  0.00  0.00     0.099 H 
ATOM     54  NA1 MOL d          10.765  15.581  44.365  0.00  0.00    -0.120 NA
ATOM     55  NA5 MOL d          11.943  15.498  42.289  0.00  0.00    -0.365 N 
ATOM     56  CA5 MOL d          12.098  15.946  40.892  0.00  0.00     0.059 C 
ATOM     57  H8  MOL d          12.582  14.782  42.664  0.00  0.00     0.161 HD
ATOM     58  H7  MOL d          12.121  15.049  40.256  0.00  0.00     0.079 H 
ATOM     59  H6  MOL d          11.477  17.872  40.184  0.00  0.00     0.090 H 
BRANCH  49  60
ATOM     60  OA3 MOL d           8.935  17.951  40.678  0.00  0.00    -0.390 OA
ATOM     61  H5  MOL d           8.207  18.070  41.277  0.00  0.00     0.210 HD
ENDBRANCH  49  60
BRANCH  50  62
ATOM     62  OA2 MOL d           8.913  17.303  43.417  0.00  0.00    -0.385 OA
ATOM     63  H3  MOL d           8.181  17.582  42.880  0.00  0.00     0.210 HD
ENDBRANCH  50  62
BRANCH  54  64
ATOM     64  OA7 MOL d          11.560  14.600  44.759  0.00  0.00    -0.265 OA
ATOM     65  H1  MOL d          11.150  13.765  44.568  0.00  0.00     0.247 HD
ENDBRANCH  54  64
BRANCH  56  66
ATOM     66  CA6 MOL d          13.484  16.666  40.834  0.00  0.00     0.038 C 
ATOM     67  H9  MOL d          13.928  16.513  39.839  0.00  0.00     0.077 H 
ATOM     68  H10 MOL d          14.146  16.237  41.601  0.00  0.00     0.077 H 
BRANCH  66  69
ATOM     69  OA6 MOL d          13.343  18.011  41.062  0.00  0.00    -0.399 OA
ATOM     70  H11 MOL d          13.585  18.206  41.959  0.00  0.00     0.209 HD
ENDBRANCH  66  69
ENDBRANCH  56  66
ENDBRANCH  47  48
ENDBRANCH   1  47
TORSDOF 19
ENDMDL
MODEL 10
REMARK VINA RESULT:      -5.0      3.524      8.908
REMARK  19 active torsions:
REMARK  status: ('A' for Active; 'I' for Inactive)
REMARK    1  A    between atoms: NA1_2  and  OA7_3 
REMARK    2  A    between atoms: CA2_4  and  OA2_5 
REMARK    3  A    between atoms: CA3_6  and  OA3_7 
REMARK    4  A    between atoms: CA4_8  and  OA4_9 
REMARK    5  A    between atoms: OA4_9  and  CB1_14 
REMARK    6  A    between atoms: CA5_10  and  CA6_12 
REMARK    7  A    between atoms: CA6_12  and  OA6_13 
REMARK    8  A    between atoms: CB2_15  and  OB2_20 
REMARK    9  A    between atoms: CB3_16  and  OB3_21 
REMARK   10  A    between atoms: CB4_17  and  OB4_22 
REMARK   11  A    between atoms: CB5_18  and  CB6_19 
REMARK   12  A    between atoms: CB6_19  and  OB6_24 
REMARK   13  A    between atoms: OB4_22  and  CD1_25 
REMARK   14  A    between atoms: CD2_26  and  OD2_31 
REMARK   15  A    between atoms: CD3_27  and  OD3_32 
REMARK   16  A    between atoms: CD4_28  and  OD4_33 
REMARK   17  A    between atoms: CD5_29  and  CD6_30 
REMARK   18  A    between atoms: CD6_30  and  OD6_35 
REMARK   19  A    between atoms: OD4_33  and  CD7_36 
ROOT
ATOM      1  CB1 MOL d          13.586  14.584  35.957  0.00  0.00     0.159 C 
ATOM      2  CB2 MOL d          12.041  15.001  35.873  0.00  0.00     0.110 C 
ATOM      3  CB3 MOL d          11.585  15.894  37.084  0.00  0.00     0.092 C 
ATOM      4  CB4 MOL d          11.847  15.071  38.388  0.00  0.00     0.096 C 
ATOM      5  CB5 MOL d          13.485  14.767  38.457  0.00  0.00     0.089 C 
ATOM      6  OB5 MOL d          13.867  13.960  37.275  0.00  0.00    -0.348 OA
ATOM      7  H12 MOL d          13.807  13.848  35.170  0.00  0.00     0.133 H 
ATOM      8  H13 MOL d          11.435  14.083  35.895  0.00  0.00     0.094 H 
ATOM      9  H14 MOL d          12.162  16.830  37.110  0.00  0.00     0.091 H 
ATOM     10  H15 MOL d          11.285  14.126  38.367  0.00  0.00     0.091 H 
ATOM     11  H16 MOL d          14.026  15.724  38.452  0.00  0.00     0.090 H 
ENDROOT
BRANCH   4  12
ATOM     12  OB4 MOL d          11.441  15.848  39.503  0.00  0.00    -0.348 OA
BRANCH  12  13
ATOM     13  CD1 MOL d          10.489  15.113  40.344  0.00  0.00     0.159 C 
ATOM     14  CD2 MOL d           9.227  15.953  40.797  0.00  0.00     0.110 C 
ATOM     15  CD3 MOL d           9.733  17.172  41.684  0.00  0.00     0.092 C 
ATOM     16  H23 MOL d           8.543  15.326  41.389  0.00  0.00     0.094 H 
ATOM     17  CD4 MOL d          10.450  16.602  42.949  0.00  0.00     0.092 C 
ATOM     18  H24 MOL d          10.425  17.800  41.104  0.00  0.00     0.091 H 
ATOM     19  CD5 MOL d          11.726  15.697  42.465  0.00  0.00     0.089 C 
ATOM     20  H25 MOL d           9.746  15.979  43.521  0.00  0.00     0.091 H 
ATOM     21  OD5 MOL d          11.214  14.607  41.568  0.00  0.00    -0.348 OA
ATOM     22  H26 MOL d          12.429  16.331  41.907  0.00  0.00     0.090 H 
ATOM     23  H22 MOL d          10.126  14.252  39.765  0.00  0.00     0.133 H 
BRANCH  14  24
ATOM     24  OD2 MOL d           8.561  16.406  39.601  0.00  0.00    -0.388 OA
ATOM     25  H29 MOL d           9.117  17.027  39.146  0.00  0.00     0.210 HD
ENDBRANCH  14  24
BRANCH  15  26
ATOM     26  OD3 MOL d           8.629  17.932  42.105  0.00  0.00    -0.390 OA
ATOM     27  H30 MOL d           7.905  17.795  41.505  0.00  0.00     0.210 HD
ENDBRANCH  15  26
BRANCH  17  28
ATOM     28  OD4 MOL d          10.940  17.694  43.801  0.00  0.00    -0.385 OA
BRANCH  28  29
ATOM     29  CD7 MOL d          11.936  18.548  43.176  0.00  0.00     0.005 C 
ATOM     30  H32 MOL d          12.802  18.652  43.845  0.00  0.00     0.066 H 
ATOM     31  H33 MOL d          11.499  19.540  42.985  0.00  0.00     0.066 H 
ATOM     32  H34 MOL d          12.259  18.100  42.224  0.00  0.00     0.066 H 
ENDBRANCH  28  29
ENDBRANCH  17  28
BRANCH  19  33
ATOM     33  CD6 MOL d          12.464  15.076  43.687  0.00  0.00     0.043 C 
ATOM     34  H27 MOL d          11.973  14.129  43.956  0.00  0.00     0.078 H 
ATOM     35  H28 MOL d          12.402  15.776  44.534  0.00  0.00     0.078 H 
BRANCH  33  36
ATOM     36  OD6 MOL d          13.843  14.819  43.397  0.00  0.00    -0.398 OA
ATOM     37  H31 MOL d          13.918  14.451  42.524  0.00  0.00     0.209 HD
ENDBRANCH  33  36
ENDBRANCH  19  33
ENDBRANCH  12  13
ENDBRANCH   4  12
BRANCH   3  38
ATOM     38  OB3 MOL d          10.176  16.195  36.931  0.00  0.00    -0.390 OA
ATOM     39  H20 MOL d           9.927  16.082  36.021  0.00  0.00     0.210 HD
ENDBRANCH   3  38
BRANCH   5  40
ATOM     40  CB6 MOL d          13.883  13.973  39.685  0.00  0.00     0.043 C 
ATOM     41  H17 MOL d          14.118  12.941  39.386  0.00  0.00     0.078 H 
ATOM     42  H18 MOL d          13.045  13.966  40.397  0.00  0.00     0.078 H 
BRANCH  40  43
ATOM     43  OB6 MOL d          14.995  14.536  40.294  0.00  0.00    -0.398 OA
ATOM     44  H21 MOL d          15.565  13.844  40.611  0.00  0.00     0.209 HD
ENDBRANCH  40  43
ENDBRANCH   5  40
BRANCH   2  45
ATOM     45  OB2 MOL d          11.829  15.655  34.600  0.00  0.00    -0.388 OA
ATOM     46  H19 MOL d          11.529  15.017  33.963  0.00  0.00     0.210 HD
ENDBRANCH   2  45
BRANCH   1  47
ATOM     47  OA4 MOL d          14.368  15.748  35.728  0.00  0.00    -0.348 OA
BRANCH  47  48
ATOM     48  CA4 MOL d          15.560  15.490  35.207  0.00  0.00     0.090 C 
ATOM     49  CA3 MOL d          16.301  14.439  36.112  0.00  0.00     0.094 C 
ATOM     50  CA2 MOL d          17.438  13.728  35.296  0.00  0.00     0.121 C 
ATOM     51  H4  MOL d          15.565  13.679  36.417  0.00  0.00     0.091 H 
ATOM     52  CA1 MOL d          16.823  13.123  34.020  0.00  0.00     0.159 C 
ATOM     53  H2  MOL d          18.151  14.507  34.987  0.00  0.00     0.099 H 
ATOM     54  NA1 MOL d          17.311  11.979  33.565  0.00  0.00    -0.120 NA
ATOM     55  NA5 MOL d          15.764  13.782  33.322  0.00  0.00    -0.365 N 
ATOM     56  CA5 MOL d          15.158  15.021  33.844  0.00  0.00     0.059 C 
ATOM     57  H8  MOL d          15.418  13.385  32.437  0.00  0.00     0.161 HD
ATOM     58  H7  MOL d          14.067  14.877  33.862  0.00  0.00     0.079 H 
ATOM     59  H6  MOL d          16.181  16.394  35.134  0.00  0.00     0.090 H 
BRANCH  49  60
ATOM     60  OA3 MOL d          16.809  14.980  37.212  0.00  0.00    -0.390 OA
ATOM     61  H5  MOL d          16.358  14.632  37.972  0.00  0.00     0.210 HD
ENDBRANCH  49  60
BRANCH  50  62
ATOM     62  OA2 MOL d          18.141  12.821  35.993  0.00  0.00    -0.385 OA
ATOM     63  H3  MOL d          19.067  12.940  35.820  0.00  0.00     0.210 HD
ENDBRANCH  50  62
BRANCH  54  64
ATOM     64  OA7 MOL d          16.766  11.475  32.470  0.00  0.00    -0.265 OA
ATOM     65  H1  MOL d          17.343  11.629  31.731  0.00  0.00     0.247 HD
ENDBRANCH  54  64
BRANCH  56  66
ATOM     66  CA6 MOL d          15.522  16.135  32.810  0.00  0.00     0.038 C 
ATOM     67  H9  MOL d          15.422  15.729  31.793  0.00  0.00     0.077 H 
ATOM     68  H10 MOL d          16.561  16.455  32.977  0.00  0.00     0.077 H 
BRANCH  66  69
ATOM     69  OA6 MOL d          14.690  17.217  32.947  0.00  0.00    -0.399 OA
ATOM     70  H11 MOL d          13.804  16.965  32.713  0.00  0.00     0.209 HD
ENDBRANCH  66  69
ENDBRANCH  56  66
ENDBRANCH  47  48
ENDBRANCH   1  47
TORSDOF 19
ENDMDL
