MODEL 1
REMARK VINA RESULT:      -9.6      0.000      0.000
REMARK  11 active torsions:
REMARK  status: ('A' for Active; 'I' for Inactive)
REMARK    1  A    between atoms: C1_1  and  O8_8 
REMARK    2  A    between atoms: C2_2  and  O9_9 
REMARK    3  A    between atoms: C3_3  and  S7_7 
REMARK    4  A    between atoms: C5_5  and  C6_6 
REMARK    5  A    between atoms: S7_7  and  C11_11 
REMARK    6  A    between atoms: C10_10  and  C12_12 
REMARK    7  A    between atoms: C12_12  and  N13_13 
REMARK       I    between atoms: N13_13  and  C14_14 
REMARK    8  A    between atoms: C14_14  and  C15_15 
REMARK    9  A    between atoms: C16_16  and  O22_22 
REMARK   10  A    between atoms: C17_17  and  O23_23 
REMARK   11  A    between atoms: C19_19  and  N21_21 
ROOT
ATOM      1  C6  MOL d          20.221 -30.396  10.818  0.00  0.00    -0.075 C 
ATOM      2  C10 MOL d          20.676 -29.722   9.799  0.00  0.00    -0.087 C 
ATOM      3  H5  MOL d          19.888 -31.424  10.680  0.00  0.00     0.080 H 
ATOM      4  H8  MOL d          21.017 -28.701   9.965  0.00  0.00     0.079 H 
ENDROOT
BRANCH   1   5
ATOM      5  C5  MOL d          20.156 -29.782  12.151  0.00  0.00     0.083 C 
ATOM      6  C1  MOL d          20.554 -30.817  13.248  0.00  0.00     0.091 C 
ATOM      7  C2  MOL d          19.256 -31.647  13.197  0.00  0.00     0.097 C 
ATOM      8  H1  MOL d          21.463 -31.395  13.024  0.00  0.00     0.091 H 
ATOM      9  C3  MOL d          18.154 -30.602  13.001  0.00  0.00     0.115 C 
ATOM     10  H2  MOL d          19.288 -32.343  12.345  0.00  0.00     0.092 H 
ATOM     11  O4  MOL d          18.816 -29.460  12.440  0.00  0.00    -0.361 OA
ATOM     12  H3  MOL d          17.689 -30.337  13.962  0.00  0.00     0.105 H 
ATOM     13  H4  MOL d          20.801 -28.892  12.192  0.00  0.00     0.093 H 
BRANCH   6  14
ATOM     14  O8  MOL d          20.665 -30.118  14.486  0.00  0.00    -0.390 OA
ATOM     15  H6  MOL d          20.037 -30.473  15.106  0.00  0.00     0.210 HD
ENDBRANCH   6  14
BRANCH   7  16
ATOM     16  O9  MOL d          19.010 -32.393  14.395  0.00  0.00    -0.389 OA
ATOM     17  H7  MOL d          18.575 -33.209  14.175  0.00  0.00     0.210 HD
ENDBRANCH   7  16
BRANCH   9  18
ATOM     18  S7  MOL d          16.905 -31.279  11.899  0.00  0.00    -0.095 SA
BRANCH  18  19
ATOM     19  C11 MOL d          15.433 -30.849  12.562  0.00  0.00     0.005 A 
ATOM     20  C27 MOL d          14.219 -31.597  12.259  0.00  0.00    -0.050 A 
ATOM     21  C28 MOL d          13.002 -31.237  12.850  0.00  0.00     0.003 A 
ATOM     22  H16 MOL d          14.259 -32.435  11.573  0.00  0.00     0.087 H 
ATOM     23  N29 MOL d          12.844 -30.181  13.717  0.00  0.00    -0.273 NA
ATOM     24  H17 MOL d          12.127 -31.830  12.608  0.00  0.00     0.114 H 
ATOM     25  C30 MOL d          13.996 -29.460  14.001  0.00  0.00     0.003 A 
ATOM     26  C31 MOL d          15.245 -29.764  13.469  0.00  0.00    -0.050 A 
ATOM     27  H18 MOL d          13.917 -28.614  14.674  0.00  0.00     0.114 H 
ATOM     28  H19 MOL d          16.099 -29.160  13.752  0.00  0.00     0.087 H 
ENDBRANCH  18  19
ENDBRANCH   9  18
ENDBRANCH   1   5
BRANCH   2  29
ATOM     29  C12 MOL d          20.752 -30.278   8.415  0.00  0.00     0.010 C 
ATOM     30  H9  MOL d          19.804 -30.067   7.898  0.00  0.00     0.070 H 
ATOM     31  H10 MOL d          20.900 -31.366   8.480  0.00  0.00     0.070 H 
BRANCH  29  32
ATOM     32  N13 MOL d          21.831 -29.710   7.648  0.00  0.00    -0.353 N 
ATOM     33  C14 MOL d          22.454 -30.279   6.600  0.00  0.00     0.254 C 
ATOM     34  O24 MOL d          22.023 -31.368   6.118  0.00  0.00    -0.268 OA
ATOM     35  H11 MOL d          22.148 -28.801   7.921  0.00  0.00     0.163 HD
BRANCH  33  36
ATOM     36  C15 MOL d          23.664 -29.662   5.999  0.00  0.00     0.070 A 
ATOM     37  C16 MOL d          23.868 -28.253   6.025  0.00  0.00     0.114 A 
ATOM     38  C17 MOL d          25.077 -27.772   5.453  0.00  0.00     0.102 A 
ATOM     39  C18 MOL d          26.026 -28.557   4.861  0.00  0.00    -0.016 A 
ATOM     40  C19 MOL d          25.794 -29.950   4.870  0.00  0.00     0.106 A 
ATOM     41  H12 MOL d          26.913 -28.131   4.407  0.00  0.00     0.091 H 
ATOM     42  C20 MOL d          24.621 -30.499   5.432  0.00  0.00    -0.033 A 
ATOM     43  H13 MOL d          24.465 -31.572   5.423  0.00  0.00     0.089 H 
BRANCH  37  44
ATOM     44  O22 MOL d          23.009 -27.360   6.527  0.00  0.00    -0.357 OA
ATOM     45  H14 MOL d          23.360 -27.003   7.334  0.00  0.00     0.217 HD
ENDBRANCH  37  44
BRANCH  38  46
ATOM     46  O23 MOL d          25.297 -26.407   5.469  0.00  0.00    -0.358 OA
ATOM     47  H15 MOL d          26.063 -26.205   4.944  0.00  0.00     0.217 HD
ENDBRANCH  38  46
BRANCH  40  48
ATOM     48  N21 MOL d          26.755 -30.845   4.263  0.00  0.00    -0.116 N 
ATOM     49  O25 MOL d          27.859 -30.475   3.966  0.00  0.00    -0.532 OA
ATOM     50  O26 MOL d          26.373 -31.985   4.041  0.00  0.00    -0.532 OA
ENDBRANCH  40  48
ENDBRANCH  33  36
ENDBRANCH  29  32
ENDBRANCH   2  29
TORSDOF 11
ENDMDL
MODEL 2
REMARK VINA RESULT:      -8.5      1.076      2.327
REMARK  11 active torsions:
REMARK  status: ('A' for Active; 'I' for Inactive)
REMARK    1  A    between atoms: C1_1  and  O8_8 
REMARK    2  A    between atoms: C2_2  and  O9_9 
REMARK    3  A    between atoms: C3_3  and  S7_7 
REMARK    4  A    between atoms: C5_5  and  C6_6 
REMARK    5  A    between atoms: S7_7  and  C11_11 
REMARK    6  A    between atoms: C10_10  and  C12_12 
REMARK    7  A    between atoms: C12_12  and  N13_13 
REMARK       I    between atoms: N13_13  and  C14_14 
REMARK    8  A    between atoms: C14_14  and  C15_15 
REMARK    9  A    between atoms: C16_16  and  O22_22 
REMARK   10  A    between atoms: C17_17  and  O23_23 
REMARK   11  A    between atoms: C19_19  and  N21_21 
ROOT
ATOM      1  C6  MOL d          19.617 -30.054  10.519  0.00  0.00    -0.075 C 
ATOM      2  C10 MOL d          20.692 -30.146   9.787  0.00  0.00    -0.087 C 
ATOM      3  H5  MOL d          18.684 -30.491  10.165  0.00  0.00     0.080 H 
ATOM      4  H8  MOL d          21.616 -29.715  10.169  0.00  0.00     0.079 H 
ENDROOT
BRANCH   1   5
ATOM      5  C5  MOL d          19.654 -29.368  11.818  0.00  0.00     0.083 C 
ATOM      6  C1  MOL d          20.466 -30.204  12.854  0.00  0.00     0.091 C 
ATOM      7  C2  MOL d          19.402 -31.297  13.081  0.00  0.00     0.097 C 
ATOM      8  H1  MOL d          21.427 -30.588  12.480  0.00  0.00     0.091 H 
ATOM      9  C3  MOL d          18.075 -30.533  13.064  0.00  0.00     0.115 C 
ATOM     10  H2  MOL d          19.438 -32.033  12.265  0.00  0.00     0.092 H 
ATOM     11  O4  MOL d          18.350 -29.322  12.346  0.00  0.00    -0.361 OA
ATOM     12  H3  MOL d          17.742 -30.301  14.086  0.00  0.00     0.105 H 
ATOM     13  H4  MOL d          20.077 -28.359  11.703  0.00  0.00     0.093 H 
BRANCH   6  14
ATOM     14  O8  MOL d          20.635 -29.405  14.023  0.00  0.00    -0.390 OA
ATOM     15  H6  MOL d          20.591 -29.959  14.793  0.00  0.00     0.210 HD
ENDBRANCH   6  14
BRANCH   7  16
ATOM     16  O9  MOL d          19.550 -31.984  14.330  0.00  0.00    -0.389 OA
ATOM     17  H7  MOL d          20.434 -32.324  14.400  0.00  0.00     0.210 HD
ENDBRANCH   7  16
BRANCH   9  18
ATOM     18  S7  MOL d          16.836 -31.547  12.245  0.00  0.00    -0.095 SA
BRANCH  18  19
ATOM     19  C11 MOL d          15.358 -30.940  12.734  0.00  0.00     0.005 A 
ATOM     20  C27 MOL d          14.108 -31.550  12.298  0.00  0.00    -0.050 A 
ATOM     21  C28 MOL d          12.881 -31.043  12.745  0.00  0.00     0.003 A 
ATOM     22  H16 MOL d          14.128 -32.400  11.626  0.00  0.00     0.087 H 
ATOM     23  N29 MOL d          12.749 -29.961  13.582  0.00  0.00    -0.273 NA
ATOM     24  H17 MOL d          11.977 -31.537  12.408  0.00  0.00     0.114 H 
ATOM     25  C30 MOL d          13.937 -29.370  13.993  0.00  0.00     0.003 A 
ATOM     26  C31 MOL d          15.196 -29.824  13.609  0.00  0.00    -0.050 A 
ATOM     27  H18 MOL d          13.881 -28.508  14.648  0.00  0.00     0.114 H 
ATOM     28  H19 MOL d          16.076 -29.316  13.984  0.00  0.00     0.087 H 
ENDBRANCH  18  19
ENDBRANCH   9  18
ENDBRANCH   1   5
BRANCH   2  29
ATOM     29  C12 MOL d          20.721 -30.812   8.451  0.00  0.00     0.010 C 
ATOM     30  H9  MOL d          19.826 -30.511   7.887  0.00  0.00     0.070 H 
ATOM     31  H10 MOL d          20.711 -31.902   8.600  0.00  0.00     0.070 H 
BRANCH  29  32
ATOM     32  N13 MOL d          21.889 -30.462   7.682  0.00  0.00    -0.353 N 
ATOM     33  C14 MOL d          22.333 -31.083   6.574  0.00  0.00     0.254 C 
ATOM     34  O24 MOL d          21.642 -31.998   6.037  0.00  0.00    -0.268 OA
ATOM     35  H11 MOL d          22.422 -29.680   8.004  0.00  0.00     0.163 HD
BRANCH  33  36
ATOM     36  C15 MOL d          23.642 -30.730   5.969  0.00  0.00     0.070 A 
ATOM     37  C16 MOL d          24.521 -31.730   5.466  0.00  0.00     0.114 A 
ATOM     38  C17 MOL d          25.733 -31.279   4.875  0.00  0.00     0.102 A 
ATOM     39  C18 MOL d          26.117 -29.971   4.789  0.00  0.00    -0.016 A 
ATOM     40  C19 MOL d          25.211 -29.007   5.285  0.00  0.00     0.106 A 
ATOM     41  H12 MOL d          27.071 -29.686   4.362  0.00  0.00     0.091 H 
ATOM     42  C20 MOL d          23.984 -29.383   5.874  0.00  0.00    -0.033 A 
ATOM     43  H13 MOL d          23.308 -28.625   6.250  0.00  0.00     0.089 H 
BRANCH  37  44
ATOM     44  O22 MOL d          24.300 -33.048   5.521  0.00  0.00    -0.357 OA
ATOM     45  H14 MOL d          23.738 -33.305   4.800  0.00  0.00     0.217 HD
ENDBRANCH  37  44
BRANCH  38  46
ATOM     46  O23 MOL d          26.601 -32.233   4.378  0.00  0.00    -0.358 OA
ATOM     47  H15 MOL d          27.148 -32.560   5.082  0.00  0.00     0.217 HD
ENDBRANCH  38  46
BRANCH  40  48
ATOM     48  N21 MOL d          25.549 -27.602   5.228  0.00  0.00    -0.116 N 
ATOM     49  O25 MOL d          26.568 -27.220   4.716  0.00  0.00    -0.532 OA
ATOM     50  O26 MOL d          24.761 -26.830   5.754  0.00  0.00    -0.532 OA
ENDBRANCH  40  48
ENDBRANCH  33  36
ENDBRANCH  29  32
ENDBRANCH   2  29
TORSDOF 11
ENDMDL
MODEL 3
REMARK VINA RESULT:      -7.9      1.448      1.978
REMARK  11 active torsions:
REMARK  status: ('A' for Active; 'I' for Inactive)
REMARK    1  A    between atoms: C1_1  and  O8_8 
REMARK    2  A    between atoms: C2_2  and  O9_9 
REMARK    3  A    between atoms: C3_3  and  S7_7 
REMARK    4  A    between atoms: C5_5  and  C6_6 
REMARK    5  A    between atoms: S7_7  and  C11_11 
REMARK    6  A    between atoms: C10_10  and  C12_12 
REMARK    7  A    between atoms: C12_12  and  N13_13 
REMARK       I    between atoms: N13_13  and  C14_14 
REMARK    8  A    between atoms: C14_14  and  C15_15 
REMARK    9  A    between atoms: C16_16  and  O22_22 
REMARK   10  A    between atoms: C17_17  and  O23_23 
REMARK   11  A    between atoms: C19_19  and  N21_21 
ROOT
ATOM      1  C6  MOL d          21.155 -31.525  10.779  0.00  0.00    -0.075 C 
ATOM      2  C10 MOL d          21.521 -32.334   9.824  0.00  0.00    -0.087 C 
ATOM      3  H5  MOL d          20.616 -30.611  10.536  0.00  0.00     0.080 H 
ATOM      4  H8  MOL d          22.045 -33.249  10.094  0.00  0.00     0.079 H 
ENDROOT
BRANCH   1   5
ATOM      5  C5  MOL d          21.463 -31.837  12.181  0.00  0.00     0.083 C 
ATOM      6  C1  MOL d          20.585 -33.025  12.681  0.00  0.00     0.091 C 
ATOM      7  C2  MOL d          19.262 -32.240  12.794  0.00  0.00     0.097 C 
ATOM      8  H1  MOL d          20.538 -33.881  11.992  0.00  0.00     0.091 H 
ATOM      9  C3  MOL d          19.688 -30.870  13.329  0.00  0.00     0.115 C 
ATOM     10  H2  MOL d          18.796 -32.143  11.803  0.00  0.00     0.092 H 
ATOM     11  O4  MOL d          21.076 -30.749  12.986  0.00  0.00    -0.361 OA
ATOM     12  H3  MOL d          19.561 -30.817  14.420  0.00  0.00     0.105 H 
ATOM     13  H4  MOL d          22.534 -32.060  12.295  0.00  0.00     0.093 H 
BRANCH   6  14
ATOM     14  O8  MOL d          21.062 -33.409  13.969  0.00  0.00    -0.390 OA
ATOM     15  H6  MOL d          20.508 -34.096  14.319  0.00  0.00     0.210 HD
ENDBRANCH   6  14
BRANCH   7  16
ATOM     16  O9  MOL d          18.320 -32.839  13.692  0.00  0.00    -0.389 OA
ATOM     17  H7  MOL d          17.635 -32.213  13.895  0.00  0.00     0.210 HD
ENDBRANCH   7  16
BRANCH   9  18
ATOM     18  S7  MOL d          18.678 -29.605  12.546  0.00  0.00    -0.095 SA
BRANCH  18  19
ATOM     19  C11 MOL d          17.098 -30.126  12.701  0.00  0.00     0.005 A 
ATOM     20  C27 MOL d          16.248 -29.651  13.786  0.00  0.00    -0.050 A 
ATOM     21  C28 MOL d          14.917 -30.078  13.879  0.00  0.00     0.003 A 
ATOM     22  H16 MOL d          16.647 -28.965  14.524  0.00  0.00     0.087 H 
ATOM     23  N29 MOL d          14.323 -30.958  13.006  0.00  0.00    -0.273 NA
ATOM     24  H17 MOL d          14.317 -29.688  14.693  0.00  0.00     0.114 H 
ATOM     25  C30 MOL d          15.132 -31.421  11.976  0.00  0.00     0.003 A 
ATOM     26  C31 MOL d          16.457 -31.032  11.804  0.00  0.00    -0.050 A 
ATOM     27  H18 MOL d          14.707 -32.123  11.268  0.00  0.00     0.114 H 
ATOM     28  H19 MOL d          17.018 -31.428  10.966  0.00  0.00     0.087 H 
ENDBRANCH  18  19
ENDBRANCH   9  18
ENDBRANCH   1   5
BRANCH   2  29
ATOM     29  C12 MOL d          21.258 -32.069   8.378  0.00  0.00     0.010 C 
ATOM     30  H9  MOL d          20.300 -31.535   8.286  0.00  0.00     0.070 H 
ATOM     31  H10 MOL d          21.192 -33.032   7.849  0.00  0.00     0.070 H 
BRANCH  29  32
ATOM     32  N13 MOL d          22.290 -31.274   7.763  0.00  0.00    -0.353 N 
ATOM     33  C14 MOL d          22.248 -29.950   7.528  0.00  0.00     0.254 C 
ATOM     34  O24 MOL d          21.285 -29.256   7.969  0.00  0.00    -0.268 OA
ATOM     35  H11 MOL d          23.121 -31.755   7.483  0.00  0.00     0.163 HD
BRANCH  33  36
ATOM     36  C15 MOL d          23.308 -29.278   6.736  0.00  0.00     0.070 A 
ATOM     37  C16 MOL d          23.478 -27.864   6.771  0.00  0.00     0.114 A 
ATOM     38  C17 MOL d          24.547 -27.328   6.003  0.00  0.00     0.102 A 
ATOM     39  C18 MOL d          25.389 -28.066   5.220  0.00  0.00    -0.016 A 
ATOM     40  C19 MOL d          25.200 -29.466   5.224  0.00  0.00     0.106 A 
ATOM     41  H12 MOL d          26.165 -27.600   4.625  0.00  0.00     0.091 H 
ATOM     42  C20 MOL d          24.166 -30.067   5.974  0.00  0.00    -0.033 A 
ATOM     43  H13 MOL d          24.039 -31.144   5.957  0.00  0.00     0.089 H 
BRANCH  37  44
ATOM     44  O22 MOL d          22.703 -27.013   7.453  0.00  0.00    -0.357 OA
ATOM     45  H14 MOL d          21.904 -27.454   7.715  0.00  0.00     0.217 HD
ENDBRANCH  37  44
BRANCH  38  46
ATOM     46  O23 MOL d          24.731 -25.958   6.024  0.00  0.00    -0.358 OA
ATOM     47  H15 MOL d          24.979 -25.686   6.900  0.00  0.00     0.217 HD
ENDBRANCH  38  46
BRANCH  40  48
ATOM     48  N21 MOL d          26.054 -30.312   4.421  0.00  0.00    -0.116 N 
ATOM     49  O25 MOL d          25.773 -31.460   4.199  0.00  0.00    -0.532 OA
ATOM     50  O26 MOL d          27.087 -29.807   4.006  0.00  0.00    -0.532 OA
ENDBRANCH  40  48
ENDBRANCH  33  36
ENDBRANCH  29  32
ENDBRANCH   2  29
TORSDOF 11
ENDMDL
MODEL 4
REMARK VINA RESULT:      -7.1      1.920      3.284
REMARK  11 active torsions:
REMARK  status: ('A' for Active; 'I' for Inactive)
REMARK    1  A    between atoms: C1_1  and  O8_8 
REMARK    2  A    between atoms: C2_2  and  O9_9 
REMARK    3  A    between atoms: C3_3  and  S7_7 
REMARK    4  A    between atoms: C5_5  and  C6_6 
REMARK    5  A    between atoms: S7_7  and  C11_11 
REMARK    6  A    between atoms: C10_10  and  C12_12 
REMARK    7  A    between atoms: C12_12  and  N13_13 
REMARK       I    between atoms: N13_13  and  C14_14 
REMARK    8  A    between atoms: C14_14  and  C15_15 
REMARK    9  A    between atoms: C16_16  and  O22_22 
REMARK   10  A    between atoms: C17_17  and  O23_23 
REMARK   11  A    between atoms: C19_19  and  N21_21 
ROOT
ATOM      1  C6  MOL d          21.451 -32.326  11.252  0.00  0.00    -0.075 C 
ATOM      2  C10 MOL d          21.806 -33.316  10.482  0.00  0.00    -0.087 C 
ATOM      3  H5  MOL d          20.948 -31.461  10.823  0.00  0.00     0.080 H 
ATOM      4  H8  MOL d          22.294 -34.176  10.938  0.00  0.00     0.079 H 
ENDROOT
BRANCH   1   5
ATOM      5  C5  MOL d          21.724 -32.365  12.695  0.00  0.00     0.083 C 
ATOM      6  C1  MOL d          20.725 -33.324  13.414  0.00  0.00     0.091 C 
ATOM      7  C2  MOL d          19.494 -32.399  13.331  0.00  0.00     0.097 C 
ATOM      8  H1  MOL d          20.587 -34.296  12.918  0.00  0.00     0.091 H 
ATOM      9  C3  MOL d          20.063 -30.999  13.576  0.00  0.00     0.115 C 
ATOM     10  H2  MOL d          19.040 -32.465  12.331  0.00  0.00     0.092 H 
ATOM     11  O4  MOL d          21.456 -31.098  13.246  0.00  0.00    -0.361 OA
ATOM     12  H3  MOL d          19.942 -30.704  14.629  0.00  0.00     0.105 H 
ATOM     13  H4  MOL d          22.766 -32.670  12.877  0.00  0.00     0.093 H 
BRANCH   6  14
ATOM     14  O8  MOL d          21.160 -33.475  14.763  0.00  0.00    -0.390 OA
ATOM     15  H6  MOL d          21.054 -32.650  15.223  0.00  0.00     0.210 HD
ENDBRANCH   6  14
BRANCH   7  16
ATOM     16  O9  MOL d          18.493 -32.694  14.313  0.00  0.00    -0.389 OA
ATOM     17  H7  MOL d          18.890 -33.168  15.034  0.00  0.00     0.210 HD
ENDBRANCH   7  16
BRANCH   9  18
ATOM     18  S7  MOL d          19.192 -29.829  12.523  0.00  0.00    -0.095 SA
BRANCH  18  19
ATOM     19  C11 MOL d          17.572 -30.213  12.661  0.00  0.00     0.005 A 
ATOM     20  C27 MOL d          16.736 -29.608  13.689  0.00  0.00    -0.050 A 
ATOM     21  C28 MOL d          15.374 -29.922  13.767  0.00  0.00     0.003 A 
ATOM     22  H16 MOL d          17.171 -28.912  14.398  0.00  0.00     0.087 H 
ATOM     23  N29 MOL d          14.733 -30.804  12.929  0.00  0.00    -0.273 NA
ATOM     24  H17 MOL d          14.786 -29.437  14.539  0.00  0.00     0.114 H 
ATOM     25  C30 MOL d          15.528 -31.391  11.953  0.00  0.00     0.003 A 
ATOM     26  C31 MOL d          16.884 -31.119  11.799  0.00  0.00    -0.050 A 
ATOM     27  H18 MOL d          15.066 -32.099  11.275  0.00  0.00     0.114 H 
ATOM     28  H19 MOL d          17.432 -31.608  11.002  0.00  0.00     0.087 H 
ENDBRANCH  18  19
ENDBRANCH   9  18
ENDBRANCH   1   5
BRANCH   2  29
ATOM     29  C12 MOL d          21.576 -33.332   9.007  0.00  0.00     0.010 C 
ATOM     30  H9  MOL d          20.504 -33.182   8.815  0.00  0.00     0.070 H 
ATOM     31  H10 MOL d          21.885 -34.312   8.613  0.00  0.00     0.070 H 
BRANCH  29  32
ATOM     32  N13 MOL d          22.316 -32.304   8.320  0.00  0.00    -0.353 N 
ATOM     33  C14 MOL d          22.468 -32.182   6.988  0.00  0.00     0.254 C 
ATOM     34  O24 MOL d          21.831 -32.944   6.203  0.00  0.00    -0.268 OA
ATOM     35  H11 MOL d          22.760 -31.612   8.889  0.00  0.00     0.163 HD
BRANCH  33  36
ATOM     36  C15 MOL d          23.393 -31.174   6.411  0.00  0.00     0.070 A 
ATOM     37  C16 MOL d          24.453 -31.553   5.539  0.00  0.00     0.114 A 
ATOM     38  C17 MOL d          25.257 -30.504   5.015  0.00  0.00     0.102 A 
ATOM     39  C18 MOL d          25.101 -29.180   5.314  0.00  0.00    -0.016 A 
ATOM     40  C19 MOL d          24.028 -28.843   6.169  0.00  0.00     0.106 A 
ATOM     41  H12 MOL d          25.768 -28.426   4.915  0.00  0.00     0.091 H 
ATOM     42  C20 MOL d          23.182 -29.832   6.716  0.00  0.00    -0.033 A 
ATOM     43  H13 MOL d          22.368 -29.547   7.373  0.00  0.00     0.089 H 
BRANCH  37  44
ATOM     44  O22 MOL d          24.754 -32.810   5.195  0.00  0.00    -0.357 OA
ATOM     45  H14 MOL d          24.393 -33.409   5.838  0.00  0.00     0.217 HD
ENDBRANCH  37  44
BRANCH  38  46
ATOM     46  O23 MOL d          26.291 -30.849   4.165  0.00  0.00    -0.358 OA
ATOM     47  H15 MOL d          27.117 -30.776   4.628  0.00  0.00     0.217 HD
ENDBRANCH  38  46
BRANCH  40  48
ATOM     48  N21 MOL d          23.800 -27.461   6.530  0.00  0.00    -0.116 N 
ATOM     49  O25 MOL d          24.527 -26.583   6.148  0.00  0.00    -0.532 OA
ATOM     50  O26 MOL d          22.851 -27.240   7.267  0.00  0.00    -0.532 OA
ENDBRANCH  40  48
ENDBRANCH  33  36
ENDBRANCH  29  32
ENDBRANCH   2  29
TORSDOF 11
ENDMDL
