MODEL 1
REMARK VINA RESULT:      -5.8      0.000      0.000
REMARK  4 active torsions:
REMARK  status: ('A' for Active; 'I' for Inactive)
REMARK    1  A    between atoms: C4_4  and  C6_6 
REMARK    2  A    between atoms: C5_5  and  O8_8 
REMARK    3  A    between atoms: O8_8  and  C9_9 
REMARK    4  A    between atoms: C9_9  and  C10_10 
ROOT
ATOM      1  C1  MOL d          46.789  13.279   3.235  0.00  0.00    -0.024 A 
ATOM      2  C2  MOL d          45.610  13.555   2.508  0.00  0.00     0.052 A 
ATOM      3  S3  MOL d          47.067  14.549   4.327  0.00  0.00    -0.091 SA
ATOM      4  C4  MOL d          45.700  15.465   3.884  0.00  0.00     0.116 A 
ATOM      5  C5  MOL d          44.984  14.783   2.862  0.00  0.00     0.111 A 
ATOM      6 BR19 MOL d          44.945  12.384   1.195  0.00  0.00    -0.048 Br
ATOM      7  H1  MOL d          47.417  12.397   3.115  0.00  0.00     0.097 H 
ENDROOT
BRANCH   5   8
ATOM      8  O8  MOL d          43.765  15.208   2.208  0.00  0.00    -0.338 OA
BRANCH   8   9
ATOM      9  C9  MOL d          43.963  15.691   0.862  0.00  0.00     0.106 C 
ATOM     10  H2  MOL d          43.033  15.554   0.292  0.00  0.00     0.091 H 
ATOM     11  H3  MOL d          44.772  15.115   0.390  0.00  0.00     0.091 H 
BRANCH   9  12
ATOM     12  C10 MOL d          44.338  17.175   0.856  0.00  0.00     0.198 C 
ATOM     13  O13 MOL d          43.818  17.886   1.868  0.00  0.00    -0.646 OA
ATOM     14  O15 MOL d          45.027  17.672   0.021  0.00  0.00    -0.646 OA
ENDBRANCH   9  12
ENDBRANCH   8   9
ENDBRANCH   5   8
BRANCH   4  15
ATOM     15  C6  MOL d          45.406  16.692   4.489  0.00  0.00     0.219 C 
ATOM     16  O7  MOL d          46.369  17.625   4.364  0.00  0.00    -0.643 OA
ATOM     17  O14 MOL d          44.375  16.912   5.080  0.00  0.00    -0.643 OA
ENDBRANCH   4  15
TORSDOF 4
ENDMDL
MODEL 2
REMARK VINA RESULT:      -5.1      2.154      3.712
REMARK  4 active torsions:
REMARK  status: ('A' for Active; 'I' for Inactive)
REMARK    1  A    between atoms: C4_4  and  C6_6 
REMARK    2  A    between atoms: C5_5  and  O8_8 
REMARK    3  A    between atoms: O8_8  and  C9_9 
REMARK    4  A    between atoms: C9_9  and  C10_10 
ROOT
ATOM      1  C1  MOL d          44.263  15.333  -0.113  0.00  0.00    -0.024 A 
ATOM      2  C2  MOL d          44.706  14.245   0.671  0.00  0.00     0.052 A 
ATOM      3  S3  MOL d          44.199  16.720   0.864  0.00  0.00    -0.091 SA
ATOM      4  C4  MOL d          44.725  15.954   2.293  0.00  0.00     0.116 A 
ATOM      5  C5  MOL d          44.971  14.578   2.029  0.00  0.00     0.111 A 
ATOM      6 BR19 MOL d          44.923  12.518  -0.042  0.00  0.00    -0.048 Br
ATOM      7  H1  MOL d          44.006  15.289  -1.170  0.00  0.00     0.097 H 
ENDROOT
BRANCH   5   8
ATOM      8  O8  MOL d          45.433  13.573   2.961  0.00  0.00    -0.338 OA
BRANCH   8   9
ATOM      9  C9  MOL d          46.859  13.601   3.190  0.00  0.00     0.106 C 
ATOM     10  H2  MOL d          47.362  13.945   2.274  0.00  0.00     0.091 H 
ATOM     11  H3  MOL d          47.202  12.586   3.437  0.00  0.00     0.091 H 
BRANCH   9  12
ATOM     12  C10 MOL d          47.218  14.544   4.340  0.00  0.00     0.198 C 
ATOM     13  O13 MOL d          48.130  15.478   4.031  0.00  0.00    -0.646 OA
ATOM     14  O15 MOL d          46.739  14.460   5.428  0.00  0.00    -0.646 OA
ENDBRANCH   9  12
ENDBRANCH   8   9
ENDBRANCH   5   8
BRANCH   4  15
ATOM     15  C6  MOL d          44.864  16.653   3.497  0.00  0.00     0.219 C 
ATOM     16  O7  MOL d          44.168  16.138   4.529  0.00  0.00    -0.643 OA
ATOM     17  O14 MOL d          45.549  17.640   3.617  0.00  0.00    -0.643 OA
ENDBRANCH   4  15
TORSDOF 4
ENDMDL
MODEL 3
REMARK VINA RESULT:      -4.3      2.818      4.306
REMARK  4 active torsions:
REMARK  status: ('A' for Active; 'I' for Inactive)
REMARK    1  A    between atoms: C4_4  and  C6_6 
REMARK    2  A    between atoms: C5_5  and  O8_8 
REMARK    3  A    between atoms: O8_8  and  C9_9 
REMARK    4  A    between atoms: C9_9  and  C10_10 
ROOT
ATOM      1  C1  MOL d          44.177  15.215   0.717  0.00  0.00    -0.024 A 
ATOM      2  C2  MOL d          44.427  16.049   1.830  0.00  0.00     0.052 A 
ATOM      3  S3  MOL d          44.991  13.742   0.946  0.00  0.00    -0.091 SA
ATOM      4  C4  MOL d          45.673  14.149   2.454  0.00  0.00     0.116 A 
ATOM      5  C5  MOL d          45.267  15.463   2.818  0.00  0.00     0.111 A 
ATOM      6 BR19 MOL d          43.697  17.776   1.971  0.00  0.00    -0.048 Br
ATOM      7  H1  MOL d          43.565  15.474  -0.145  0.00  0.00     0.097 H 
ENDROOT
BRANCH   5   8
ATOM      8  O8  MOL d          45.616  16.190   4.019  0.00  0.00    -0.338 OA
BRANCH   8   9
ATOM      9  C9  MOL d          46.612  17.215   3.813  0.00  0.00     0.106 C 
ATOM     10  H2  MOL d          46.286  18.137   4.314  0.00  0.00     0.091 H 
ATOM     11  H3  MOL d          46.716  17.401   2.734  0.00  0.00     0.091 H 
BRANCH   9  12
ATOM     12  C10 MOL d          47.969  16.791   4.380  0.00  0.00     0.198 C 
ATOM     13  O13 MOL d          48.494  17.650   5.268  0.00  0.00    -0.646 OA
ATOM     14  O15 MOL d          48.527  15.789   4.060  0.00  0.00    -0.646 OA
ENDBRANCH   9  12
ENDBRANCH   8   9
ENDBRANCH   5   8
BRANCH   4  15
ATOM     15  C6  MOL d          46.495  13.261   3.156  0.00  0.00     0.219 C 
ATOM     16  O7  MOL d          47.163  12.383   2.382  0.00  0.00    -0.643 OA
ATOM     17  O14 MOL d          46.609  13.268   4.358  0.00  0.00    -0.643 OA
ENDBRANCH   4  15
TORSDOF 4
ENDMDL
