MODEL 1
REMARK VINA RESULT:      -8.0      0.000      0.000
REMARK  16 active torsions:
REMARK  status: ('A' for Active; 'I' for Inactive)
REMARK    1  A    between atoms: S8_1  and  C35_3 
REMARK    2  A    between atoms: N11_14  and  S8_1 
REMARK    3  A    between atoms: O9_5  and  C10_4 
REMARK    4  A    between atoms: C5_6  and  O9_5 
REMARK    5  A    between atoms: C45_25  and  C13_13 
REMARK       I    between atoms: C13_13  and  N15_30 
REMARK    6  A    between atoms: C45_25  and  N11_14 
REMARK    7  A    between atoms: C15_16  and  C31_17 
REMARK    8  A    between atoms: N14_29  and  C15_16 
REMARK    9  A    between atoms: C12_26  and  C45_25 
REMARK   10  A    between atoms: C46_27  and  C12_26 
REMARK       I    between atoms: C46_27  and  N14_29 
REMARK   11  A    between atoms: C16_31  and  C17_32 
REMARK       I    between atoms: C17_32  and  N19_37 
REMARK   12  A    between atoms: N19_37  and  C20_38 
REMARK   13  A    between atoms: C20_38  and  C21_39 
REMARK   14  A    between atoms: C24_42  and  C27_43 
REMARK   15  A    between atoms: C27_43  and  N29_44 
REMARK   16  A    between atoms: C27_43  and  N28_45 
ROOT
ATOM      1  C31 MOL d          21.061 -17.158  22.782  0.00  0.00    -0.040 A 
ATOM      2  C32 MOL d          20.497 -18.257  23.256  0.00  0.00    -0.074 A 
ATOM      3  C33 MOL d          20.801 -18.622  24.503  0.00  0.00    -0.062 A 
ATOM      4  C44 MOL d          21.674 -17.974  25.309  0.00  0.00     0.044 A 
ATOM      5  C8  MOL d          22.266 -16.834  24.830  0.00  0.00    -0.062 A 
ATOM      6  C9  MOL d          21.959 -16.558  23.586  0.00  0.00    -0.074 A 
ATOM      7  C40 MOL d          21.843 -18.381  26.435  0.00  0.00     0.099 C 
ATOM      8  N63 MOL d          21.915 -18.654  27.502  0.00  0.00    -0.191 NA
ATOM      9  H10 MOL d          19.812 -18.841  22.652  0.00  0.00     0.084 H 
ATOM     10  H11 MOL d          20.311 -19.503  24.901  0.00  0.00     0.085 H 
ATOM     11  H12 MOL d          22.927 -16.218  25.426  0.00  0.00     0.085 H 
ATOM     12  H13 MOL d          22.504 -15.732  23.143  0.00  0.00     0.084 H 
ENDROOT
BRANCH   1  13
ATOM     13  C15 MOL d          20.769 -16.718  21.453  0.00  0.00     0.019 C 
ATOM     14  H8  MOL d          20.438 -17.593  20.875  0.00  0.00     0.071 H 
ATOM     15  H9  MOL d          21.699 -16.323  21.020  0.00  0.00     0.071 H 
BRANCH  13  16
ATOM     16  N14 MOL d          19.717 -15.658  21.318  0.00  0.00    -0.357 N 
ATOM     17  C46 MOL d          19.840 -14.344  21.227  0.00  0.00     0.220 C 
ATOM     18  O22 MOL d          20.818 -13.769  21.341  0.00  0.00    -0.274 OA
ATOM     19  H17 MOL d          18.776 -15.997  21.293  0.00  0.00     0.162 HD
BRANCH  17  20
ATOM     20  C12 MOL d          18.544 -13.465  21.115  0.00  0.00     0.037 C 
ATOM     21  H15 MOL d          18.189 -13.247  22.133  0.00  0.00     0.051 H 
ATOM     22  H16 MOL d          18.811 -12.525  20.609  0.00  0.00     0.051 H 
BRANCH  20  23
ATOM     23  C45 MOL d          17.336 -14.147  20.299  0.00  0.00     0.105 C 
ATOM     24  H14 MOL d          17.738 -14.921  19.629  0.00  0.00     0.089 H 
BRANCH  23  25
ATOM     25  C13 MOL d          16.430 -14.798  21.413  0.00  0.00     0.244 C 
ATOM     26  O14 MOL d          16.501 -14.309  22.488  0.00  0.00    -0.271 OA
ATOM     27  N15 MOL d          15.710 -15.788  21.061  0.00  0.00    -0.337 N 
ATOM     28  C16 MOL d          15.107 -16.578  22.045  0.00  0.00     0.091 C 
ATOM     29  C2  MOL d          15.673 -16.434  19.752  0.00  0.00    -0.001 C 
ATOM     30  C34 MOL d          14.566 -17.803  21.327  0.00  0.00    -0.036 C 
ATOM     31  H18 MOL d          14.352 -16.038  22.635  0.00  0.00     0.087 H 
ATOM     32  C1  MOL d          14.787 -17.603  19.863  0.00  0.00    -0.048 C 
ATOM     33  H19 MOL d          13.491 -17.913  21.532  0.00  0.00     0.036 H 
ATOM     34  H20 MOL d          15.099 -18.702  21.668  0.00  0.00     0.036 H 
ATOM     35  H21 MOL d          13.832 -17.411  19.353  0.00  0.00     0.035 H 
ATOM     36  H22 MOL d          15.266 -18.491  19.423  0.00  0.00     0.035 H 
ATOM     37  H23 MOL d          16.684 -16.755  19.462  0.00  0.00     0.064 H 
ATOM     38  H24 MOL d          15.280 -15.735  18.999  0.00  0.00     0.064 H 
BRANCH  28  39
ATOM     39  C17 MOL d          16.291 -17.165  22.903  0.00  0.00     0.240 C 
ATOM     40  O18 MOL d          17.118 -17.890  22.482  0.00  0.00    -0.271 OA
ATOM     41  N19 MOL d          16.241 -16.865  24.238  0.00  0.00    -0.355 N 
ATOM     42  H25 MOL d          15.470 -16.320  24.567  0.00  0.00     0.162 HD
BRANCH  41  43
ATOM     43  C20 MOL d          17.217 -17.282  25.189  0.00  0.00     0.019 C 
ATOM     44  H26 MOL d          17.759 -18.162  24.812  0.00  0.00     0.071 H 
ATOM     45  H27 MOL d          16.731 -17.531  26.143  0.00  0.00     0.071 H 
BRANCH  43  46
ATOM     46  C21 MOL d          18.164 -16.142  25.379  0.00  0.00    -0.040 A 
ATOM     47  C26 MOL d          18.897 -15.948  26.511  0.00  0.00    -0.074 A 
ATOM     48  C25 MOL d          19.711 -14.957  26.697  0.00  0.00    -0.069 A 
ATOM     49  H28 MOL d          18.793 -16.673  27.310  0.00  0.00     0.084 H 
ATOM     50  C24 MOL d          19.904 -14.000  25.811  0.00  0.00     0.007 A 
ATOM     51  H29 MOL d          20.261 -14.913  27.630  0.00  0.00     0.085 H 
ATOM     52  C23 MOL d          19.169 -14.108  24.698  0.00  0.00    -0.069 A 
ATOM     53  C22 MOL d          18.349 -15.154  24.527  0.00  0.00    -0.074 A 
ATOM     54  H34 MOL d          19.239 -13.346  23.931  0.00  0.00     0.085 H 
ATOM     55  H35 MOL d          17.786 -15.191  23.602  0.00  0.00     0.084 H 
BRANCH  50  56
ATOM     56  C27 MOL d          20.800 -12.901  25.990  0.00  0.00     0.102 C 
BRANCH  56  57
ATOM     57  N29 MOL d          20.800 -12.282  26.990  0.00  0.00    -0.385 N 
ATOM     58  H30 MOL d          19.971 -11.731  27.255  0.00  0.00     0.157 HD
ATOM     59  H31 MOL d          21.629 -12.291  27.600  0.00  0.00     0.157 HD
ENDBRANCH  56  57
BRANCH  56  60
ATOM     60  N28 MOL d          21.654 -12.603  25.090  0.00  0.00    -0.385 N 
ATOM     61  H32 MOL d          22.458 -13.224  24.917  0.00  0.00     0.157 HD
ATOM     62  H33 MOL d          21.540 -11.741  24.536  0.00  0.00     0.157 HD
ENDBRANCH  56  60
ENDBRANCH  50  56
ENDBRANCH  43  46
ENDBRANCH  41  43
ENDBRANCH  28  39
ENDBRANCH  23  25
BRANCH  23  63
ATOM     63  N11 MOL d          16.599 -13.292  19.567  0.00  0.00    -0.301 N 
ATOM     64  H7  MOL d          15.966 -13.641  18.876  0.00  0.00     0.173 HD
BRANCH  63  65
ATOM     65  S8  MOL d          16.734 -11.742  19.799  0.00  0.00     0.259 S 
ATOM     66  O1  MOL d          16.550 -11.392  18.664  0.00  0.00    -0.201 OA
ATOM     67  O10 MOL d          17.593 -11.442  20.478  0.00  0.00    -0.201 OA
BRANCH  65  68
ATOM     68  C35 MOL d          15.264 -11.235  20.552  0.00  0.00     0.081 A 
ATOM     69  C7  MOL d          14.796  -9.949  20.492  0.00  0.00    -0.058 A 
ATOM     70  C6  MOL d          13.581  -9.577  21.073  0.00  0.00    -0.048 A 
ATOM     71  H4  MOL d          15.387  -9.198  19.980  0.00  0.00     0.086 H 
ATOM     72  C5  MOL d          12.795 -10.542  21.656  0.00  0.00     0.089 A 
ATOM     73  H6  MOL d          13.262  -8.540  21.063  0.00  0.00     0.087 H 
ATOM     74  C4  MOL d          13.257 -11.805  21.633  0.00  0.00     0.068 A 
ATOM     75 CL   MOL d          12.202 -13.041  22.308  0.00  0.00    -0.081 Cl
ATOM     76  C3  MOL d          14.401 -12.183  21.140  0.00  0.00    -0.037 A 
ATOM     77  H5  MOL d          14.690 -13.227  21.180  0.00  0.00     0.088 H 
BRANCH  72  78
ATOM     78  O9  MOL d          11.657 -10.236  22.298  0.00  0.00    -0.354 OA
BRANCH  78  79
ATOM     79  C10 MOL d          11.713  -9.601  23.492  0.00  0.00     0.010 C 
ATOM     80  H1  MOL d          10.881  -8.884  23.565  0.00  0.00     0.066 H 
ATOM     81  H2  MOL d          12.669  -9.064  23.578  0.00  0.00     0.066 H 
ATOM     82  H3  MOL d          11.632 -10.339  24.304  0.00  0.00     0.066 H 
ENDBRANCH  78  79
ENDBRANCH  72  78
ENDBRANCH  65  68
ENDBRANCH  63  65
ENDBRANCH  23  63
ENDBRANCH  20  23
ENDBRANCH  17  20
ENDBRANCH  13  16
ENDBRANCH   1  13
TORSDOF 16
ENDMDL
MODEL 2
REMARK VINA RESULT:      -7.0      1.647      2.041
REMARK  16 active torsions:
REMARK  status: ('A' for Active; 'I' for Inactive)
REMARK    1  A    between atoms: S8_1  and  C35_3 
REMARK    2  A    between atoms: N11_14  and  S8_1 
REMARK    3  A    between atoms: O9_5  and  C10_4 
REMARK    4  A    between atoms: C5_6  and  O9_5 
REMARK    5  A    between atoms: C45_25  and  C13_13 
REMARK       I    between atoms: C13_13  and  N15_30 
REMARK    6  A    between atoms: C45_25  and  N11_14 
REMARK    7  A    between atoms: C15_16  and  C31_17 
REMARK    8  A    between atoms: N14_29  and  C15_16 
REMARK    9  A    between atoms: C12_26  and  C45_25 
REMARK   10  A    between atoms: C46_27  and  C12_26 
REMARK       I    between atoms: C46_27  and  N14_29 
REMARK   11  A    between atoms: C16_31  and  C17_32 
REMARK       I    between atoms: C17_32  and  N19_37 
REMARK   12  A    between atoms: N19_37  and  C20_38 
REMARK   13  A    between atoms: C20_38  and  C21_39 
REMARK   14  A    between atoms: C24_42  and  C27_43 
REMARK   15  A    between atoms: C27_43  and  N29_44 
REMARK   16  A    between atoms: C27_43  and  N28_45 
ROOT
ATOM      1  C31 MOL d          21.417 -19.115  22.652  0.00  0.00    -0.040 A 
ATOM      2  C32 MOL d          20.965 -19.871  23.639  0.00  0.00    -0.074 A 
ATOM      3  C33 MOL d          21.783 -20.101  24.669  0.00  0.00    -0.062 A 
ATOM      4  C44 MOL d          23.056 -19.651  24.762  0.00  0.00     0.044 A 
ATOM      5  C8  MOL d          23.536 -18.867  23.746  0.00  0.00    -0.062 A 
ATOM      6  C9  MOL d          22.700 -18.718  22.748  0.00  0.00    -0.074 A 
ATOM      7  C40 MOL d          23.690 -19.896  25.763  0.00  0.00     0.099 C 
ATOM      8  N63 MOL d          24.241 -19.994  26.714  0.00  0.00    -0.191 NA
ATOM      9  H10 MOL d          19.966 -20.290  23.613  0.00  0.00     0.084 H 
ATOM     10  H11 MOL d          21.399 -20.692  25.492  0.00  0.00     0.085 H 
ATOM     11  H12 MOL d          24.519 -18.411  23.766  0.00  0.00     0.085 H 
ATOM     12  H13 MOL d          23.096 -18.204  21.879  0.00  0.00     0.084 H 
ENDROOT
BRANCH   1  13
ATOM     13  C15 MOL d          20.583 -18.833  21.526  0.00  0.00     0.019 C 
ATOM     14  H8  MOL d          19.922 -19.699  21.373  0.00  0.00     0.071 H 
ATOM     15  H9  MOL d          21.235 -18.711  20.649  0.00  0.00     0.071 H 
BRANCH  13  16
ATOM     16  N14 MOL d          19.719 -17.612  21.625  0.00  0.00    -0.357 N 
ATOM     17  C46 MOL d          20.030 -16.335  21.475  0.00  0.00     0.220 C 
ATOM     18  O22 MOL d          21.087 -15.931  21.334  0.00  0.00    -0.274 OA
ATOM     19  H17 MOL d          18.758 -17.790  21.838  0.00  0.00     0.162 HD
BRANCH  17  20
ATOM     20  C12 MOL d          18.909 -15.252  21.660  0.00  0.00     0.037 C 
ATOM     21  H15 MOL d          18.881 -14.966  22.722  0.00  0.00     0.051 H 
ATOM     22  H16 MOL d          19.175 -14.376  21.051  0.00  0.00     0.051 H 
BRANCH  20  23
ATOM     23  C45 MOL d          17.433 -15.730  21.232  0.00  0.00     0.105 C 
ATOM     24  H14 MOL d          17.509 -16.623  20.595  0.00  0.00     0.089 H 
BRANCH  23  25
ATOM     25  C13 MOL d          16.725 -16.082  22.596  0.00  0.00     0.244 C 
ATOM     26  O14 MOL d          16.866 -15.296  23.470  0.00  0.00    -0.271 OA
ATOM     27  N15 MOL d          16.072 -17.175  22.638  0.00  0.00    -0.337 N 
ATOM     28  C16 MOL d          15.662 -17.679  23.876  0.00  0.00     0.091 C 
ATOM     29  C2  MOL d          15.954 -18.176  21.581  0.00  0.00    -0.001 C 
ATOM     30  C34 MOL d          15.169 -19.091  23.613  0.00  0.00    -0.036 C 
ATOM     31  H18 MOL d          14.927 -17.039  24.386  0.00  0.00     0.087 H 
ATOM     32  C1  MOL d          15.206 -19.315  22.136  0.00  0.00    -0.048 C 
ATOM     33  H19 MOL d          14.139 -19.204  23.984  0.00  0.00     0.036 H 
ATOM     34  H20 MOL d          15.823 -19.816  24.119  0.00  0.00     0.036 H 
ATOM     35  H21 MOL d          14.186 -19.340  21.726  0.00  0.00     0.035 H 
ATOM     36  H22 MOL d          15.718 -20.261  21.905  0.00  0.00     0.035 H 
ATOM     37  H23 MOL d          16.953 -18.504  21.261  0.00  0.00     0.064 H 
ATOM     38  H24 MOL d          15.413 -17.754  20.722  0.00  0.00     0.064 H 
BRANCH  28  39
ATOM     39  C17 MOL d          16.986 -17.913  24.698  0.00  0.00     0.240 C 
ATOM     40  O18 MOL d          17.742 -18.794  24.498  0.00  0.00    -0.271 OA
ATOM     41  N19 MOL d          17.160 -17.075  25.766  0.00  0.00    -0.355 N 
ATOM     42  H25 MOL d          16.447 -16.399  25.951  0.00  0.00     0.162 HD
BRANCH  41  43
ATOM     43  C20 MOL d          18.292 -17.105  26.631  0.00  0.00     0.019 C 
ATOM     44  H26 MOL d          18.657 -18.137  26.738  0.00  0.00     0.071 H 
ATOM     45  H27 MOL d          18.020 -16.707  27.620  0.00  0.00     0.071 H 
BRANCH  43  46
ATOM     46  C21 MOL d          19.347 -16.251  26.008  0.00  0.00    -0.040 A 
ATOM     47  C26 MOL d          19.242 -14.900  25.869  0.00  0.00    -0.074 A 
ATOM     48  C25 MOL d          20.141 -14.147  25.318  0.00  0.00    -0.069 A 
ATOM     49  H28 MOL d          18.345 -14.421  26.244  0.00  0.00     0.084 H 
ATOM     50  C24 MOL d          21.262 -14.613  24.802  0.00  0.00     0.007 A 
ATOM     51  H29 MOL d          19.963 -13.079  25.279  0.00  0.00     0.085 H 
ATOM     52  C23 MOL d          21.397 -15.943  24.863  0.00  0.00    -0.069 A 
ATOM     53  C22 MOL d          20.457 -16.693  25.454  0.00  0.00    -0.074 A 
ATOM     54  H34 MOL d          22.272 -16.415  24.431  0.00  0.00     0.085 H 
ATOM     55  H35 MOL d          20.626 -17.763  25.478  0.00  0.00     0.084 H 
BRANCH  50  56
ATOM     56  C27 MOL d          22.271 -13.804  24.195  0.00  0.00     0.102 C 
BRANCH  56  57
ATOM     57  N29 MOL d          22.216 -13.530  23.053  0.00  0.00    -0.385 N 
ATOM     58  H30 MOL d          21.908 -14.235  22.368  0.00  0.00     0.157 HD
ATOM     59  H31 MOL d          22.475 -12.584  22.738  0.00  0.00     0.157 HD
ENDBRANCH  56  57
BRANCH  56  60
ATOM     60  N28 MOL d          23.224 -13.317  24.892  0.00  0.00    -0.385 N 
ATOM     61  H32 MOL d          24.182 -13.301  24.515  0.00  0.00     0.157 HD
ATOM     62  H33 MOL d          23.034 -12.941  25.832  0.00  0.00     0.157 HD
ENDBRANCH  56  60
ENDBRANCH  50  56
ENDBRANCH  43  46
ENDBRANCH  41  43
ENDBRANCH  28  39
ENDBRANCH  23  25
BRANCH  23  63
ATOM     63  N11 MOL d          16.710 -14.802  20.579  0.00  0.00    -0.301 N 
ATOM     64  H7  MOL d          15.861 -15.063  20.118  0.00  0.00     0.173 HD
BRANCH  63  65
ATOM     65  S8  MOL d          17.200 -13.308  20.541  0.00  0.00     0.259 S 
ATOM     66  O1  MOL d          17.307 -13.204  19.348  0.00  0.00    -0.201 OA
ATOM     67  O10 MOL d          17.980 -13.050  21.324  0.00  0.00    -0.201 OA
BRANCH  65  68
ATOM     68  C35 MOL d          15.806 -12.333  20.843  0.00  0.00     0.081 A 
ATOM     69  C7  MOL d          15.674 -11.051  20.379  0.00  0.00    -0.058 A 
ATOM     70  C6  MOL d          14.516 -10.301  20.600  0.00  0.00    -0.048 A 
ATOM     71  H4  MOL d          16.492 -10.605  19.824  0.00  0.00     0.086 H 
ATOM     72  C5  MOL d          13.449 -10.889  21.236  0.00  0.00     0.089 A 
ATOM     73  H6  MOL d          14.460  -9.268  20.274  0.00  0.00     0.087 H 
ATOM     74  C4  MOL d          13.592 -12.172  21.614  0.00  0.00     0.068 A 
ATOM     75 CL   MOL d          12.189 -12.937  22.350  0.00  0.00    -0.081 Cl
ATOM     76  C3  MOL d          14.668 -12.889  21.463  0.00  0.00    -0.037 A 
ATOM     77  H5  MOL d          14.690 -13.915  21.814  0.00  0.00     0.088 H 
BRANCH  72  78
ATOM     78  O9  MOL d          12.341 -10.199  21.546  0.00  0.00    -0.354 OA
BRANCH  78  79
ATOM     79  C10 MOL d          12.282  -9.519  22.715  0.00  0.00     0.010 C 
ATOM     80  H1  MOL d          11.321  -8.989  22.783  0.00  0.00     0.066 H 
ATOM     81  H2  MOL d          13.106  -8.791  22.758  0.00  0.00     0.066 H 
ATOM     82  H3  MOL d          12.372 -10.224  23.555  0.00  0.00     0.066 H 
ENDBRANCH  78  79
ENDBRANCH  72  78
ENDBRANCH  65  68
ENDBRANCH  63  65
ENDBRANCH  23  63
ENDBRANCH  20  23
ENDBRANCH  17  20
ENDBRANCH  13  16
ENDBRANCH   1  13
TORSDOF 16
ENDMDL
MODEL 3
REMARK VINA RESULT:      -5.8      2.853      7.746
REMARK  16 active torsions:
REMARK  status: ('A' for Active; 'I' for Inactive)
REMARK    1  A    between atoms: S8_1  and  C35_3 
REMARK    2  A    between atoms: N11_14  and  S8_1 
REMARK    3  A    between atoms: O9_5  and  C10_4 
REMARK    4  A    between atoms: C5_6  and  O9_5 
REMARK    5  A    between atoms: C45_25  and  C13_13 
REMARK       I    between atoms: C13_13  and  N15_30 
REMARK    6  A    between atoms: C45_25  and  N11_14 
REMARK    7  A    between atoms: C15_16  and  C31_17 
REMARK    8  A    between atoms: N14_29  and  C15_16 
REMARK    9  A    between atoms: C12_26  and  C45_25 
REMARK   10  A    between atoms: C46_27  and  C12_26 
REMARK       I    between atoms: C46_27  and  N14_29 
REMARK   11  A    between atoms: C16_31  and  C17_32 
REMARK       I    between atoms: C17_32  and  N19_37 
REMARK   12  A    between atoms: N19_37  and  C20_38 
REMARK   13  A    between atoms: C20_38  and  C21_39 
REMARK   14  A    between atoms: C24_42  and  C27_43 
REMARK   15  A    between atoms: C27_43  and  N29_44 
REMARK   16  A    between atoms: C27_43  and  N28_45 
ROOT
ATOM      1  C31 MOL d          13.584 -11.831  21.257  0.00  0.00    -0.040 A 
ATOM      2  C32 MOL d          12.645 -12.316  22.053  0.00  0.00    -0.074 A 
ATOM      3  C33 MOL d          11.971 -11.453  22.815  0.00  0.00    -0.062 A 
ATOM      4  C44 MOL d          12.201 -10.120  22.866  0.00  0.00     0.044 A 
ATOM      5  C8  MOL d          13.171  -9.604  22.048  0.00  0.00    -0.062 A 
ATOM      6  C9  MOL d          13.824 -10.510  21.360  0.00  0.00    -0.074 A 
ATOM      7  C40 MOL d          11.500  -9.433  23.573  0.00  0.00     0.099 C 
ATOM      8  N63 MOL d          10.795  -8.771  24.105  0.00  0.00    -0.191 NA
ATOM      9  H10 MOL d          12.431 -13.378  22.084  0.00  0.00     0.084 H 
ATOM     10  H11 MOL d          11.179 -11.849  23.440  0.00  0.00     0.085 H 
ATOM     11  H12 MOL d          13.380  -8.544  21.976  0.00  0.00     0.085 H 
ATOM     12  H13 MOL d          14.675 -10.144  20.796  0.00  0.00     0.084 H 
ENDROOT
BRANCH   1  13
ATOM     13  C15 MOL d          14.336 -12.708  20.416  0.00  0.00     0.019 C 
ATOM     14  H8  MOL d          15.009 -12.090  19.803  0.00  0.00     0.071 H 
ATOM     15  H9  MOL d          13.626 -13.235  19.762  0.00  0.00     0.071 H 
BRANCH  13  16
ATOM     16  N14 MOL d          15.171 -13.743  21.109  0.00  0.00    -0.357 N 
ATOM     17  C46 MOL d          15.996 -14.647  20.605  0.00  0.00     0.220 C 
ATOM     18  O22 MOL d          16.135 -14.859  19.494  0.00  0.00    -0.274 OA
ATOM     19  H17 MOL d          15.093 -13.751  22.106  0.00  0.00     0.162 HD
BRANCH  17  20
ATOM     20  C12 MOL d          16.734 -15.630  21.581  0.00  0.00     0.037 C 
ATOM     21  H15 MOL d          17.133 -15.042  22.421  0.00  0.00     0.051 H 
ATOM     22  H16 MOL d          15.997 -16.355  21.958  0.00  0.00     0.051 H 
BRANCH  20  23
ATOM     23  C45 MOL d          17.951 -16.450  20.920  0.00  0.00     0.105 C 
ATOM     24  H14 MOL d          18.173 -16.035  19.926  0.00  0.00     0.089 H 
BRANCH  23  25
ATOM     25  C13 MOL d          19.162 -16.210  21.902  0.00  0.00     0.244 C 
ATOM     26  O14 MOL d          19.346 -17.054  22.711  0.00  0.00    -0.271 OA
ATOM     27  N15 MOL d          19.827 -15.136  21.741  0.00  0.00    -0.337 N 
ATOM     28  C16 MOL d          20.721 -14.730  22.736  0.00  0.00     0.091 C 
ATOM     29  C2  MOL d          19.558 -14.063  20.787  0.00  0.00    -0.001 C 
ATOM     30  C34 MOL d          21.132 -13.312  22.380  0.00  0.00    -0.036 C 
ATOM     31  H18 MOL d          21.568 -15.419  22.869  0.00  0.00     0.087 H 
ATOM     32  C1  MOL d          20.517 -12.981  21.059  0.00  0.00    -0.048 C 
ATOM     33  H19 MOL d          22.228 -13.246  22.310  0.00  0.00     0.036 H 
ATOM     34  H20 MOL d          20.770 -12.613  23.148  0.00  0.00     0.036 H 
ATOM     35  H21 MOL d          21.288 -12.946  20.275  0.00  0.00     0.035 H 
ATOM     36  H22 MOL d          19.999 -12.012  21.109  0.00  0.00     0.035 H 
ATOM     37  H23 MOL d          18.530 -13.694  20.916  0.00  0.00     0.064 H 
ATOM     38  H24 MOL d          19.689 -14.432  19.759  0.00  0.00     0.064 H 
BRANCH  28  39
ATOM     39  C17 MOL d          19.849 -14.531  24.034  0.00  0.00     0.240 C 
ATOM     40  O18 MOL d          19.091 -13.643  24.192  0.00  0.00    -0.271 OA
ATOM     41  N19 MOL d          20.111 -15.412  25.047  0.00  0.00    -0.355 N 
ATOM     42  H25 MOL d          20.827 -16.095  24.901  0.00  0.00     0.162 HD
BRANCH  41  43
ATOM     43  C20 MOL d          19.430 -15.419  26.299  0.00  0.00     0.019 C 
ATOM     44  H26 MOL d          18.928 -14.453  26.460  0.00  0.00     0.071 H 
ATOM     45  H27 MOL d          20.143 -15.603  27.116  0.00  0.00     0.071 H 
BRANCH  43  46
ATOM     46  C21 MOL d          18.419 -16.517  26.246  0.00  0.00    -0.040 A 
ATOM     47  C26 MOL d          18.547 -17.697  26.915  0.00  0.00    -0.074 A 
ATOM     48  C25 MOL d          17.687 -18.665  26.868  0.00  0.00    -0.069 A 
ATOM     49  H28 MOL d          19.429 -17.835  27.530  0.00  0.00     0.084 H 
ATOM     50  C24 MOL d          16.590 -18.626  26.139  0.00  0.00     0.007 A 
ATOM     51  H29 MOL d          17.880 -19.552  27.459  0.00  0.00     0.085 H 
ATOM     52  C23 MOL d          16.435 -17.511  25.416  0.00  0.00    -0.069 A 
ATOM     53  C22 MOL d          17.334 -16.520  25.499  0.00  0.00    -0.074 A 
ATOM     54  H34 MOL d          15.578 -17.408  24.760  0.00  0.00     0.085 H 
ATOM     55  H35 MOL d          17.151 -15.639  24.895  0.00  0.00     0.084 H 
BRANCH  50  56
ATOM     56  C27 MOL d          15.623 -19.677  26.074  0.00  0.00     0.102 C 
BRANCH  56  57
ATOM     57  N29 MOL d          15.114 -20.087  27.051  0.00  0.00    -0.385 N 
ATOM     58  H30 MOL d          14.089 -20.167  27.104  0.00  0.00     0.157 HD
ATOM     59  H31 MOL d          15.694 -20.366  27.856  0.00  0.00     0.157 HD
ENDBRANCH  56  57
BRANCH  56  60
ATOM     60  N28 MOL d          15.252 -20.153  24.949  0.00  0.00    -0.385 N 
ATOM     61  H32 MOL d          15.090 -21.165  24.846  0.00  0.00     0.157 HD
ATOM     62  H33 MOL d          15.115 -19.525  24.144  0.00  0.00     0.157 HD
ENDBRANCH  56  60
ENDBRANCH  50  56
ENDBRANCH  43  46
ENDBRANCH  41  43
ENDBRANCH  28  39
ENDBRANCH  23  25
BRANCH  23  63
ATOM     63  N11 MOL d          17.734 -17.771  20.792  0.00  0.00    -0.301 N 
ATOM     64  H7  MOL d          18.284 -18.309  20.152  0.00  0.00     0.173 HD
BRANCH  63  65
ATOM     65  S8  MOL d          16.615 -18.470  21.648  0.00  0.00     0.259 S 
ATOM     66  O1  MOL d          16.238 -17.498  22.247  0.00  0.00    -0.201 OA
ATOM     67  O10 MOL d          16.918 -19.471  22.089  0.00  0.00    -0.201 OA
BRANCH  65  68
ATOM     68  C35 MOL d          15.286 -18.745  20.578  0.00  0.00     0.081 A 
ATOM     69  C7  MOL d          15.378 -19.519  19.453  0.00  0.00    -0.058 A 
ATOM     70  C6  MOL d          14.275 -19.761  18.629  0.00  0.00    -0.048 A 
ATOM     71  H4  MOL d          16.335 -19.958  19.193  0.00  0.00     0.086 H 
ATOM     72  C5  MOL d          13.045 -19.270  18.997  0.00  0.00     0.089 A 
ATOM     73  H6  MOL d          14.388 -20.329  17.712  0.00  0.00     0.087 H 
ATOM     74  C4  MOL d          12.983 -18.573  20.146  0.00  0.00     0.068 A 
ATOM     75 CL   MOL d          11.388 -18.023  20.647  0.00  0.00    -0.081 Cl
ATOM     76  C3  MOL d          13.994 -18.292  20.917  0.00  0.00    -0.037 A 
ATOM     77  H5  MOL d          13.843 -17.711  21.819  0.00  0.00     0.088 H 
BRANCH  72  78
ATOM     78  O9  MOL d          11.966 -19.402  18.212  0.00  0.00    -0.354 OA
BRANCH  78  79
ATOM     79  C10 MOL d          11.183 -20.500  18.329  0.00  0.00     0.010 C 
ATOM     80  H1  MOL d          10.427 -20.329  19.110  0.00  0.00     0.066 H 
ATOM     81  H2  MOL d          11.804 -21.366  18.604  0.00  0.00     0.066 H 
ATOM     82  H3  MOL d          10.681 -20.697  17.370  0.00  0.00     0.066 H 
ENDBRANCH  78  79
ENDBRANCH  72  78
ENDBRANCH  65  68
ENDBRANCH  63  65
ENDBRANCH  23  63
ENDBRANCH  20  23
ENDBRANCH  17  20
ENDBRANCH  13  16
ENDBRANCH   1  13
TORSDOF 16
ENDMDL
MODEL 4
REMARK VINA RESULT:      -5.3      2.259      5.362
REMARK  16 active torsions:
REMARK  status: ('A' for Active; 'I' for Inactive)
REMARK    1  A    between atoms: S8_1  and  C35_3 
REMARK    2  A    between atoms: N11_14  and  S8_1 
REMARK    3  A    between atoms: O9_5  and  C10_4 
REMARK    4  A    between atoms: C5_6  and  O9_5 
REMARK    5  A    between atoms: C45_25  and  C13_13 
REMARK       I    between atoms: C13_13  and  N15_30 
REMARK    6  A    between atoms: C45_25  and  N11_14 
REMARK    7  A    between atoms: C15_16  and  C31_17 
REMARK    8  A    between atoms: N14_29  and  C15_16 
REMARK    9  A    between atoms: C12_26  and  C45_25 
REMARK   10  A    between atoms: C46_27  and  C12_26 
REMARK       I    between atoms: C46_27  and  N14_29 
REMARK   11  A    between atoms: C16_31  and  C17_32 
REMARK       I    between atoms: C17_32  and  N19_37 
REMARK   12  A    between atoms: N19_37  and  C20_38 
REMARK   13  A    between atoms: C20_38  and  C21_39 
REMARK   14  A    between atoms: C24_42  and  C27_43 
REMARK   15  A    between atoms: C27_43  and  N29_44 
REMARK   16  A    between atoms: C27_43  and  N28_45 
ROOT
ATOM      1  C31 MOL d          22.925 -14.672  24.578  0.00  0.00    -0.040 A 
ATOM      2  C32 MOL d          24.039 -15.321  24.279  0.00  0.00    -0.074 A 
ATOM      3  C33 MOL d          24.246 -16.502  24.865  0.00  0.00    -0.062 A 
ATOM      4  C44 MOL d          23.420 -17.070  25.774  0.00  0.00     0.044 A 
ATOM      5  C8  MOL d          22.263 -16.408  26.093  0.00  0.00    -0.062 A 
ATOM      6  C9  MOL d          22.144 -15.237  25.517  0.00  0.00    -0.074 A 
ATOM      7  C40 MOL d          23.697 -18.163  26.213  0.00  0.00     0.099 C 
ATOM      8  N63 MOL d          23.859 -19.209  26.527  0.00  0.00    -0.191 NA
ATOM      9  H10 MOL d          24.759 -14.908  23.582  0.00  0.00     0.084 H 
ATOM     10  H11 MOL d          25.142 -17.046  24.593  0.00  0.00     0.085 H 
ATOM     11  H12 MOL d          21.515 -16.817  26.762  0.00  0.00     0.085 H 
ATOM     12  H13 MOL d          21.300 -14.640  25.843  0.00  0.00     0.084 H 
ENDROOT
BRANCH   1  13
ATOM     13  C15 MOL d          22.651 -13.405  23.977  0.00  0.00     0.019 C 
ATOM     14  H8  MOL d          23.604 -12.992  23.613  0.00  0.00     0.071 H 
ATOM     15  H9  MOL d          22.240 -12.746  24.756  0.00  0.00     0.071 H 
BRANCH  13  16
ATOM     16  N14 MOL d          21.687 -13.407  22.828  0.00  0.00    -0.357 N 
ATOM     17  C46 MOL d          20.368 -13.296  22.823  0.00  0.00     0.220 C 
ATOM     18  O22 MOL d          19.710 -13.277  23.754  0.00  0.00    -0.274 OA
ATOM     19  H17 MOL d          22.105 -13.508  21.925  0.00  0.00     0.162 HD
BRANCH  17  20
ATOM     20  C12 MOL d          19.605 -13.353  21.453  0.00  0.00     0.037 C 
ATOM     21  H15 MOL d          18.819 -12.585  21.467  0.00  0.00     0.051 H 
ATOM     22  H16 MOL d          20.324 -13.128  20.651  0.00  0.00     0.051 H 
BRANCH  20  23
ATOM     23  C45 MOL d          18.916 -14.770  21.124  0.00  0.00     0.105 C 
ATOM     24  H14 MOL d          18.721 -14.839  20.043  0.00  0.00     0.089 H 
BRANCH  23  25
ATOM     25  C13 MOL d          19.990 -15.838  21.561  0.00  0.00     0.244 C 
ATOM     26  O14 MOL d          20.919 -15.962  20.840  0.00  0.00    -0.271 OA
ATOM     27  N15 MOL d          19.761 -16.471  22.643  0.00  0.00    -0.337 N 
ATOM     28  C16 MOL d          20.514 -17.611  22.939  0.00  0.00     0.091 C 
ATOM     29  C2  MOL d          18.581 -16.366  23.497  0.00  0.00    -0.001 C 
ATOM     30  C34 MOL d          19.827 -18.273  24.122  0.00  0.00    -0.036 C 
ATOM     31  H18 MOL d          21.580 -17.399  23.106  0.00  0.00     0.087 H 
ATOM     32  C1  MOL d          18.715 -17.377  24.558  0.00  0.00    -0.048 C 
ATOM     33  H19 MOL d          20.545 -18.408  24.945  0.00  0.00     0.036 H 
ATOM     34  H20 MOL d          19.425 -19.252  23.821  0.00  0.00     0.036 H 
ATOM     35  H21 MOL d          18.961 -16.898  25.516  0.00  0.00     0.035 H 
ATOM     36  H22 MOL d          17.780 -17.949  24.663  0.00  0.00     0.035 H 
ATOM     37  H23 MOL d          17.672 -16.557  22.909  0.00  0.00     0.064 H 
ATOM     38  H24 MOL d          18.526 -15.361  23.941  0.00  0.00     0.064 H 
BRANCH  28  39
ATOM     39  C17 MOL d          20.239 -18.620  21.760  0.00  0.00     0.240 C 
ATOM     40  O18 MOL d          21.076 -19.240  21.210  0.00  0.00    -0.271 OA
ATOM     41  N19 MOL d          18.944 -18.653  21.319  0.00  0.00    -0.355 N 
ATOM     42  H25 MOL d          18.284 -18.043  21.758  0.00  0.00     0.162 HD
BRANCH  41  43
ATOM     43  C20 MOL d          18.475 -19.503  20.275  0.00  0.00     0.019 C 
ATOM     44  H26 MOL d          18.611 -20.557  20.557  0.00  0.00     0.071 H 
ATOM     45  H27 MOL d          19.028 -19.297  19.346  0.00  0.00     0.071 H 
BRANCH  43  46
ATOM     46  C21 MOL d          17.024 -19.207  20.082  0.00  0.00    -0.040 A 
ATOM     47  C26 MOL d          16.119 -19.162  21.100  0.00  0.00    -0.074 A 
ATOM     48  C25 MOL d          14.855 -18.922  20.948  0.00  0.00    -0.069 A 
ATOM     49  H28 MOL d          16.482 -19.340  22.105  0.00  0.00     0.084 H 
ATOM     50  C24 MOL d          14.291 -18.715  19.775  0.00  0.00     0.007 A 
ATOM     51  H29 MOL d          14.229 -18.889  21.832  0.00  0.00     0.085 H 
ATOM     52  C23 MOL d          15.123 -18.799  18.729  0.00  0.00    -0.069 A 
ATOM     53  C22 MOL d          16.428 -19.033  18.920  0.00  0.00    -0.074 A 
ATOM     54  H34 MOL d          14.737 -18.678  17.724  0.00  0.00     0.085 H 
ATOM     55  H35 MOL d          17.053 -19.082  18.036  0.00  0.00     0.084 H 
BRANCH  50  56
ATOM     56  C27 MOL d          12.902 -18.442  19.581  0.00  0.00     0.102 C 
BRANCH  56  57
ATOM     57  N29 MOL d          12.373 -18.709  18.565  0.00  0.00    -0.385 N 
ATOM     58  H30 MOL d          12.336 -19.687  18.244  0.00  0.00     0.157 HD
ATOM     59  H31 MOL d          11.946 -17.964  17.997  0.00  0.00     0.157 HD
ENDBRANCH  56  57
BRANCH  56  60
ATOM     60  N28 MOL d          12.195 -17.955  20.526  0.00  0.00    -0.385 N 
ATOM     61  H32 MOL d          12.540 -17.986  21.496  0.00  0.00     0.157 HD
ATOM     62  H33 MOL d          11.280 -17.530  20.318  0.00  0.00     0.157 HD
ENDBRANCH  56  60
ENDBRANCH  50  56
ENDBRANCH  43  46
ENDBRANCH  41  43
ENDBRANCH  28  39
ENDBRANCH  23  25
BRANCH  23  63
ATOM     63  N11 MOL d          17.764 -14.999  21.779  0.00  0.00    -0.301 N 
ATOM     64  H7  MOL d          17.745 -14.985  22.779  0.00  0.00     0.173 HD
BRANCH  63  65
ATOM     65  S8  MOL d          16.446 -15.290  20.972  0.00  0.00     0.259 S 
ATOM     66  O1  MOL d          15.786 -15.710  21.885  0.00  0.00    -0.201 OA
ATOM     67  O10 MOL d          16.612 -15.785  19.964  0.00  0.00    -0.201 OA
BRANCH  65  68
ATOM     68  C35 MOL d          15.700 -13.757  20.691  0.00  0.00     0.081 A 
ATOM     69  C7  MOL d          16.127 -12.882  19.728  0.00  0.00    -0.058 A 
ATOM     70  C6  MOL d          15.477 -11.668  19.493  0.00  0.00    -0.048 A 
ATOM     71  H4  MOL d          16.995 -13.139  19.131  0.00  0.00     0.086 H 
ATOM     72  C5  MOL d          14.332 -11.375  20.194  0.00  0.00     0.089 A 
ATOM     73  H6  MOL d          15.870 -10.966  18.765  0.00  0.00     0.087 H 
ATOM     74  C4  MOL d          13.906 -12.291  21.082  0.00  0.00     0.068 A 
ATOM     75 CL   MOL d          12.394 -11.940  21.911  0.00  0.00    -0.081 Cl
ATOM     76  C3  MOL d          14.506 -13.413  21.358  0.00  0.00    -0.037 A 
ATOM     77  H5  MOL d          14.088 -14.083  22.101  0.00  0.00     0.088 H 
BRANCH  72  78
ATOM     78  O9  MOL d          13.708 -10.194  20.070  0.00  0.00    -0.354 OA
BRANCH  78  79
ATOM     79  C10 MOL d          13.785  -9.288  21.073  0.00  0.00     0.010 C 
ATOM     80  H1  MOL d          13.935  -8.284  20.649  0.00  0.00     0.066 H 
ATOM     81  H2  MOL d          14.631  -9.539  21.730  0.00  0.00     0.066 H 
ATOM     82  H3  MOL d          12.851  -9.304  21.654  0.00  0.00     0.066 H 
ENDBRANCH  78  79
ENDBRANCH  72  78
ENDBRANCH  65  68
ENDBRANCH  63  65
ENDBRANCH  23  63
ENDBRANCH  20  23
ENDBRANCH  17  20
ENDBRANCH  13  16
ENDBRANCH   1  13
TORSDOF 16
ENDMDL
MODEL 5
REMARK VINA RESULT:      -5.2      3.036      7.711
REMARK  16 active torsions:
REMARK  status: ('A' for Active; 'I' for Inactive)
REMARK    1  A    between atoms: S8_1  and  C35_3 
REMARK    2  A    between atoms: N11_14  and  S8_1 
REMARK    3  A    between atoms: O9_5  and  C10_4 
REMARK    4  A    between atoms: C5_6  and  O9_5 
REMARK    5  A    between atoms: C45_25  and  C13_13 
REMARK       I    between atoms: C13_13  and  N15_30 
REMARK    6  A    between atoms: C45_25  and  N11_14 
REMARK    7  A    between atoms: C15_16  and  C31_17 
REMARK    8  A    between atoms: N14_29  and  C15_16 
REMARK    9  A    between atoms: C12_26  and  C45_25 
REMARK   10  A    between atoms: C46_27  and  C12_26 
REMARK       I    between atoms: C46_27  and  N14_29 
REMARK   11  A    between atoms: C16_31  and  C17_32 
REMARK       I    between atoms: C17_32  and  N19_37 
REMARK   12  A    between atoms: N19_37  and  C20_38 
REMARK   13  A    between atoms: C20_38  and  C21_39 
REMARK   14  A    between atoms: C24_42  and  C27_43 
REMARK   15  A    between atoms: C27_43  and  N29_44 
REMARK   16  A    between atoms: C27_43  and  N28_45 
ROOT
ATOM      1  C31 MOL d          13.917 -12.315  21.105  0.00  0.00    -0.040 A 
ATOM      2  C32 MOL d          12.949 -12.790  21.872  0.00  0.00    -0.074 A 
ATOM      3  C33 MOL d          12.225 -11.914  22.571  0.00  0.00    -0.062 A 
ATOM      4  C44 MOL d          12.430 -10.577  22.587  0.00  0.00     0.044 A 
ATOM      5  C8  MOL d          13.430 -10.071  21.798  0.00  0.00    -0.062 A 
ATOM      6  C9  MOL d          14.130 -10.987  21.174  0.00  0.00    -0.074 A 
ATOM      7  C40 MOL d          11.685  -9.879  23.236  0.00  0.00     0.099 C 
ATOM      8  N63 MOL d          10.945  -9.213  23.712  0.00  0.00    -0.191 NA
ATOM      9  H10 MOL d          12.752 -13.854  21.929  0.00  0.00     0.084 H 
ATOM     10  H11 MOL d          11.411 -12.304  23.172  0.00  0.00     0.085 H 
ATOM     11  H12 MOL d          13.625  -9.010  21.700  0.00  0.00     0.085 H 
ATOM     12  H13 MOL d          15.000 -10.625  20.638  0.00  0.00     0.084 H 
ENDROOT
BRANCH   1  13
ATOM     13  C15 MOL d          14.722 -13.206  20.331  0.00  0.00     0.019 C 
ATOM     14  H8  MOL d          15.521 -12.614  19.860  0.00  0.00     0.071 H 
ATOM     15  H9  MOL d          14.083 -13.643  19.550  0.00  0.00     0.071 H 
BRANCH  13  16
ATOM     16  N14 MOL d          15.370 -14.335  21.074  0.00  0.00    -0.357 N 
ATOM     17  C46 MOL d          15.985 -15.414  20.616  0.00  0.00     0.220 C 
ATOM     18  O22 MOL d          16.036 -15.721  19.519  0.00  0.00    -0.274 OA
ATOM     19  H17 MOL d          15.332 -14.262  22.071  0.00  0.00     0.162 HD
BRANCH  17  20
ATOM     20  C12 MOL d          16.558 -16.455  21.641  0.00  0.00     0.037 C 
ATOM     21  H15 MOL d          17.014 -15.900  22.474  0.00  0.00     0.051 H 
ATOM     22  H16 MOL d          15.721 -17.061  22.018  0.00  0.00     0.051 H 
BRANCH  20  23
ATOM     23  C45 MOL d          17.667 -17.454  21.039  0.00  0.00     0.105 C 
ATOM     24  H14 MOL d          18.185 -16.963  20.202  0.00  0.00     0.089 H 
BRANCH  23  25
ATOM     25  C13 MOL d          18.663 -17.701  22.236  0.00  0.00     0.244 C 
ATOM     26  O14 MOL d          18.457 -17.073  23.218  0.00  0.00    -0.271 OA
ATOM     27  N15 MOL d          19.597 -18.545  22.041  0.00  0.00    -0.337 N 
ATOM     28  C16 MOL d          20.664 -18.604  22.943  0.00  0.00     0.091 C 
ATOM     29  C2  MOL d          19.892 -19.269  20.807  0.00  0.00    -0.001 C 
ATOM     30  C34 MOL d          21.714 -19.489  22.294  0.00  0.00    -0.036 C 
ATOM     31  H18 MOL d          20.366 -18.930  23.950  0.00  0.00     0.087 H 
ATOM     32  C1  MOL d          21.131 -20.030  21.030  0.00  0.00    -0.048 C 
ATOM     33  H19 MOL d          21.976 -20.316  22.970  0.00  0.00     0.036 H 
ATOM     34  H20 MOL d          22.615 -18.899  22.070  0.00  0.00     0.036 H 
ATOM     35  H21 MOL d          20.910 -21.101  21.137  0.00  0.00     0.035 H 
ATOM     36  H22 MOL d          21.829 -19.881  20.191  0.00  0.00     0.035 H 
ATOM     37  H23 MOL d          20.030 -18.560  19.979  0.00  0.00     0.064 H 
ATOM     38  H24 MOL d          19.067 -19.956  20.568  0.00  0.00     0.064 H 
BRANCH  28  39
ATOM     39  C17 MOL d          21.331 -17.176  22.904  0.00  0.00     0.240 C 
ATOM     40  O18 MOL d          22.281 -16.906  22.261  0.00  0.00    -0.271 OA
ATOM     41  N19 MOL d          20.796 -16.265  23.774  0.00  0.00    -0.355 N 
ATOM     42  H25 MOL d          20.048 -16.565  24.365  0.00  0.00     0.162 HD
BRANCH  41  43
ATOM     43  C20 MOL d          21.239 -14.915  23.891  0.00  0.00     0.019 C 
ATOM     44  H26 MOL d          22.310 -14.847  23.650  0.00  0.00     0.071 H 
ATOM     45  H27 MOL d          21.069 -14.550  24.914  0.00  0.00     0.071 H 
BRANCH  43  46
ATOM     46  C21 MOL d          20.445 -14.104  22.920  0.00  0.00    -0.040 A 
ATOM     47  C26 MOL d          19.141 -13.756  23.112  0.00  0.00    -0.074 A 
ATOM     48  C25 MOL d          18.434 -13.066  22.274  0.00  0.00    -0.069 A 
ATOM     49  H28 MOL d          18.663 -14.080  24.029  0.00  0.00     0.084 H 
ATOM     50  C24 MOL d          18.895 -12.638  21.116  0.00  0.00     0.007 A 
ATOM     51  H29 MOL d          17.411 -12.829  22.539  0.00  0.00     0.085 H 
ATOM     52  C23 MOL d          20.157 -12.994  20.847  0.00  0.00    -0.069 A 
ATOM     53  C22 MOL d          20.868 -13.694  21.742  0.00  0.00    -0.074 A 
ATOM     54  H34 MOL d          20.606 -12.714  19.901  0.00  0.00     0.085 H 
ATOM     55  H35 MOL d          21.886 -13.947  21.471  0.00  0.00     0.084 H 
BRANCH  50  56
ATOM     56  C27 MOL d          18.139 -11.870  20.177  0.00  0.00     0.102 C 
BRANCH  56  57
ATOM     57  N29 MOL d          17.527 -10.929  20.525  0.00  0.00    -0.385 N 
ATOM     58  H30 MOL d          17.705 -10.010  20.094  0.00  0.00     0.157 HD
ATOM     59  H31 MOL d          16.812 -11.022  21.260  0.00  0.00     0.157 HD
ENDBRANCH  56  57
BRANCH  56  60
ATOM     60  N28 MOL d          18.157 -12.159  18.934  0.00  0.00    -0.385 N 
ATOM     61  H32 MOL d          17.946 -13.119  18.625  0.00  0.00     0.157 HD
ATOM     62  H33 MOL d          18.382 -11.433  18.239  0.00  0.00     0.157 HD
ENDBRANCH  56  60
ENDBRANCH  50  56
ENDBRANCH  43  46
ENDBRANCH  41  43
ENDBRANCH  28  39
ENDBRANCH  23  25
BRANCH  23  63
ATOM     63  N11 MOL d          17.186 -18.634  20.607  0.00  0.00    -0.301 N 
ATOM     64  H7  MOL d          17.520 -19.028  19.751  0.00  0.00     0.173 HD
BRANCH  63  65
ATOM     65  S8  MOL d          16.097 -19.393  21.451  0.00  0.00     0.259 S 
ATOM     66  O1  MOL d          15.815 -18.494  22.197  0.00  0.00    -0.201 OA
ATOM     67  O10 MOL d          16.380 -20.455  21.734  0.00  0.00    -0.201 OA
BRANCH  65  68
ATOM     68  C35 MOL d          14.683 -19.470  20.461  0.00  0.00     0.081 A 
ATOM     69  C7  MOL d          14.527 -20.375  19.446  0.00  0.00    -0.058 A 
ATOM     70  C6  MOL d          13.354 -20.445  18.691  0.00  0.00    -0.048 A 
ATOM     71  H4  MOL d          15.339 -21.058  19.221  0.00  0.00     0.086 H 
ATOM     72  C5  MOL d          12.296 -19.633  19.023  0.00  0.00     0.089 A 
ATOM     73  H6  MOL d          13.278 -21.130  17.854  0.00  0.00     0.087 H 
ATOM     74  C4  MOL d          12.463 -18.806  20.071  0.00  0.00     0.068 A 
ATOM     75 CL   MOL d          11.072 -17.834  20.536  0.00  0.00    -0.081 Cl
ATOM     76  C3  MOL d          13.554 -18.684  20.771  0.00  0.00    -0.037 A 
ATOM     77  H5  MOL d          13.594 -17.978  21.593  0.00  0.00     0.088 H 
BRANCH  72  78
ATOM     78  O9  MOL d          11.173 -19.597  18.290  0.00  0.00    -0.354 OA
BRANCH  78  79
ATOM     79  C10 MOL d          10.162 -20.453  18.571  0.00  0.00     0.010 C 
ATOM     80  H1  MOL d          10.304 -21.386  18.006  0.00  0.00     0.066 H 
ATOM     81  H2  MOL d           9.203 -19.993  18.288  0.00  0.00     0.066 H 
ATOM     82  H3  MOL d          10.159 -20.675  19.649  0.00  0.00     0.066 H 
ENDBRANCH  78  79
ENDBRANCH  72  78
ENDBRANCH  65  68
ENDBRANCH  63  65
ENDBRANCH  23  63
ENDBRANCH  20  23
ENDBRANCH  17  20
ENDBRANCH  13  16
ENDBRANCH   1  13
TORSDOF 16
ENDMDL
