MODEL 1
REMARK VINA RESULT:      -6.0      0.000      0.000
REMARK  9 active torsions:
REMARK  status: ('A' for Active; 'I' for Inactive)
REMARK    1  A    between atoms: C1_1  and  C2_3 
REMARK    2  A    between atoms: C2_3  and  C3_4 
REMARK    3  A    between atoms: C3_4  and  C4_5 
REMARK    4  A    between atoms: C4_5  and  C5_6 
REMARK    5  A    between atoms: C5_6  and  C6_7 
REMARK    6  A    between atoms: C6_7  and  C7_8 
REMARK    7  A    between atoms: C7_8  and  C8_9 
REMARK    8  A    between atoms: C8_9  and  C9_10 
REMARK    9  A    between atoms: C9_10  and  C10_11 
ROOT
ATOM      1  C6  DKA d          13.885  -3.645  -0.497  0.00  0.00    -0.065 C 
ATOM      2  H9  DKA d          14.231  -2.853   0.183  0.00  0.00     0.033 H 
ATOM      3  H10 DKA d          13.202  -3.214  -1.243  0.00  0.00     0.033 H 
ENDROOT
BRANCH   1   4
ATOM      4  C5  DKA d          13.137  -4.699   0.309  0.00  0.00    -0.065 C 
ATOM      5  H7  DKA d          12.790  -5.500  -0.360  0.00  0.00     0.033 H 
ATOM      6  H8  DKA d          13.805  -5.124   1.074  0.00  0.00     0.033 H 
BRANCH   4   7
ATOM      7  C4  DKA d          11.942  -4.035   0.981  0.00  0.00    -0.065 C 
ATOM      8  H5  DKA d          11.159  -4.790   1.146  0.00  0.00     0.033 H 
ATOM      9  H6  DKA d          12.260  -3.619   1.948  0.00  0.00     0.033 H 
BRANCH   7  10
ATOM     10  C3  DKA d          11.377  -2.917   0.123  0.00  0.00    -0.056 C 
ATOM     11  H3  DKA d          11.451  -1.965   0.668  0.00  0.00     0.033 H 
ATOM     12  H4  DKA d          11.952  -2.849  -0.813  0.00  0.00     0.033 H 
BRANCH  10  13
ATOM     13  C2  DKA d           9.917  -3.204  -0.199  0.00  0.00     0.016 C 
ATOM     14  H1  DKA d           9.729  -2.974  -1.258  0.00  0.00     0.049 H 
ATOM     15  H2  DKA d           9.707  -4.268  -0.012  0.00  0.00     0.049 H 
BRANCH  13  16
ATOM     16  C1  DKA d           9.010  -2.362   0.660  0.00  0.00     0.172 C 
ATOM     17  O1  DKA d           9.152  -1.118   0.620  0.00  0.00    -0.648 OA
ATOM     18  O2  DKA d           8.167  -2.943   1.380  0.00  0.00    -0.648 OA
ENDBRANCH  13  16
ENDBRANCH  10  13
ENDBRANCH   7  10
ENDBRANCH   4   7
ENDBRANCH   1   4
BRANCH   1  19
ATOM     19  C7  DKA d          15.085  -4.243  -1.212  0.00  0.00    -0.065 C 
ATOM     20  H11 DKA d          15.883  -3.490  -1.277  0.00  0.00     0.033 H 
ATOM     21  H12 DKA d          14.790  -4.552  -2.225  0.00  0.00     0.033 H 
BRANCH  19  22
ATOM     22  C8  DKA d          15.591  -5.449  -0.445  0.00  0.00    -0.065 C 
ATOM     23  H13 DKA d          15.024  -6.335  -0.767  0.00  0.00     0.033 H 
ATOM     24  H14 DKA d          15.429  -5.279   0.629  0.00  0.00     0.033 H 
BRANCH  22  25
ATOM     25  C9  DKA d          17.062  -5.705  -0.678  0.00  0.00    -0.069 C 
ATOM     26  H15 DKA d          17.182  -6.653  -1.222  0.00  0.00     0.032 H 
ATOM     27  H16 DKA d          17.575  -5.772   0.293  0.00  0.00     0.032 H 
BRANCH  25  28
ATOM     28  C10 DKA d          17.679  -4.586  -1.488  0.00  0.00    -0.077 C 
ATOM     29  H17 DKA d          17.752  -4.894  -2.541  0.00  0.00     0.027 H 
ATOM     30  H18 DKA d          18.685  -4.364  -1.101  0.00  0.00     0.027 H 
ATOM     31  H19 DKA d          17.050  -3.687  -1.411  0.00  0.00     0.027 H 
ENDBRANCH  25  28
ENDBRANCH  22  25
ENDBRANCH  19  22
ENDBRANCH   1  19
TORSDOF 9
ENDMDL
MODEL 2
REMARK VINA RESULT:      -5.9      3.944      6.823
REMARK  9 active torsions:
REMARK  status: ('A' for Active; 'I' for Inactive)
REMARK    1  A    between atoms: C1_1  and  C2_3 
REMARK    2  A    between atoms: C2_3  and  C3_4 
REMARK    3  A    between atoms: C3_4  and  C4_5 
REMARK    4  A    between atoms: C4_5  and  C5_6 
REMARK    5  A    between atoms: C5_6  and  C6_7 
REMARK    6  A    between atoms: C6_7  and  C7_8 
REMARK    7  A    between atoms: C7_8  and  C8_9 
REMARK    8  A    between atoms: C8_9  and  C9_10 
REMARK    9  A    between atoms: C9_10  and  C10_11 
ROOT
ATOM      1  C6  DKA d          12.192  -2.321  -0.199  0.00  0.00    -0.065 C 
ATOM      2  H9  DKA d          11.815  -2.049  -1.195  0.00  0.00     0.033 H 
ATOM      3  H10 DKA d          12.346  -1.409   0.397  0.00  0.00     0.033 H 
ENDROOT
BRANCH   1   4
ATOM      4  C5  DKA d          13.524  -3.043  -0.353  0.00  0.00    -0.065 C 
ATOM      5  H7  DKA d          13.841  -3.015  -1.406  0.00  0.00     0.033 H 
ATOM      6  H8  DKA d          14.286  -2.554   0.272  0.00  0.00     0.033 H 
BRANCH   4   7
ATOM      7  C4  DKA d          13.344  -4.489   0.092  0.00  0.00    -0.065 C 
ATOM      8  H5  DKA d          13.214  -4.514   1.185  0.00  0.00     0.033 H 
ATOM      9  H6  DKA d          12.449  -4.905  -0.394  0.00  0.00     0.033 H 
BRANCH   7  10
ATOM     10  C3  DKA d          14.549  -5.335  -0.282  0.00  0.00    -0.056 C 
ATOM     11  H3  DKA d          15.155  -5.525   0.616  0.00  0.00     0.033 H 
ATOM     12  H4  DKA d          14.207  -6.292  -0.702  0.00  0.00     0.033 H 
BRANCH  10  13
ATOM     13  C2  DKA d          15.391  -4.600  -1.316  0.00  0.00     0.016 C 
ATOM     14  H1  DKA d          15.073  -4.904  -2.323  0.00  0.00     0.049 H 
ATOM     15  H2  DKA d          15.246  -3.516  -1.196  0.00  0.00     0.049 H 
BRANCH  13  16
ATOM     16  C1  DKA d          16.851  -4.927  -1.138  0.00  0.00     0.172 C 
ATOM     17  O1  DKA d          17.691  -4.205  -1.724  0.00  0.00    -0.648 OA
ATOM     18  O2  DKA d          17.157  -5.909  -0.424  0.00  0.00    -0.648 OA
ENDBRANCH  13  16
ENDBRANCH  10  13
ENDBRANCH   7  10
ENDBRANCH   4   7
ENDBRANCH   1   4
BRANCH   1  19
ATOM     19  C7  DKA d          11.165  -3.199   0.497  0.00  0.00    -0.065 C 
ATOM     20  H11 DKA d          11.055  -2.874   1.541  0.00  0.00     0.033 H 
ATOM     21  H12 DKA d          11.502  -4.245   0.472  0.00  0.00     0.033 H 
BRANCH  19  22
ATOM     22  C8  DKA d           9.829  -3.084  -0.210  0.00  0.00    -0.065 C 
ATOM     23  H13 DKA d           9.312  -4.052  -0.146  0.00  0.00     0.033 H 
ATOM     24  H14 DKA d          10.008  -2.832  -1.265  0.00  0.00     0.033 H 
BRANCH  22  25
ATOM     25  C9  DKA d           8.943  -2.021   0.399  0.00  0.00    -0.069 C 
ATOM     26  H15 DKA d           8.455  -1.453  -0.407  0.00  0.00     0.032 H 
ATOM     27  H16 DKA d           9.559  -1.341   1.006  0.00  0.00     0.032 H 
BRANCH  25  28
ATOM     28  C10 DKA d           7.882  -2.647   1.277  0.00  0.00    -0.077 C 
ATOM     29  H17 DKA d           8.143  -3.697   1.475  0.00  0.00     0.027 H 
ATOM     30  H18 DKA d           6.909  -2.602   0.765  0.00  0.00     0.027 H 
ATOM     31  H19 DKA d           7.822  -2.098   2.228  0.00  0.00     0.027 H 
ENDBRANCH  25  28
ENDBRANCH  22  25
ENDBRANCH  19  22
ENDBRANCH   1  19
TORSDOF 9
ENDMDL
MODEL 3
REMARK VINA RESULT:      -5.9      4.184      7.007
REMARK  9 active torsions:
REMARK  status: ('A' for Active; 'I' for Inactive)
REMARK    1  A    between atoms: C1_1  and  C2_3 
REMARK    2  A    between atoms: C2_3  and  C3_4 
REMARK    3  A    between atoms: C3_4  and  C4_5 
REMARK    4  A    between atoms: C4_5  and  C5_6 
REMARK    5  A    between atoms: C5_6  and  C6_7 
REMARK    6  A    between atoms: C6_7  and  C7_8 
REMARK    7  A    between atoms: C7_8  and  C8_9 
REMARK    8  A    between atoms: C8_9  and  C9_10 
REMARK    9  A    between atoms: C9_10  and  C10_11 
ROOT
ATOM      1  C6  DKA d          12.449  -2.934   0.153  0.00  0.00    -0.065 C 
ATOM      2  H9  DKA d          11.709  -2.712  -0.630  0.00  0.00     0.033 H 
ATOM      3  H10 DKA d          12.499  -2.091   0.859  0.00  0.00     0.033 H 
ENDROOT
BRANCH   1   4
ATOM      4  C5  DKA d          13.814  -3.122  -0.493  0.00  0.00    -0.065 C 
ATOM      5  H7  DKA d          13.765  -2.834  -1.554  0.00  0.00     0.033 H 
ATOM      6  H8  DKA d          14.559  -2.498   0.022  0.00  0.00     0.033 H 
BRANCH   4   7
ATOM      7  C4  DKA d          14.205  -4.590  -0.377  0.00  0.00    -0.065 C 
ATOM      8  H5  DKA d          14.654  -4.764   0.612  0.00  0.00     0.033 H 
ATOM      9  H6  DKA d          13.303  -5.211  -0.485  0.00  0.00     0.033 H 
BRANCH   7  10
ATOM     10  C3  DKA d          15.206  -4.981  -1.450  0.00  0.00    -0.056 C 
ATOM     11  H3  DKA d          14.787  -5.794  -2.062  0.00  0.00     0.033 H 
ATOM     12  H4  DKA d          15.415  -4.111  -2.090  0.00  0.00     0.033 H 
BRANCH  10  13
ATOM     13  C2  DKA d          16.499  -5.452  -0.799  0.00  0.00     0.016 C 
ATOM     14  H1  DKA d          16.544  -5.073   0.232  0.00  0.00     0.049 H 
ATOM     15  H2  DKA d          16.518  -6.552  -0.786  0.00  0.00     0.049 H 
BRANCH  13  16
ATOM     16  C1  DKA d          17.693  -4.946  -1.566  0.00  0.00     0.172 C 
ATOM     17  O1  DKA d          18.423  -5.786  -2.140  0.00  0.00    -0.648 OA
ATOM     18  O2  DKA d          17.907  -3.712  -1.584  0.00  0.00    -0.648 OA
ENDBRANCH  13  16
ENDBRANCH  10  13
ENDBRANCH   7  10
ENDBRANCH   4   7
ENDBRANCH   1   4
BRANCH   1  19
ATOM     19  C7  DKA d          12.015  -4.182   0.904  0.00  0.00    -0.065 C 
ATOM     20  H11 DKA d          12.594  -4.267   1.835  0.00  0.00     0.033 H 
ATOM     21  H12 DKA d          12.196  -5.067   0.277  0.00  0.00     0.033 H 
BRANCH  19  22
ATOM     22  C8  DKA d          10.539  -4.094   1.237  0.00  0.00    -0.065 C 
ATOM     23  H13 DKA d          10.432  -3.795   2.290  0.00  0.00     0.033 H 
ATOM     24  H14 DKA d          10.084  -5.085   1.088  0.00  0.00     0.033 H 
BRANCH  22  25
ATOM     25  C9  DKA d           9.810  -3.092   0.372  0.00  0.00    -0.069 C 
ATOM     26  H15 DKA d           9.574  -3.555  -0.596  0.00  0.00     0.032 H 
ATOM     27  H16 DKA d          10.456  -2.216   0.212  0.00  0.00     0.032 H 
BRANCH  25  28
ATOM     28  C10 DKA d           8.525  -2.647   1.036  0.00  0.00    -0.077 C 
ATOM     29  H17 DKA d           8.233  -3.382   1.799  0.00  0.00     0.027 H 
ATOM     30  H18 DKA d           7.730  -2.568   0.280  0.00  0.00     0.027 H 
ATOM     31  H19 DKA d           8.679  -1.666   1.511  0.00  0.00     0.027 H 
ENDBRANCH  25  28
ENDBRANCH  22  25
ENDBRANCH  19  22
ENDBRANCH   1  19
TORSDOF 9
ENDMDL
MODEL 4
REMARK VINA RESULT:      -5.3      1.260      2.128
REMARK  9 active torsions:
REMARK  status: ('A' for Active; 'I' for Inactive)
REMARK    1  A    between atoms: C1_1  and  C2_3 
REMARK    2  A    between atoms: C2_3  and  C3_4 
REMARK    3  A    between atoms: C3_4  and  C4_5 
REMARK    4  A    between atoms: C4_5  and  C5_6 
REMARK    5  A    between atoms: C5_6  and  C6_7 
REMARK    6  A    between atoms: C6_7  and  C7_8 
REMARK    7  A    between atoms: C7_8  and  C8_9 
REMARK    8  A    between atoms: C8_9  and  C9_10 
REMARK    9  A    between atoms: C9_10  and  C10_11 
ROOT
ATOM      1  C6  DKA d          12.408  -3.262   0.470  0.00  0.00    -0.065 C 
ATOM      2  H9  DKA d          11.867  -4.137   0.860  0.00  0.00     0.033 H 
ATOM      3  H10 DKA d          12.727  -2.625   1.307  0.00  0.00     0.033 H 
ENDROOT
BRANCH   1   4
ATOM      4  C5  DKA d          11.476  -2.465  -0.433  0.00  0.00    -0.065 C 
ATOM      5  H7  DKA d          11.449  -1.416  -0.104  0.00  0.00     0.033 H 
ATOM      6  H8  DKA d          11.834  -2.514  -1.472  0.00  0.00     0.033 H 
BRANCH   4   7
ATOM      7  C4  DKA d          10.080  -3.070  -0.341  0.00  0.00    -0.065 C 
ATOM      8  H5  DKA d           9.395  -2.489  -0.976  0.00  0.00     0.033 H 
ATOM      9  H6  DKA d          10.117  -4.110  -0.697  0.00  0.00     0.033 H 
BRANCH   7  10
ATOM     10  C3  DKA d           9.565  -3.053   1.087  0.00  0.00    -0.056 C 
ATOM     11  H3  DKA d           9.675  -4.054   1.528  0.00  0.00     0.033 H 
ATOM     12  H4  DKA d          10.145  -2.327   1.677  0.00  0.00     0.033 H 
BRANCH  10  13
ATOM     13  C2  DKA d           8.095  -2.654   1.098  0.00  0.00     0.016 C 
ATOM     14  H1  DKA d           7.594  -3.099   0.226  0.00  0.00     0.049 H 
ATOM     15  H2  DKA d           7.626  -3.025   2.021  0.00  0.00     0.049 H 
BRANCH  13  16
ATOM     16  C1  DKA d           7.953  -1.155   1.039  0.00  0.00     0.172 C 
ATOM     17  O1  DKA d           7.851  -0.531   2.121  0.00  0.00    -0.648 OA
ATOM     18  O2  DKA d           7.933  -0.604  -0.085  0.00  0.00    -0.648 OA
ENDBRANCH  13  16
ENDBRANCH  10  13
ENDBRANCH   7  10
ENDBRANCH   4   7
ENDBRANCH   1   4
BRANCH   1  19
ATOM     19  C7  DKA d          13.637  -3.738  -0.286  0.00  0.00    -0.065 C 
ATOM     20  H11 DKA d          14.501  -3.118  -0.005  0.00  0.00     0.033 H 
ATOM     21  H12 DKA d          13.458  -3.648  -1.368  0.00  0.00     0.033 H 
BRANCH  19  22
ATOM     22  C8  DKA d          13.924  -5.186   0.058  0.00  0.00    -0.065 C 
ATOM     23  H13 DKA d          13.203  -5.824  -0.473  0.00  0.00     0.033 H 
ATOM     24  H14 DKA d          13.804  -5.322   1.143  0.00  0.00     0.033 H 
BRANCH  22  25
ATOM     25  C9  DKA d          15.322  -5.606  -0.331  0.00  0.00    -0.069 C 
ATOM     26  H15 DKA d          15.267  -6.511  -0.953  0.00  0.00     0.032 H 
ATOM     27  H16 DKA d          15.901  -5.823   0.580  0.00  0.00     0.032 H 
BRANCH  25  28
ATOM     28  C10 DKA d          16.014  -4.509  -1.109  0.00  0.00    -0.077 C 
ATOM     29  H17 DKA d          16.629  -3.906  -0.425  0.00  0.00     0.027 H 
ATOM     30  H18 DKA d          15.260  -3.867  -1.587  0.00  0.00     0.027 H 
ATOM     31  H19 DKA d          16.657  -4.957  -1.882  0.00  0.00     0.027 H 
ENDBRANCH  25  28
ENDBRANCH  22  25
ENDBRANCH  19  22
ENDBRANCH   1  19
TORSDOF 9
ENDMDL
MODEL 5
REMARK VINA RESULT:      -3.4      3.752      6.013
REMARK  9 active torsions:
REMARK  status: ('A' for Active; 'I' for Inactive)
REMARK    1  A    between atoms: C1_1  and  C2_3 
REMARK    2  A    between atoms: C2_3  and  C3_4 
REMARK    3  A    between atoms: C3_4  and  C4_5 
REMARK    4  A    between atoms: C4_5  and  C5_6 
REMARK    5  A    between atoms: C5_6  and  C6_7 
REMARK    6  A    between atoms: C6_7  and  C7_8 
REMARK    7  A    between atoms: C7_8  and  C8_9 
REMARK    8  A    between atoms: C8_9  and  C9_10 
REMARK    9  A    between atoms: C9_10  and  C10_11 
ROOT
ATOM      1  C6  DKA d          11.185  -2.252  -0.674  0.00  0.00    -0.065 C 
ATOM      2  H9  DKA d          11.124  -3.030  -1.449  0.00  0.00     0.033 H 
ATOM      3  H10 DKA d          10.735  -1.322  -1.052  0.00  0.00     0.033 H 
ENDROOT
BRANCH   1   4
ATOM      4  C5  DKA d          12.649  -1.996  -0.342  0.00  0.00    -0.065 C 
ATOM      5  H7  DKA d          12.879  -0.929  -0.479  0.00  0.00     0.033 H 
ATOM      6  H8  DKA d          12.849  -2.283   0.701  0.00  0.00     0.033 H 
BRANCH   4   7
ATOM      7  C4  DKA d          13.510  -2.833  -1.280  0.00  0.00    -0.065 C 
ATOM      8  H5  DKA d          12.913  -3.113  -2.161  0.00  0.00     0.033 H 
ATOM      9  H6  DKA d          14.377  -2.236  -1.599  0.00  0.00     0.033 H 
BRANCH   7  10
ATOM     10  C3  DKA d          14.003  -4.096  -0.596  0.00  0.00    -0.056 C 
ATOM     11  H3  DKA d          13.588  -4.147   0.421  0.00  0.00     0.033 H 
ATOM     12  H4  DKA d          13.675  -4.975  -1.170  0.00  0.00     0.033 H 
BRANCH  10  13
ATOM     13  C2  DKA d          15.524  -4.079  -0.522  0.00  0.00     0.016 C 
ATOM     14  H1  DKA d          15.914  -3.373  -1.269  0.00  0.00     0.049 H 
ATOM     15  H2  DKA d          15.834  -3.757   0.484  0.00  0.00     0.049 H 
BRANCH  13  16
ATOM     16  C1  DKA d          16.083  -5.451  -0.797  0.00  0.00     0.172 C 
ATOM     17  O1  DKA d          16.784  -5.605  -1.824  0.00  0.00    -0.648 OA
ATOM     18  O2  DKA d          15.812  -6.374   0.004  0.00  0.00    -0.648 OA
ENDBRANCH  13  16
ENDBRANCH  10  13
ENDBRANCH   7  10
ENDBRANCH   4   7
ENDBRANCH   1   4
BRANCH   1  19
ATOM     19  C7  DKA d          10.413  -2.712   0.551  0.00  0.00    -0.065 C 
ATOM     20  H11 DKA d           9.476  -2.142   0.628  0.00  0.00     0.033 H 
ATOM     21  H12 DKA d          11.020  -2.542   1.452  0.00  0.00     0.033 H 
BRANCH  19  22
ATOM     22  C8  DKA d          10.093  -4.189   0.432  0.00  0.00    -0.065 C 
ATOM     23  H13 DKA d          10.290  -4.510  -0.602  0.00  0.00     0.033 H 
ATOM     24  H14 DKA d           9.029  -4.341   0.666  0.00  0.00     0.033 H 
BRANCH  22  25
ATOM     25  C9  DKA d          10.922  -5.037   1.369  0.00  0.00    -0.069 C 
ATOM     26  H15 DKA d          11.455  -5.802   0.787  0.00  0.00     0.032 H 
ATOM     27  H16 DKA d          10.257  -5.527   2.096  0.00  0.00     0.032 H 
BRANCH  25  28
ATOM     28  C10 DKA d          11.928  -4.187   2.112  0.00  0.00    -0.077 C 
ATOM     29  H17 DKA d          11.830  -4.362   3.193  0.00  0.00     0.027 H 
ATOM     30  H18 DKA d          11.742  -3.124   1.895  0.00  0.00     0.027 H 
ATOM     31  H19 DKA d          12.945  -4.455   1.787  0.00  0.00     0.027 H 
ENDBRANCH  25  28
ENDBRANCH  22  25
ENDBRANCH  19  22
ENDBRANCH   1  19
TORSDOF 9
ENDMDL
