MODEL 1
REMARK VINA RESULT:      -7.0      0.000      0.000
REMARK  7 active torsions:
REMARK  status: ('A' for Active; 'I' for Inactive)
REMARK    1  A    between atoms: S1_2  and  N1_4 
REMARK    2  A    between atoms: S1_2  and  C3_10 
REMARK    3  A    between atoms: N1_4  and  C2_5 
REMARK    4  A    between atoms: C2_5  and  C10_6 
REMARK    5  A    between atoms: C2_5  and  C1_7 
REMARK    6  A    between atoms: C6_13  and  O5_16 
REMARK    7  A    between atoms: O5_16  and  C7_17 
ROOT
ATOM      1  C3  TBL d          -2.132  -6.021  -6.387  0.00  0.00     0.079 A 
ATOM      2  C4  TBL d          -2.168  -6.143  -7.774  0.00  0.00    -0.058 A 
ATOM      3  C5  TBL d          -3.391  -6.320  -8.446  0.00  0.00    -0.049 A 
ATOM      4  C6  TBL d          -4.605  -6.295  -7.749  0.00  0.00     0.068 A 
ATOM      5  C8  TBL d          -4.609  -6.178  -6.370  0.00  0.00    -0.049 A 
ATOM      6  C9  TBL d          -3.367  -6.046  -5.692  0.00  0.00    -0.058 A 
ATOM      7  H6  TBL d          -1.244  -6.103  -8.341  0.00  0.00     0.086 H 
ATOM      8  H7  TBL d          -3.393  -6.478  -9.518  0.00  0.00     0.087 H 
ATOM      9  H8  TBL d          -5.542  -6.186  -5.818  0.00  0.00     0.087 H 
ATOM     10  H9  TBL d          -3.364  -5.964  -4.611  0.00  0.00     0.086 H 
ENDROOT
BRANCH   1  11
ATOM     11  S1  TBL d          -0.698  -5.782  -5.652  0.00  0.00     0.259 S 
ATOM     12  O4  TBL d          -0.277  -7.065  -5.187  0.00  0.00    -0.201 OA
ATOM     13  O3  TBL d           0.145  -5.204  -6.666  0.00  0.00    -0.201 OA
BRANCH  11  14
ATOM     14  N1  TBL d          -0.769  -4.843  -4.344  0.00  0.00    -0.301 N 
ATOM     15  H1  TBL d          -0.991  -5.238  -3.451  0.00  0.00     0.173 HD
BRANCH  14  16
ATOM     16  C2  TBL d          -0.505  -3.401  -4.473  0.00  0.00     0.100 C 
ATOM     17  H2  TBL d           0.052  -3.227  -5.405  0.00  0.00     0.089 H 
BRANCH  16  18
ATOM     18  C10 TBL d           0.338  -2.919  -3.291  0.00  0.00    -0.048 C 
ATOM     19  H3  TBL d           0.181  -3.586  -2.431  0.00  0.00     0.030 H 
ATOM     20  H4  TBL d           0.039  -1.895  -3.020  0.00  0.00     0.030 H 
ATOM     21  H5  TBL d           1.402  -2.928  -3.572  0.00  0.00     0.030 H 
ENDBRANCH  16  18
BRANCH  16  22
ATOM     22  C1  TBL d          -1.793  -2.621  -4.526  0.00  0.00     0.196 C 
ATOM     23  O2  TBL d          -1.878  -1.537  -5.068  0.00  0.00    -0.646 OA
ATOM     24  O1  TBL d          -2.884  -3.138  -3.963  0.00  0.00    -0.646 OA
ENDBRANCH  16  22
ENDBRANCH  14  16
ENDBRANCH  11  14
ENDBRANCH   1  11
BRANCH   4  25
ATOM     25  O5  TBL d          -5.775  -6.473  -8.469  0.00  0.00    -0.356 OA
BRANCH  25  26
ATOM     26  C7  TBL d          -5.845  -6.947  -9.805  0.00  0.00     0.010 C 
ATOM     27  H10 TBL d          -6.807  -6.651 -10.249  0.00  0.00     0.066 H 
ATOM     28  H11 TBL d          -5.760  -8.044  -9.811  0.00  0.00     0.066 H 
ATOM     29  H12 TBL d          -5.022  -6.512 -10.392  0.00  0.00     0.066 H 
ENDBRANCH  25  26
ENDBRANCH   4  25
TORSDOF 7
ENDMDL
MODEL 2
REMARK VINA RESULT:      -6.4      1.423      2.006
REMARK  7 active torsions:
REMARK  status: ('A' for Active; 'I' for Inactive)
REMARK    1  A    between atoms: S1_2  and  N1_4 
REMARK    2  A    between atoms: S1_2  and  C3_10 
REMARK    3  A    between atoms: N1_4  and  C2_5 
REMARK    4  A    between atoms: C2_5  and  C10_6 
REMARK    5  A    between atoms: C2_5  and  C1_7 
REMARK    6  A    between atoms: C6_13  and  O5_16 
REMARK    7  A    between atoms: O5_16  and  C7_17 
ROOT
ATOM      1  C3  TBL d          -2.302  -5.397  -6.567  0.00  0.00     0.079 A 
ATOM      2  C4  TBL d          -3.445  -5.769  -5.861  0.00  0.00    -0.058 A 
ATOM      3  C5  TBL d          -4.608  -6.170  -6.542  0.00  0.00    -0.049 A 
ATOM      4  C6  TBL d          -4.622  -6.286  -7.937  0.00  0.00     0.068 A 
ATOM      5  C8  TBL d          -3.507  -5.924  -8.672  0.00  0.00    -0.049 A 
ATOM      6  C9  TBL d          -2.349  -5.474  -7.982  0.00  0.00    -0.058 A 
ATOM      7  H6  TBL d          -3.437  -5.747  -4.777  0.00  0.00     0.086 H 
ATOM      8  H7  TBL d          -5.506  -6.394  -5.978  0.00  0.00     0.087 H 
ATOM      9  H8  TBL d          -3.517  -5.982  -9.755  0.00  0.00     0.087 H 
ATOM     10  H9  TBL d          -1.477  -5.180  -8.554  0.00  0.00     0.086 H 
ENDROOT
BRANCH   1  11
ATOM     11  S1  TBL d          -0.965  -4.973  -5.740  0.00  0.00     0.259 S 
ATOM     12  O4  TBL d          -1.115  -5.537  -4.435  0.00  0.00    -0.201 OA
ATOM     13  O3  TBL d           0.129  -5.513  -6.504  0.00  0.00    -0.201 OA
BRANCH  11  14
ATOM     14  N1  TBL d          -0.797  -3.386  -5.515  0.00  0.00    -0.301 N 
ATOM     15  H1  TBL d          -0.444  -2.808  -6.250  0.00  0.00     0.173 HD
BRANCH  14  16
ATOM     16  C2  TBL d          -1.167  -2.797  -4.218  0.00  0.00     0.100 C 
ATOM     17  H2  TBL d          -1.980  -3.393  -3.780  0.00  0.00     0.089 H 
BRANCH  16  18
ATOM     18  C10 TBL d          -1.655  -1.361  -4.420  0.00  0.00    -0.048 C 
ATOM     19  H3  TBL d          -2.418  -1.123  -3.664  0.00  0.00     0.030 H 
ATOM     20  H4  TBL d          -2.090  -1.259  -5.425  0.00  0.00     0.030 H 
ATOM     21  H5  TBL d          -0.808  -0.667  -4.315  0.00  0.00     0.030 H 
ENDBRANCH  16  18
BRANCH  16  22
ATOM     22  C1  TBL d           0.004  -2.804  -3.270  0.00  0.00     0.196 C 
ATOM     23  O2  TBL d           1.064  -2.274  -3.538  0.00  0.00    -0.646 OA
ATOM     24  O1  TBL d          -0.125  -3.409  -2.090  0.00  0.00    -0.646 OA
ENDBRANCH  16  22
ENDBRANCH  14  16
ENDBRANCH  11  14
ENDBRANCH   1  11
BRANCH   4  25
ATOM     25  O5  TBL d          -5.799  -6.688  -8.547  0.00  0.00    -0.356 OA
BRANCH  25  26
ATOM     26  C7  TBL d          -5.952  -6.939  -9.936  0.00  0.00     0.010 C 
ATOM     27  H10 TBL d          -5.001  -7.304 -10.350  0.00  0.00     0.066 H 
ATOM     28  H11 TBL d          -6.241  -6.008 -10.447  0.00  0.00     0.066 H 
ATOM     29  H12 TBL d          -6.734  -7.698 -10.088  0.00  0.00     0.066 H 
ENDBRANCH  25  26
ENDBRANCH   4  25
TORSDOF 7
ENDMDL
MODEL 3
REMARK VINA RESULT:      -5.7      2.041      6.099
REMARK  7 active torsions:
REMARK  status: ('A' for Active; 'I' for Inactive)
REMARK    1  A    between atoms: S1_2  and  N1_4 
REMARK    2  A    between atoms: S1_2  and  C3_10 
REMARK    3  A    between atoms: N1_4  and  C2_5 
REMARK    4  A    between atoms: C2_5  and  C10_6 
REMARK    5  A    between atoms: C2_5  and  C1_7 
REMARK    6  A    between atoms: C6_13  and  O5_16 
REMARK    7  A    between atoms: O5_16  and  C7_17 
ROOT
ATOM      1  C3  TBL d          -1.783  -4.824  -4.947  0.00  0.00     0.079 A 
ATOM      2  C4  TBL d          -0.418  -4.820  -4.668  0.00  0.00    -0.058 A 
ATOM      3  C5  TBL d           0.141  -3.831  -3.839  0.00  0.00    -0.049 A 
ATOM      4  C6  TBL d          -0.669  -2.877  -3.210  0.00  0.00     0.068 A 
ATOM      5  C8  TBL d          -2.028  -2.848  -3.464  0.00  0.00    -0.049 A 
ATOM      6  C9  TBL d          -2.581  -3.821  -4.340  0.00  0.00    -0.058 A 
ATOM      7  H6  TBL d           0.219  -5.587  -5.094  0.00  0.00     0.086 H 
ATOM      8  H7  TBL d           1.214  -3.806  -3.686  0.00  0.00     0.087 H 
ATOM      9  H8  TBL d          -2.659  -2.096  -3.004  0.00  0.00     0.087 H 
ATOM     10  H9  TBL d          -3.644  -3.796  -4.549  0.00  0.00     0.086 H 
ENDROOT
BRANCH   1  11
ATOM     11  S1  TBL d          -2.396  -6.008  -5.882  0.00  0.00     0.259 S 
ATOM     12  O4  TBL d          -1.334  -6.412  -6.748  0.00  0.00    -0.201 OA
ATOM     13  O3  TBL d          -2.833  -7.020  -4.956  0.00  0.00    -0.201 OA
BRANCH  11  14
ATOM     14  N1  TBL d          -3.596  -5.538  -6.849  0.00  0.00    -0.301 N 
ATOM     15  H1  TBL d          -4.069  -4.673  -6.682  0.00  0.00     0.173 HD
BRANCH  14  16
ATOM     16  C2  TBL d          -3.991  -6.394  -7.979  0.00  0.00     0.100 C 
ATOM     17  H2  TBL d          -3.535  -7.386  -7.846  0.00  0.00     0.089 H 
BRANCH  16  18
ATOM     18  C10 TBL d          -3.487  -5.787  -9.291  0.00  0.00    -0.048 C 
ATOM     19  H3  TBL d          -2.901  -4.882  -9.076  0.00  0.00     0.030 H 
ATOM     20  H4  TBL d          -4.346  -5.525  -9.927  0.00  0.00     0.030 H 
ATOM     21  H5  TBL d          -2.853  -6.518  -9.814  0.00  0.00     0.030 H 
ENDBRANCH  16  18
BRANCH  16  22
ATOM     22  C1  TBL d          -5.488  -6.553  -8.038  0.00  0.00     0.196 C 
ATOM     23  O2  TBL d          -6.177  -6.616  -7.039  0.00  0.00    -0.646 OA
ATOM     24  O1  TBL d          -6.083  -6.622  -9.228  0.00  0.00    -0.646 OA
ENDBRANCH  16  22
ENDBRANCH  14  16
ENDBRANCH  11  14
ENDBRANCH   1  11
BRANCH   4  25
ATOM     25  O5  TBL d          -0.056  -1.931  -2.404  0.00  0.00    -0.356 OA
BRANCH  25  26
ATOM     26  C7  TBL d           1.325  -1.604  -2.436  0.00  0.00     0.010 C 
ATOM     27  H10 TBL d           1.447  -0.558  -2.750  0.00  0.00     0.066 H 
ATOM     28  H11 TBL d           1.841  -2.264  -3.149  0.00  0.00     0.066 H 
ATOM     29  H12 TBL d           1.757  -1.739  -1.433  0.00  0.00     0.066 H 
ENDBRANCH  25  26
ENDBRANCH   4  25
TORSDOF 7
ENDMDL
MODEL 4
REMARK VINA RESULT:      -5.6      1.877      3.386
REMARK  7 active torsions:
REMARK  status: ('A' for Active; 'I' for Inactive)
REMARK    1  A    between atoms: S1_2  and  N1_4 
REMARK    2  A    between atoms: S1_2  and  C3_10 
REMARK    3  A    between atoms: N1_4  and  C2_5 
REMARK    4  A    between atoms: C2_5  and  C10_6 
REMARK    5  A    between atoms: C2_5  and  C1_7 
REMARK    6  A    between atoms: C6_13  and  O5_16 
REMARK    7  A    between atoms: O5_16  and  C7_17 
ROOT
ATOM      1  C3  TBL d          -2.786  -5.010  -5.872  0.00  0.00     0.079 A 
ATOM      2  C4  TBL d          -4.062  -5.550  -5.724  0.00  0.00    -0.058 A 
ATOM      3  C5  TBL d          -4.718  -6.148  -6.815  0.00  0.00    -0.049 A 
ATOM      4  C6  TBL d          -4.075  -6.290  -8.051  0.00  0.00     0.068 A 
ATOM      5  C8  TBL d          -2.809  -5.765  -8.237  0.00  0.00    -0.049 A 
ATOM      6  C9  TBL d          -2.169  -5.119  -7.144  0.00  0.00    -0.058 A 
ATOM      7  H6  TBL d          -4.554  -5.507  -4.759  0.00  0.00     0.086 H 
ATOM      8  H7  TBL d          -5.735  -6.505  -6.697  0.00  0.00     0.087 H 
ATOM      9  H8  TBL d          -2.314  -5.845  -9.198  0.00  0.00     0.087 H 
ATOM     10  H9  TBL d          -1.181  -4.698  -7.287  0.00  0.00     0.086 H 
ENDROOT
BRANCH   1  11
ATOM     11  S1  TBL d          -2.048  -4.359  -4.575  0.00  0.00     0.259 S 
ATOM     12  O4  TBL d          -0.730  -4.015  -5.006  0.00  0.00    -0.201 OA
ATOM     13  O3  TBL d          -2.871  -3.236  -4.207  0.00  0.00    -0.201 OA
BRANCH  11  14
ATOM     14  N1  TBL d          -1.855  -5.374  -3.339  0.00  0.00    -0.301 N 
ATOM     15  H1  TBL d          -1.896  -5.037  -2.398  0.00  0.00     0.173 HD
BRANCH  14  16
ATOM     16  C2  TBL d          -1.617  -6.801  -3.606  0.00  0.00     0.100 C 
ATOM     17  H2  TBL d          -2.245  -7.110  -4.454  0.00  0.00     0.089 H 
BRANCH  16  18
ATOM     18  C10 TBL d          -1.996  -7.631  -2.377  0.00  0.00    -0.048 C 
ATOM     19  H3  TBL d          -1.625  -7.133  -1.469  0.00  0.00     0.030 H 
ATOM     20  H4  TBL d          -1.546  -8.631  -2.457  0.00  0.00     0.030 H 
ATOM     21  H5  TBL d          -3.091  -7.725  -2.322  0.00  0.00     0.030 H 
ENDBRANCH  16  18
BRANCH  16  22
ATOM     22  C1  TBL d          -0.173  -7.049  -3.957  0.00  0.00     0.196 C 
ATOM     23  O2  TBL d           0.215  -7.132  -5.105  0.00  0.00    -0.646 OA
ATOM     24  O1  TBL d           0.717  -7.180  -2.973  0.00  0.00    -0.646 OA
ENDBRANCH  16  22
ENDBRANCH  14  16
ENDBRANCH  11  14
ENDBRANCH   1  11
BRANCH   4  25
ATOM     25  O5  TBL d          -4.775  -6.890  -9.085  0.00  0.00    -0.356 OA
BRANCH  25  26
ATOM     26  C7  TBL d          -6.157  -7.212  -9.054  0.00  0.00     0.010 C 
ATOM     27  H10 TBL d          -6.413  -7.641  -8.075  0.00  0.00     0.066 H 
ATOM     28  H11 TBL d          -6.381  -7.944  -9.845  0.00  0.00     0.066 H 
ATOM     29  H12 TBL d          -6.750  -6.300  -9.221  0.00  0.00     0.066 H 
ENDBRANCH  25  26
ENDBRANCH   4  25
TORSDOF 7
ENDMDL
MODEL 5
REMARK VINA RESULT:      -4.9      2.202      5.791
REMARK  7 active torsions:
REMARK  status: ('A' for Active; 'I' for Inactive)
REMARK    1  A    between atoms: S1_2  and  N1_4 
REMARK    2  A    between atoms: S1_2  and  C3_10 
REMARK    3  A    between atoms: N1_4  and  C2_5 
REMARK    4  A    between atoms: C2_5  and  C10_6 
REMARK    5  A    between atoms: C2_5  and  C1_7 
REMARK    6  A    between atoms: C6_13  and  O5_16 
REMARK    7  A    between atoms: O5_16  and  C7_17 
ROOT
ATOM      1  C3  TBL d          -0.912  -5.554  -3.781  0.00  0.00     0.079 A 
ATOM      2  C4  TBL d           0.100  -4.816  -4.391  0.00  0.00    -0.058 A 
ATOM      3  C5  TBL d           0.448  -3.542  -3.907  0.00  0.00    -0.049 A 
ATOM      4  C6  TBL d          -0.153  -3.021  -2.754  0.00  0.00     0.068 A 
ATOM      5  C8  TBL d          -1.163  -3.724  -2.123  0.00  0.00    -0.049 A 
ATOM      6  C9  TBL d          -1.544  -4.990  -2.644  0.00  0.00    -0.058 A 
ATOM      7  H6  TBL d           0.623  -5.227  -5.247  0.00  0.00     0.086 H 
ATOM      8  H7  TBL d           1.193  -2.956  -4.433  0.00  0.00     0.087 H 
ATOM      9  H8  TBL d          -1.655  -3.316  -1.247  0.00  0.00     0.087 H 
ATOM     10  H9  TBL d          -2.342  -5.540  -2.158  0.00  0.00     0.086 H 
ENDROOT
BRANCH   1  11
ATOM     11  S1  TBL d          -1.260  -7.039  -4.350  0.00  0.00     0.259 S 
ATOM     12  O4  TBL d          -0.015  -7.600  -4.771  0.00  0.00    -0.201 OA
ATOM     13  O3  TBL d          -1.882  -7.722  -3.245  0.00  0.00    -0.201 OA
BRANCH  11  14
ATOM     14  N1  TBL d          -2.208  -7.048  -5.653  0.00  0.00    -0.301 N 
ATOM     15  H1  TBL d          -2.378  -7.901  -6.148  0.00  0.00     0.173 HD
BRANCH  14  16
ATOM     16  C2  TBL d          -2.821  -5.790  -6.109  0.00  0.00     0.100 C 
ATOM     17  H2  TBL d          -2.539  -4.988  -5.412  0.00  0.00     0.089 H 
BRANCH  16  18
ATOM     18  C10 TBL d          -4.345  -5.928  -6.119  0.00  0.00    -0.048 C 
ATOM     19  H3  TBL d          -4.804  -4.929  -6.084  0.00  0.00     0.030 H 
ATOM     20  H4  TBL d          -4.667  -6.510  -5.242  0.00  0.00     0.030 H 
ATOM     21  H5  TBL d          -4.661  -6.444  -7.038  0.00  0.00     0.030 H 
ENDBRANCH  16  18
BRANCH  16  22
ATOM     22  C1  TBL d          -2.338  -5.425  -7.489  0.00  0.00     0.196 C 
ATOM     23  O2  TBL d          -3.095  -5.278  -8.428  0.00  0.00    -0.646 OA
ATOM     24  O1  TBL d          -1.032  -5.252  -7.690  0.00  0.00    -0.646 OA
ENDBRANCH  16  22
ENDBRANCH  14  16
ENDBRANCH  11  14
ENDBRANCH   1  11
BRANCH   4  25
ATOM     25  O5  TBL d           0.236  -1.761  -2.328  0.00  0.00    -0.356 OA
BRANCH  25  26
ATOM     26  C7  TBL d           1.576  -1.360  -2.087  0.00  0.00     0.010 C 
ATOM     27  H10 TBL d           1.778  -1.387  -1.007  0.00  0.00     0.066 H 
ATOM     28  H11 TBL d           1.726  -0.337  -2.463  0.00  0.00     0.066 H 
ATOM     29  H12 TBL d           2.263  -2.046  -2.605  0.00  0.00     0.066 H 
ENDBRANCH  25  26
ENDBRANCH   4  25
TORSDOF 7
ENDMDL
MODEL 6
REMARK VINA RESULT:      -4.9      1.584      2.863
REMARK  7 active torsions:
REMARK  status: ('A' for Active; 'I' for Inactive)
REMARK    1  A    between atoms: S1_2  and  N1_4 
REMARK    2  A    between atoms: S1_2  and  C3_10 
REMARK    3  A    between atoms: N1_4  and  C2_5 
REMARK    4  A    between atoms: C2_5  and  C10_6 
REMARK    5  A    between atoms: C2_5  and  C1_7 
REMARK    6  A    between atoms: C6_13  and  O5_16 
REMARK    7  A    between atoms: O5_16  and  C7_17 
ROOT
ATOM      1  C3  TBL d          -3.502  -5.355  -6.415  0.00  0.00     0.079 A 
ATOM      2  C4  TBL d          -4.681  -6.092  -6.492  0.00  0.00    -0.058 A 
ATOM      3  C5  TBL d          -5.145  -6.573  -7.730  0.00  0.00    -0.049 A 
ATOM      4  C6  TBL d          -4.394  -6.395  -8.899  0.00  0.00     0.068 A 
ATOM      5  C8  TBL d          -3.219  -5.666  -8.861  0.00  0.00    -0.049 A 
ATOM      6  C9  TBL d          -2.779  -5.142  -7.615  0.00  0.00    -0.058 A 
ATOM      7  H6  TBL d          -5.247  -6.297  -5.590  0.00  0.00     0.086 H 
ATOM      8  H7  TBL d          -6.097  -7.090  -7.780  0.00  0.00     0.087 H 
ATOM      9  H8  TBL d          -2.645  -5.497  -9.765  0.00  0.00     0.087 H 
ATOM     10  H9  TBL d          -1.864  -4.562  -7.583  0.00  0.00     0.086 H 
ENDROOT
BRANCH   1  11
ATOM     11  S1  TBL d          -2.981  -4.847  -4.958  0.00  0.00     0.259 S 
ATOM     12  O4  TBL d          -4.077  -4.140  -4.374  0.00  0.00    -0.201 OA
ATOM     13  O3  TBL d          -2.605  -6.050  -4.261  0.00  0.00    -0.201 OA
BRANCH  11  14
ATOM     14  N1  TBL d          -1.761  -3.796  -5.015  0.00  0.00    -0.301 N 
ATOM     15  H1  TBL d          -1.799  -3.013  -5.637  0.00  0.00     0.173 HD
BRANCH  14  16
ATOM     16  C2  TBL d          -0.592  -3.998  -4.146  0.00  0.00     0.100 C 
ATOM     17  H2  TBL d          -0.943  -4.215  -3.127  0.00  0.00     0.089 H 
BRANCH  16  18
ATOM     18  C10 TBL d           0.261  -2.728  -4.117  0.00  0.00    -0.048 C 
ATOM     19  H3  TBL d          -0.395  -1.845  -4.091  0.00  0.00     0.030 H 
ATOM     20  H4  TBL d           0.892  -2.689  -5.018  0.00  0.00     0.030 H 
ATOM     21  H5  TBL d           0.900  -2.735  -3.223  0.00  0.00     0.030 H 
ENDBRANCH  16  18
BRANCH  16  22
ATOM     22  C1  TBL d           0.243  -5.156  -4.627  0.00  0.00     0.196 C 
ATOM     23  O2  TBL d           0.630  -6.036  -3.883  0.00  0.00    -0.646 OA
ATOM     24  O1  TBL d           0.568  -5.225  -5.917  0.00  0.00    -0.646 OA
ENDBRANCH  16  22
ENDBRANCH  14  16
ENDBRANCH  11  14
ENDBRANCH   1  11
BRANCH   4  25
ATOM     25  O5  TBL d          -4.905  -6.894 -10.086  0.00  0.00    -0.356 OA
BRANCH  25  26
ATOM     26  C7  TBL d          -6.215  -7.416 -10.253  0.00  0.00     0.010 C 
ATOM     27  H10 TBL d          -6.339  -8.305  -9.617  0.00  0.00     0.066 H 
ATOM     28  H11 TBL d          -6.366  -7.695 -11.306  0.00  0.00     0.066 H 
ATOM     29  H12 TBL d          -6.954  -6.653  -9.965  0.00  0.00     0.066 H 
ENDBRANCH  25  26
ENDBRANCH   4  25
TORSDOF 7
ENDMDL
MODEL 7
REMARK VINA RESULT:      -4.8      2.220      5.709
REMARK  7 active torsions:
REMARK  status: ('A' for Active; 'I' for Inactive)
REMARK    1  A    between atoms: S1_2  and  N1_4 
REMARK    2  A    between atoms: S1_2  and  C3_10 
REMARK    3  A    between atoms: N1_4  and  C2_5 
REMARK    4  A    between atoms: C2_5  and  C10_6 
REMARK    5  A    between atoms: C2_5  and  C1_7 
REMARK    6  A    between atoms: C6_13  and  O5_16 
REMARK    7  A    between atoms: O5_16  and  C7_17 
ROOT
ATOM      1  C3  TBL d          -2.046  -5.277  -4.991  0.00  0.00     0.079 A 
ATOM      2  C4  TBL d          -2.556  -3.981  -4.985  0.00  0.00    -0.058 A 
ATOM      3  C5  TBL d          -1.764  -2.902  -4.550  0.00  0.00    -0.049 A 
ATOM      4  C6  TBL d          -0.424  -3.092  -4.191  0.00  0.00     0.068 A 
ATOM      5  C8  TBL d           0.116  -4.366  -4.181  0.00  0.00    -0.049 A 
ATOM      6  C9  TBL d          -0.703  -5.458  -4.577  0.00  0.00    -0.058 A 
ATOM      7  H6  TBL d          -3.571  -3.801  -5.320  0.00  0.00     0.086 H 
ATOM      8  H7  TBL d          -2.198  -1.911  -4.492  0.00  0.00     0.087 H 
ATOM      9  H8  TBL d           1.144  -4.527  -3.877  0.00  0.00     0.087 H 
ATOM     10  H9  TBL d          -0.287  -6.459  -4.562  0.00  0.00     0.086 H 
ENDROOT
BRANCH   1  11
ATOM     11  S1  TBL d          -2.984  -6.492  -5.536  0.00  0.00     0.259 S 
ATOM     12  O4  TBL d          -2.535  -7.668  -4.859  0.00  0.00    -0.201 OA
ATOM     13  O3  TBL d          -4.329  -6.092  -5.216  0.00  0.00    -0.201 OA
BRANCH  11  14
ATOM     14  N1  TBL d          -2.822  -6.803  -7.109  0.00  0.00    -0.301 N 
ATOM     15  H1  TBL d          -2.314  -7.609  -7.414  0.00  0.00     0.173 HD
BRANCH  14  16
ATOM     16  C2  TBL d          -3.429  -5.892  -8.092  0.00  0.00     0.100 C 
ATOM     17  H2  TBL d          -4.150  -5.244  -7.574  0.00  0.00     0.089 H 
BRANCH  16  18
ATOM     18  C10 TBL d          -4.166  -6.699  -9.164  0.00  0.00    -0.048 C 
ATOM     19  H3  TBL d          -3.442  -7.076  -9.902  0.00  0.00     0.030 H 
ATOM     20  H4  TBL d          -4.901  -6.054  -9.668  0.00  0.00     0.030 H 
ATOM     21  H5  TBL d          -4.684  -7.547  -8.693  0.00  0.00     0.030 H 
ENDBRANCH  16  18
BRANCH  16  22
ATOM     22  C1  TBL d          -2.381  -5.027  -8.742  0.00  0.00     0.196 C 
ATOM     23  O2  TBL d          -2.656  -4.170  -9.558  0.00  0.00    -0.646 OA
ATOM     24  O1  TBL d          -1.102  -5.202  -8.410  0.00  0.00    -0.646 OA
ENDBRANCH  16  22
ENDBRANCH  14  16
ENDBRANCH  11  14
ENDBRANCH   1  11
BRANCH   4  25
ATOM     25  O5  TBL d           0.302  -1.989  -3.772  0.00  0.00    -0.356 OA
BRANCH  25  26
ATOM     26  C7  TBL d           1.193  -1.971  -2.667  0.00  0.00     0.010 C 
ATOM     27  H10 TBL d           1.465  -0.932  -2.432  0.00  0.00     0.066 H 
ATOM     28  H11 TBL d           2.100  -2.539  -2.919  0.00  0.00     0.066 H 
ATOM     29  H12 TBL d           0.704  -2.428  -1.794  0.00  0.00     0.066 H 
ENDBRANCH  25  26
ENDBRANCH   4  25
TORSDOF 7
ENDMDL
