MODEL 1
REMARK VINA RESULT:      -5.1      0.000      0.000
REMARK  12 active torsions:
REMARK  status: ('A' for Active; 'I' for Inactive)
REMARK    1  A    between atoms: C1_1  and  O4'_21 
REMARK    2  A    between atoms: C2_2  and  O2_7 
REMARK    3  A    between atoms: C3_3  and  O3_8 
REMARK    4  A    between atoms: C4_4  and  O4_9 
REMARK    5  A    between atoms: C5_5  and  C6_6 
REMARK    6  A    between atoms: C6_6  and  O6_11 
REMARK    7  A    between atoms: C1'_12  and  O1'_18 
REMARK    8  A    between atoms: C2'_13  and  O2'_19 
REMARK    9  A    between atoms: C3'_14  and  O3'_20 
REMARK   10  A    between atoms: O4'_21  and  C4'_15 
REMARK   11  A    between atoms: C5'_16  and  C6'_17 
REMARK   12  A    between atoms: C6'_17  and  O6'_23 
ROOT
ATOM      1  O4' CBI d          -3.197  42.747  12.375  0.00  0.00    -0.348 OA
ENDROOT
BRANCH   1   2
ATOM      2  C1  CBI d          -4.446  43.429  12.398  0.00  0.00     0.159 C 
ATOM      3  O5  CBI d          -4.762  43.834  13.726  0.00  0.00    -0.348 OA
ATOM      4  C5  CBI d          -6.021  44.479  13.988  0.00  0.00     0.089 C 
ATOM      5  C4  CBI d          -7.188  43.511  13.617  0.00  0.00     0.090 C 
ATOM      6  H5  CBI d          -6.115  45.400  13.394  0.00  0.00     0.090 H 
ATOM      7  C3  CBI d          -7.022  42.987  12.158  0.00  0.00     0.092 C 
ATOM      8  H4  CBI d          -7.139  42.648  14.297  0.00  0.00     0.091 H 
ATOM      9  C2  CBI d          -5.578  42.408  11.946  0.00  0.00     0.110 C 
ATOM     10  H3  CBI d          -7.187  43.809  11.446  0.00  0.00     0.091 H 
ATOM     11  H2  CBI d          -5.483  41.503  12.563  0.00  0.00     0.094 H 
ATOM     12  H1  CBI d          -4.415  44.300  11.728  0.00  0.00     0.133 H 
BRANCH   4  13
ATOM     13  C6  CBI d          -5.993  44.824  15.493  0.00  0.00     0.043 C 
ATOM     14  H6  CBI d          -6.458  45.814  15.597  0.00  0.00     0.078 H 
ATOM     15  H7  CBI d          -4.933  44.885  15.781  0.00  0.00     0.078 H 
BRANCH  13  16
ATOM     16  O6  CBI d          -6.622  43.980  16.440  0.00  0.00    -0.398 OA
ATOM     17  H11 CBI d          -6.041  43.850  17.180  0.00  0.00     0.209 HD
ENDBRANCH  13  16
ENDBRANCH   4  13
BRANCH   5  18
ATOM     18  O4  CBI d          -8.462  44.131  13.785  0.00  0.00    -0.390 OA
ATOM     19  H10 CBI d          -8.432  45.015  13.435  0.00  0.00     0.210 HD
ENDBRANCH   5  18
BRANCH   7  20
ATOM     20  O3  CBI d          -8.012  41.974  11.958  0.00  0.00    -0.390 OA
ATOM     21  H9  CBI d          -8.507  41.854  12.760  0.00  0.00     0.210 HD
ENDBRANCH   7  20
BRANCH   9  22
ATOM     22  O2  CBI d          -5.390  42.042  10.586  0.00  0.00    -0.388 OA
ATOM     23  H8  CBI d          -5.301  41.099  10.523  0.00  0.00     0.210 HD
ENDBRANCH   9  22
ENDBRANCH   1   2
BRANCH   1  24
ATOM     24  C4' CBI d          -2.019  43.506  12.264  0.00  0.00     0.096 C 
ATOM     25  C5' CBI d          -1.388  43.518  10.807  0.00  0.00     0.089 C 
ATOM     26  O5' CBI d          -0.179  44.282  10.767  0.00  0.00    -0.349 OA
ATOM     27  H16 CBI d          -1.168  42.481  10.513  0.00  0.00     0.090 H 
ATOM     28  C1' CBI d           0.863  43.881  11.646  0.00  0.00     0.156 C 
ATOM     29  C2' CBI d           0.421  43.730  13.125  0.00  0.00     0.110 C 
ATOM     30  H12 CBI d           1.252  42.905  11.321  0.00  0.00     0.133 H 
ATOM     31  C3' CBI d          -0.929  42.958  13.275  0.00  0.00     0.092 C 
ATOM     32  H13 CBI d           0.259  44.740  13.528  0.00  0.00     0.094 H 
ATOM     33  H14 CBI d          -0.734  41.904  13.023  0.00  0.00     0.091 H 
ATOM     34  H15 CBI d          -2.264  44.544  12.536  0.00  0.00     0.091 H 
BRANCH  25  35
ATOM     35  C6' CBI d          -2.371  44.141   9.780  0.00  0.00     0.043 C 
ATOM     36  H17 CBI d          -1.794  44.658   9.000  0.00  0.00     0.078 H 
ATOM     37  H18 CBI d          -3.018  44.865  10.297  0.00  0.00     0.078 H 
BRANCH  35  38
ATOM     38  O6' CBI d          -3.181  43.147   9.173  0.00  0.00    -0.398 OA
ATOM     39  H22 CBI d          -3.403  42.485   9.817  0.00  0.00     0.209 HD
ENDBRANCH  35  38
ENDBRANCH  25  35
BRANCH  28  40
ATOM     40  O1' CBI d           1.861  44.864  11.460  0.00  0.00    -0.369 OA
ATOM     41  H19 CBI d           2.716  44.448  11.453  0.00  0.00     0.212 HD
ENDBRANCH  28  40
BRANCH  29  42
ATOM     42  O2' CBI d           1.467  43.134  13.870  0.00  0.00    -0.388 OA
ATOM     43  H20 CBI d           1.771  42.353  13.420  0.00  0.00     0.210 HD
ENDBRANCH  29  42
BRANCH  31  44
ATOM     44  O3' CBI d          -1.438  42.996  14.603  0.00  0.00    -0.390 OA
ATOM     45  H21 CBI d          -1.284  43.857  14.976  0.00  0.00     0.210 HD
ENDBRANCH  31  44
ENDBRANCH   1  24
TORSDOF 12
ENDMDL
MODEL 2
REMARK VINA RESULT:      -4.0      2.237      6.825
REMARK  12 active torsions:
REMARK  status: ('A' for Active; 'I' for Inactive)
REMARK    1  A    between atoms: C1_1  and  O4'_21 
REMARK    2  A    between atoms: C2_2  and  O2_7 
REMARK    3  A    between atoms: C3_3  and  O3_8 
REMARK    4  A    between atoms: C4_4  and  O4_9 
REMARK    5  A    between atoms: C5_5  and  C6_6 
REMARK    6  A    between atoms: C6_6  and  O6_11 
REMARK    7  A    between atoms: C1'_12  and  O1'_18 
REMARK    8  A    between atoms: C2'_13  and  O2'_19 
REMARK    9  A    between atoms: C3'_14  and  O3'_20 
REMARK   10  A    between atoms: O4'_21  and  C4'_15 
REMARK   11  A    between atoms: C5'_16  and  C6'_17 
REMARK   12  A    between atoms: C6'_17  and  O6'_23 
ROOT
ATOM      1  O4' CBI d          -2.109  41.249  11.691  0.00  0.00    -0.348 OA
ENDROOT
BRANCH   1   2
ATOM      2  C1  CBI d          -1.212  42.353  11.720  0.00  0.00     0.159 C 
ATOM      3  O5  CBI d          -0.062  42.076  10.928  0.00  0.00    -0.348 OA
ATOM      4  C5  CBI d           1.011  43.034  10.877  0.00  0.00     0.089 C 
ATOM      5  C4  CBI d           1.596  43.234  12.310  0.00  0.00     0.090 C 
ATOM      6  H5  CBI d           0.648  44.001  10.499  0.00  0.00     0.090 H 
ATOM      7  C3  CBI d           0.463  43.587  13.322  0.00  0.00     0.092 C 
ATOM      8  H4  CBI d           2.051  42.284  12.625  0.00  0.00     0.091 H 
ATOM      9  C2  CBI d          -0.708  42.545  13.215  0.00  0.00     0.110 C 
ATOM     10  H3  CBI d           0.070  44.591  13.104  0.00  0.00     0.091 H 
ATOM     11  H2  CBI d          -0.330  41.575  13.571  0.00  0.00     0.094 H 
ATOM     12  H1  CBI d          -1.716  43.262  11.359  0.00  0.00     0.133 H 
BRANCH   4  13
ATOM     13  C6  CBI d           2.040  42.436   9.894  0.00  0.00     0.043 C 
ATOM     14  H6  CBI d           2.587  41.658  10.446  0.00  0.00     0.078 H 
ATOM     15  H7  CBI d           2.730  43.250   9.628  0.00  0.00     0.078 H 
BRANCH  13  16
ATOM     16  O6  CBI d           1.620  41.848   8.677  0.00  0.00    -0.398 OA
ATOM     17  H11 CBI d           0.855  42.309   8.352  0.00  0.00     0.209 HD
ENDBRANCH  13  16
ENDBRANCH   4  13
BRANCH   5  18
ATOM     18  O4  CBI d           2.613  44.235  12.329  0.00  0.00    -0.390 OA
ATOM     19  H10 CBI d           2.969  44.341  11.454  0.00  0.00     0.210 HD
ENDBRANCH   5  18
BRANCH   7  20
ATOM     20  O3  CBI d           1.043  43.572  14.629  0.00  0.00    -0.390 OA
ATOM     21  H9  CBI d           0.872  44.401  15.059  0.00  0.00     0.210 HD
ENDBRANCH   7  20
BRANCH   9  22
ATOM     22  O2  CBI d          -1.789  42.935  14.049  0.00  0.00    -0.388 OA
ATOM     23  H8  CBI d          -2.503  43.255  13.510  0.00  0.00     0.210 HD
ENDBRANCH   9  22
ENDBRANCH   1   2
BRANCH   1  24
ATOM     24  C4' CBI d          -3.351  41.409  11.051  0.00  0.00     0.096 C 
ATOM     25  C5' CBI d          -3.248  41.911   9.548  0.00  0.00     0.089 C 
ATOM     26  O5' CBI d          -4.543  42.081   8.963  0.00  0.00    -0.349 OA
ATOM     27  H16 CBI d          -2.719  42.877   9.539  0.00  0.00     0.090 H 
ATOM     28  C1' CBI d          -5.432  42.975   9.620  0.00  0.00     0.156 C 
ATOM     29  C2' CBI d          -5.604  42.697  11.136  0.00  0.00     0.110 C 
ATOM     30  H12 CBI d          -5.049  44.001   9.519  0.00  0.00     0.133 H 
ATOM     31  C3' CBI d          -4.245  42.437  11.860  0.00  0.00     0.092 C 
ATOM     32  H13 CBI d          -6.203  41.780  11.239  0.00  0.00     0.094 H 
ATOM     33  H14 CBI d          -3.705  43.395  11.901  0.00  0.00     0.091 H 
ATOM     34  H15 CBI d          -3.852  40.430  11.047  0.00  0.00     0.091 H 
BRANCH  25  35
ATOM     35  C6' CBI d          -2.468  40.895   8.674  0.00  0.00     0.043 C 
ATOM     36  H17 CBI d          -2.838  40.952   7.640  0.00  0.00     0.078 H 
ATOM     37  H18 CBI d          -2.635  39.881   9.067  0.00  0.00     0.078 H 
BRANCH  35  38
ATOM     38  O6' CBI d          -1.076  41.169   8.681  0.00  0.00    -0.398 OA
ATOM     39  H22 CBI d          -0.648  40.612   9.322  0.00  0.00     0.209 HD
ENDBRANCH  35  38
ENDBRANCH  25  35
BRANCH  28  40
ATOM     40  O1' CBI d          -6.635  42.854   8.890  0.00  0.00    -0.369 OA
ATOM     41  H19 CBI d          -6.817  41.936   8.732  0.00  0.00     0.212 HD
ENDBRANCH  28  40
BRANCH  29  42
ATOM     42  O2' CBI d          -6.335  43.756  11.728  0.00  0.00    -0.388 OA
ATOM     43  H20 CBI d          -6.726  44.290  11.046  0.00  0.00     0.210 HD
ENDBRANCH  29  42
BRANCH  31  44
ATOM     44  O3' CBI d          -4.414  41.982  13.198  0.00  0.00    -0.390 OA
ATOM     45  H21 CBI d          -4.466  42.730  13.782  0.00  0.00     0.210 HD
ENDBRANCH  31  44
ENDBRANCH   1  24
TORSDOF 12
ENDMDL
MODEL 3
REMARK VINA RESULT:      -4.0      1.690      7.203
REMARK  12 active torsions:
REMARK  status: ('A' for Active; 'I' for Inactive)
REMARK    1  A    between atoms: C1_1  and  O4'_21 
REMARK    2  A    between atoms: C2_2  and  O2_7 
REMARK    3  A    between atoms: C3_3  and  O3_8 
REMARK    4  A    between atoms: C4_4  and  O4_9 
REMARK    5  A    between atoms: C5_5  and  C6_6 
REMARK    6  A    between atoms: C6_6  and  O6_11 
REMARK    7  A    between atoms: C1'_12  and  O1'_18 
REMARK    8  A    between atoms: C2'_13  and  O2'_19 
REMARK    9  A    between atoms: C3'_14  and  O3'_20 
REMARK   10  A    between atoms: O4'_21  and  C4'_15 
REMARK   11  A    between atoms: C5'_16  and  C6'_17 
REMARK   12  A    between atoms: C6'_17  and  O6'_23 
ROOT
ATOM      1  O4' CBI d          -2.859  42.255  12.295  0.00  0.00    -0.348 OA
ENDROOT
BRANCH   1   2
ATOM      2  C1  CBI d          -1.627  42.966  12.261  0.00  0.00     0.159 C 
ATOM      3  O5  CBI d          -0.854  42.560  11.137  0.00  0.00    -0.348 OA
ATOM      4  C5  CBI d           0.466  43.103  10.952  0.00  0.00     0.089 C 
ATOM      5  C4  CBI d           1.362  42.716  12.169  0.00  0.00     0.090 C 
ATOM      6  H5  CBI d           0.424  44.199  10.869  0.00  0.00     0.090 H 
ATOM      7  C3  CBI d           0.677  43.127  13.508  0.00  0.00     0.092 C 
ATOM      8  H4  CBI d           1.480  41.623  12.167  0.00  0.00     0.091 H 
ATOM      9  C2  CBI d          -0.794  42.580  13.559  0.00  0.00     0.110 C 
ATOM     10  H3  CBI d           0.655  44.223  13.593  0.00  0.00     0.091 H 
ATOM     11  H2  CBI d          -0.745  41.483  13.614  0.00  0.00     0.094 H 
ATOM     12  H1  CBI d          -1.815  44.049  12.225  0.00  0.00     0.133 H 
BRANCH   4  13
ATOM     13  C6  CBI d           0.971  42.494   9.625  0.00  0.00     0.043 C 
ATOM     14  H6  CBI d           0.411  42.990   8.819  0.00  0.00     0.078 H 
ATOM     15  H7  CBI d           0.710  41.427   9.650  0.00  0.00     0.078 H 
BRANCH  13  16
ATOM     16  O6  CBI d           2.340  42.568   9.272  0.00  0.00    -0.398 OA
ATOM     17  H11 CBI d           2.825  42.986   9.974  0.00  0.00     0.209 HD
ENDBRANCH  13  16
ENDBRANCH   4  13
BRANCH   5  18
ATOM     18  O4  CBI d           2.662  43.298  12.072  0.00  0.00    -0.390 OA
ATOM     19  H10 CBI d           2.663  44.143  12.507  0.00  0.00     0.210 HD
ENDBRANCH   5  18
BRANCH   7  20
ATOM     20  O3  CBI d           1.463  42.579  14.570  0.00  0.00    -0.390 OA
ATOM     21  H9  CBI d           0.897  42.107  15.169  0.00  0.00     0.210 HD
ENDBRANCH   7  20
BRANCH   9  22
ATOM     22  O2  CBI d          -1.455  43.056  14.722  0.00  0.00    -0.388 OA
ATOM     23  H8  CBI d          -1.348  43.998  14.782  0.00  0.00     0.210 HD
ENDBRANCH   9  22
ENDBRANCH   1   2
BRANCH   1  24
ATOM     24  C4' CBI d          -3.945  42.756  11.555  0.00  0.00     0.096 C 
ATOM     25  C5' CBI d          -5.251  43.024  12.418  0.00  0.00     0.089 C 
ATOM     26  O5' CBI d          -6.326  43.503  11.606  0.00  0.00    -0.349 OA
ATOM     27  H16 CBI d          -5.554  42.079  12.895  0.00  0.00     0.090 H 
ATOM     28  C1' CBI d          -6.730  42.677  10.522  0.00  0.00     0.156 C 
ATOM     29  C2' CBI d          -5.567  42.233   9.596  0.00  0.00     0.110 C 
ATOM     30  H12 CBI d          -7.195  41.763  10.921  0.00  0.00     0.133 H 
ATOM     31  C3' CBI d          -4.315  41.745  10.392  0.00  0.00     0.092 C 
ATOM     32  H13 CBI d          -5.255  43.111   9.012  0.00  0.00     0.094 H 
ATOM     33  H14 CBI d          -4.574  40.780  10.852  0.00  0.00     0.091 H 
ATOM     34  H15 CBI d          -3.633  43.711  11.109  0.00  0.00     0.091 H 
BRANCH  25  35
ATOM     35  C6' CBI d          -4.983  44.086  13.517  0.00  0.00     0.043 C 
ATOM     36  H17 CBI d          -4.952  45.082  13.053  0.00  0.00     0.078 H 
ATOM     37  H18 CBI d          -4.015  43.873  13.994  0.00  0.00     0.078 H 
BRANCH  35  38
ATOM     38  O6' CBI d          -5.998  44.070  14.508  0.00  0.00    -0.398 OA
ATOM     39  H22 CBI d          -6.056  44.927  14.914  0.00  0.00     0.209 HD
ENDBRANCH  35  38
ENDBRANCH  25  35
BRANCH  28  40
ATOM     40  O1' CBI d          -7.711  43.445   9.857  0.00  0.00    -0.369 OA
ATOM     41  H19 CBI d          -7.840  43.103   8.980  0.00  0.00     0.212 HD
ENDBRANCH  28  40
BRANCH  29  42
ATOM     42  O2' CBI d          -6.039  41.257   8.684  0.00  0.00    -0.388 OA
ATOM     43  H20 CBI d          -5.460  41.223   7.931  0.00  0.00     0.210 HD
ENDBRANCH  29  42
BRANCH  31  44
ATOM     44  O3' CBI d          -3.182  41.534   9.556  0.00  0.00    -0.390 OA
ATOM     45  H21 CBI d          -3.231  42.115   8.806  0.00  0.00     0.210 HD
ENDBRANCH  31  44
ENDBRANCH   1  24
TORSDOF 12
ENDMDL
MODEL 4
REMARK VINA RESULT:      -4.0      1.886      6.606
REMARK  12 active torsions:
REMARK  status: ('A' for Active; 'I' for Inactive)
REMARK    1  A    between atoms: C1_1  and  O4'_21 
REMARK    2  A    between atoms: C2_2  and  O2_7 
REMARK    3  A    between atoms: C3_3  and  O3_8 
REMARK    4  A    between atoms: C4_4  and  O4_9 
REMARK    5  A    between atoms: C5_5  and  C6_6 
REMARK    6  A    between atoms: C6_6  and  O6_11 
REMARK    7  A    between atoms: C1'_12  and  O1'_18 
REMARK    8  A    between atoms: C2'_13  and  O2'_19 
REMARK    9  A    between atoms: C3'_14  and  O3'_20 
REMARK   10  A    between atoms: O4'_21  and  C4'_15 
REMARK   11  A    between atoms: C5'_16  and  C6'_17 
REMARK   12  A    between atoms: C6'_17  and  O6'_23 
ROOT
ATOM      1  O4' CBI d          -2.574  43.294  10.689  0.00  0.00    -0.348 OA
ENDROOT
BRANCH   1   2
ATOM      2  C1  CBI d          -1.481  42.449  11.027  0.00  0.00     0.159 C 
ATOM      3  O5  CBI d          -0.767  42.985  12.136  0.00  0.00    -0.348 OA
ATOM      4  C5  CBI d           0.424  42.323  12.598  0.00  0.00     0.089 C 
ATOM      5  C4  CBI d           1.487  42.308  11.455  0.00  0.00     0.090 C 
ATOM      6  H5  CBI d           0.200  41.288  12.895  0.00  0.00     0.090 H 
ATOM      7  C3  CBI d           0.880  41.708  10.150  0.00  0.00     0.092 C 
ATOM      8  H4  CBI d           1.777  43.349  11.250  0.00  0.00     0.091 H 
ATOM      9  C2  CBI d          -0.473  42.423   9.798  0.00  0.00     0.110 C 
ATOM     10  H3  CBI d           0.692  40.633  10.288  0.00  0.00     0.091 H 
ATOM     11  H2  CBI d          -0.244  43.464   9.527  0.00  0.00     0.094 H 
ATOM     12  H1  CBI d          -1.842  41.436  11.257  0.00  0.00     0.133 H 
BRANCH   4  13
ATOM     13  C6  CBI d           0.887  43.136  13.827  0.00  0.00     0.043 C 
ATOM     14  H6  CBI d           0.040  43.154  14.529  0.00  0.00     0.078 H 
ATOM     15  H7  CBI d           1.089  44.156  13.471  0.00  0.00     0.078 H 
BRANCH  13  16
ATOM     16  O6  CBI d           2.021  42.735  14.573  0.00  0.00    -0.398 OA
ATOM     17  H11 CBI d           1.856  42.874  15.498  0.00  0.00     0.209 HD
ENDBRANCH  13  16
ENDBRANCH   4  13
BRANCH   5  18
ATOM     18  O4  CBI d           2.661  41.592  11.836  0.00  0.00    -0.390 OA
ATOM     19  H10 CBI d           2.513  40.660  11.726  0.00  0.00     0.210 HD
ENDBRANCH   5  18
BRANCH   7  20
ATOM     20  O3  CBI d           1.843  41.897   9.110  0.00  0.00    -0.390 OA
ATOM     21  H9  CBI d           1.394  42.079   8.293  0.00  0.00     0.210 HD
ENDBRANCH   7  20
BRANCH   9  22
ATOM     22  O2  CBI d          -1.084  41.796   8.680  0.00  0.00    -0.388 OA
ATOM     23  H8  CBI d          -0.516  41.879   7.923  0.00  0.00     0.210 HD
ENDBRANCH   9  22
ENDBRANCH   1   2
BRANCH   1  24
ATOM     24  C4' CBI d          -3.864  42.925  11.109  0.00  0.00     0.096 C 
ATOM     25  C5' CBI d          -4.992  43.145  10.013  0.00  0.00     0.089 C 
ATOM     26  O5' CBI d          -6.283  42.779  10.510  0.00  0.00    -0.349 OA
ATOM     27  H16 CBI d          -5.003  44.209   9.732  0.00  0.00     0.090 H 
ATOM     28  C1' CBI d          -6.733  43.447  11.681  0.00  0.00     0.156 C 
ATOM     29  C2' CBI d          -5.722  43.416  12.856  0.00  0.00     0.110 C 
ATOM     30  H12 CBI d          -6.922  44.504  11.442  0.00  0.00     0.133 H 
ATOM     31  C3' CBI d          -4.263  43.745  12.405  0.00  0.00     0.092 C 
ATOM     32  H13 CBI d          -5.710  42.392  13.257  0.00  0.00     0.094 H 
ATOM     33  H14 CBI d          -4.230  44.815  12.152  0.00  0.00     0.091 H 
ATOM     34  H15 CBI d          -3.840  41.855  11.360  0.00  0.00     0.091 H 
BRANCH  25  35
ATOM     35  C6' CBI d          -4.715  42.287   8.750  0.00  0.00     0.043 C 
ATOM     36  H17 CBI d          -4.186  42.902   8.008  0.00  0.00     0.078 H 
ATOM     37  H18 CBI d          -5.674  41.949   8.329  0.00  0.00     0.078 H 
BRANCH  35  38
ATOM     38  O6' CBI d          -3.922  41.153   9.060  0.00  0.00    -0.398 OA
ATOM     39  H22 CBI d          -3.680  41.180   9.979  0.00  0.00     0.209 HD
ENDBRANCH  35  38
ENDBRANCH  25  35
BRANCH  28  40
ATOM     40  O1' CBI d          -7.959  42.814  11.983  0.00  0.00    -0.369 OA
ATOM     41  H19 CBI d          -8.500  42.784  11.202  0.00  0.00     0.212 HD
ENDBRANCH  28  40
BRANCH  29  42
ATOM     42  O2' CBI d          -6.173  44.276  13.887  0.00  0.00    -0.388 OA
ATOM     43  H20 CBI d          -6.968  43.921  14.269  0.00  0.00     0.210 HD
ENDBRANCH  29  42
BRANCH  31  44
ATOM     44  O3' CBI d          -3.306  43.517  13.434  0.00  0.00    -0.390 OA
ATOM     45  H21 CBI d          -2.645  44.200  13.407  0.00  0.00     0.210 HD
ENDBRANCH  31  44
ENDBRANCH   1  24
TORSDOF 12
ENDMDL
MODEL 5
REMARK VINA RESULT:      -3.8      1.985      3.622
REMARK  12 active torsions:
REMARK  status: ('A' for Active; 'I' for Inactive)
REMARK    1  A    between atoms: C1_1  and  O4'_21 
REMARK    2  A    between atoms: C2_2  and  O2_7 
REMARK    3  A    between atoms: C3_3  and  O3_8 
REMARK    4  A    between atoms: C4_4  and  O4_9 
REMARK    5  A    between atoms: C5_5  and  C6_6 
REMARK    6  A    between atoms: C6_6  and  O6_11 
REMARK    7  A    between atoms: C1'_12  and  O1'_18 
REMARK    8  A    between atoms: C2'_13  and  O2'_19 
REMARK    9  A    between atoms: C3'_14  and  O3'_20 
REMARK   10  A    between atoms: O4'_21  and  C4'_15 
REMARK   11  A    between atoms: C5'_16  and  C6'_17 
REMARK   12  A    between atoms: C6'_17  and  O6'_23 
ROOT
ATOM      1  O4' CBI d          -1.492  43.878  10.799  0.00  0.00    -0.348 OA
ENDROOT
BRANCH   1   2
ATOM      2  C1  CBI d          -2.710  43.192  11.064  0.00  0.00     0.159 C 
ATOM      3  O5  CBI d          -3.630  43.390   9.996  0.00  0.00    -0.348 OA
ATOM      4  C5  CBI d          -4.956  42.841  10.094  0.00  0.00     0.089 C 
ATOM      5  C4  CBI d          -5.687  43.464  11.324  0.00  0.00     0.090 C 
ATOM      6  H5  CBI d          -4.914  41.749  10.216  0.00  0.00     0.090 H 
ATOM      7  C3  CBI d          -4.826  43.303  12.613  0.00  0.00     0.092 C 
ATOM      8  H4  CBI d          -5.816  44.539  11.130  0.00  0.00     0.091 H 
ATOM      9  C2  CBI d          -3.366  43.829  12.364  0.00  0.00     0.110 C 
ATOM     10  H3  CBI d          -4.781  42.243  12.900  0.00  0.00     0.091 H 
ATOM     11  H2  CBI d          -3.420  44.917  12.217  0.00  0.00     0.094 H 
ATOM     12  H1  CBI d          -2.516  42.119  11.209  0.00  0.00     0.133 H 
BRANCH   4  13
ATOM     13  C6  CBI d          -5.640  43.195   8.755  0.00  0.00     0.043 C 
ATOM     14  H6  CBI d          -6.186  42.297   8.434  0.00  0.00     0.078 H 
ATOM     15  H7  CBI d          -4.834  43.411   8.038  0.00  0.00     0.078 H 
BRANCH  13  16
ATOM     16  O6  CBI d          -6.553  44.275   8.674  0.00  0.00    -0.398 OA
ATOM     17  H11 CBI d          -7.407  43.988   8.973  0.00  0.00     0.209 HD
ENDBRANCH  13  16
ENDBRANCH   4  13
BRANCH   5  18
ATOM     18  O4  CBI d          -6.982  42.894  11.512  0.00  0.00    -0.390 OA
ATOM     19  H10 CBI d          -6.964  41.978  11.261  0.00  0.00     0.210 HD
ENDBRANCH   5  18
BRANCH   7  20
ATOM     20  O3  CBI d          -5.468  44.054  13.647  0.00  0.00    -0.390 OA
ATOM     21  H9  CBI d          -4.825  44.594  14.091  0.00  0.00     0.210 HD
ENDBRANCH   7  20
BRANCH   9  22
ATOM     22  O2  CBI d          -2.551  43.571  13.498  0.00  0.00    -0.388 OA
ATOM     23  H8  CBI d          -1.719  43.213  13.213  0.00  0.00     0.210 HD
ENDBRANCH   9  22
ENDBRANCH   1   2
BRANCH   1  24
ATOM     24  C4' CBI d          -0.284  43.287  11.211  0.00  0.00     0.096 C 
ATOM     25  C5' CBI d          -0.259  41.704  11.087  0.00  0.00     0.089 C 
ATOM     26  O5' CBI d           0.983  41.163  11.547  0.00  0.00    -0.349 OA
ATOM     27  H16 CBI d          -1.079  41.294  11.695  0.00  0.00     0.090 H 
ATOM     28  C1' CBI d           1.356  41.461  12.886  0.00  0.00     0.156 C 
ATOM     29  C2' CBI d           1.314  42.972  13.234  0.00  0.00     0.110 C 
ATOM     30  H12 CBI d           0.666  40.950  13.574  0.00  0.00     0.133 H 
ATOM     31  C3' CBI d           0.017  43.674  12.718  0.00  0.00     0.092 C 
ATOM     32  H13 CBI d           2.163  43.453  12.726  0.00  0.00     0.094 H 
ATOM     33  H14 CBI d          -0.820  43.311  13.334  0.00  0.00     0.091 H 
ATOM     34  H15 CBI d           0.518  43.690  10.575  0.00  0.00     0.091 H 
BRANCH  25  35
ATOM     35  C6' CBI d          -0.447  41.259   9.612  0.00  0.00     0.043 C 
ATOM     36  H17 CBI d          -1.507  41.362   9.339  0.00  0.00     0.078 H 
ATOM     37  H18 CBI d          -0.144  40.206   9.514  0.00  0.00     0.078 H 
BRANCH  35  38
ATOM     38  O6' CBI d           0.336  42.048   8.731  0.00  0.00    -0.398 OA
ATOM     39  H22 CBI d           0.889  42.631   9.238  0.00  0.00     0.209 HD
ENDBRANCH  35  38
ENDBRANCH  25  35
BRANCH  28  40
ATOM     40  O1' CBI d           2.644  40.895  13.014  0.00  0.00    -0.369 OA
ATOM     41  H19 CBI d           2.720  40.149  12.429  0.00  0.00     0.212 HD
ENDBRANCH  28  40
BRANCH  29  42
ATOM     42  O2' CBI d           1.497  43.139  14.628  0.00  0.00    -0.388 OA
ATOM     43  H20 CBI d           2.249  42.630  14.911  0.00  0.00     0.210 HD
ENDBRANCH  29  42
BRANCH  31  44
ATOM     44  O3' CBI d           0.069  45.090  12.853  0.00  0.00    -0.390 OA
ATOM     45  H21 CBI d           0.934  45.398  12.609  0.00  0.00     0.210 HD
ENDBRANCH  31  44
ENDBRANCH   1  24
TORSDOF 12
ENDMDL
MODEL 6
REMARK VINA RESULT:      -3.8      1.688      2.167
REMARK  12 active torsions:
REMARK  status: ('A' for Active; 'I' for Inactive)
REMARK    1  A    between atoms: C1_1  and  O4'_21 
REMARK    2  A    between atoms: C2_2  and  O2_7 
REMARK    3  A    between atoms: C3_3  and  O3_8 
REMARK    4  A    between atoms: C4_4  and  O4_9 
REMARK    5  A    between atoms: C5_5  and  C6_6 
REMARK    6  A    between atoms: C6_6  and  O6_11 
REMARK    7  A    between atoms: C1'_12  and  O1'_18 
REMARK    8  A    between atoms: C2'_13  and  O2'_19 
REMARK    9  A    between atoms: C3'_14  and  O3'_20 
REMARK   10  A    between atoms: O4'_21  and  C4'_15 
REMARK   11  A    between atoms: C5'_16  and  C6'_17 
REMARK   12  A    between atoms: C6'_17  and  O6'_23 
ROOT
ATOM      1  O4' CBI d          -2.545  41.729  11.684  0.00  0.00    -0.348 OA
ENDROOT
BRANCH   1   2
ATOM      2  C1  CBI d          -3.720  42.413  11.264  0.00  0.00     0.159 C 
ATOM      3  O5  CBI d          -4.481  42.826  12.394  0.00  0.00    -0.348 OA
ATOM      4  C5  CBI d          -5.750  43.475  12.194  0.00  0.00     0.089 C 
ATOM      5  C4  CBI d          -6.715  42.507  11.441  0.00  0.00     0.090 C 
ATOM      6  H5  CBI d          -5.626  44.392  11.601  0.00  0.00     0.090 H 
ATOM      7  C3  CBI d          -6.049  41.975  10.135  0.00  0.00     0.092 C 
ATOM      8  H4  CBI d          -6.912  41.647  12.099  0.00  0.00     0.091 H 
ATOM      9  C2  CBI d          -4.624  41.392  10.447  0.00  0.00     0.110 C 
ATOM     10  H3  CBI d          -5.951  42.794   9.408  0.00  0.00     0.091 H 
ATOM     11  H2  CBI d          -4.755  40.490  11.061  0.00  0.00     0.094 H 
ATOM     12  H1  CBI d          -3.453  43.281  10.643  0.00  0.00     0.133 H 
BRANCH   4  13
ATOM     13  C6  CBI d          -6.251  43.827  13.612  0.00  0.00     0.043 C 
ATOM     14  H6  CBI d          -5.523  44.534  14.036  0.00  0.00     0.078 H 
ATOM     15  H7  CBI d          -6.236  42.893  14.191  0.00  0.00     0.078 H 
BRANCH  13  16
ATOM     16  O6  CBI d          -7.531  44.402  13.803  0.00  0.00    -0.398 OA
ATOM     17  H11 CBI d          -8.195  43.808  13.473  0.00  0.00     0.209 HD
ENDBRANCH  13  16
ENDBRANCH   4  13
BRANCH   5  18
ATOM     18  O4  CBI d          -7.965  43.130  11.148  0.00  0.00    -0.390 OA
ATOM     19  H10 CBI d          -7.875  44.072  11.232  0.00  0.00     0.210 HD
ENDBRANCH   5  18
BRANCH   7  20
ATOM     20  O3  CBI d          -6.909  40.963   9.604  0.00  0.00    -0.390 OA
ATOM     21  H9  CBI d          -6.540  40.107   9.787  0.00  0.00     0.210 HD
ENDBRANCH   7  20
BRANCH   9  22
ATOM     22  O2  CBI d          -3.972  41.020   9.242  0.00  0.00    -0.388 OA
ATOM     23  H8  CBI d          -4.575  40.533   8.694  0.00  0.00     0.210 HD
ENDBRANCH   9  22
ENDBRANCH   1   2
BRANCH   1  24
ATOM     24  C4' CBI d          -1.333  42.442  11.730  0.00  0.00     0.096 C 
ATOM     25  C5' CBI d          -0.124  41.713  11.003  0.00  0.00     0.089 C 
ATOM     26  O5' CBI d           1.084  42.472  11.110  0.00  0.00    -0.349 OA
ATOM     27  H16 CBI d           0.026  40.730  11.474  0.00  0.00     0.090 H 
ATOM     28  C1' CBI d           1.537  42.777  12.423  0.00  0.00     0.156 C 
ATOM     29  C2' CBI d           0.459  43.428  13.329  0.00  0.00     0.110 C 
ATOM     30  H12 CBI d           1.859  41.849  12.917  0.00  0.00     0.133 H 
ATOM     31  C3' CBI d          -0.922  42.706  13.237  0.00  0.00     0.092 C 
ATOM     32  H13 CBI d           0.307  44.459  12.974  0.00  0.00     0.094 H 
ATOM     33  H14 CBI d          -0.817  41.730  13.735  0.00  0.00     0.091 H 
ATOM     34  H15 CBI d          -1.495  43.409  11.232  0.00  0.00     0.091 H 
BRANCH  25  35
ATOM     35  C6' CBI d          -0.421  41.514   9.493  0.00  0.00     0.043 C 
ATOM     36  H17 CBI d          -1.301  42.113   9.219  0.00  0.00     0.078 H 
ATOM     37  H18 CBI d          -0.629  40.450   9.306  0.00  0.00     0.078 H 
BRANCH  35  38
ATOM     38  O6' CBI d           0.679  41.918   8.693  0.00  0.00    -0.398 OA
ATOM     39  H22 CBI d           1.224  42.519   9.187  0.00  0.00     0.209 HD
ENDBRANCH  35  38
ENDBRANCH  25  35
BRANCH  28  40
ATOM     40  O1' CBI d           2.662  43.605  12.210  0.00  0.00    -0.369 OA
ATOM     41  H19 CBI d           2.590  44.381  12.753  0.00  0.00     0.212 HD
ENDBRANCH  28  40
BRANCH  29  42
ATOM     42  O2' CBI d           0.943  43.499  14.658  0.00  0.00    -0.388 OA
ATOM     43  H20 CBI d           0.260  43.839  15.225  0.00  0.00     0.210 HD
ENDBRANCH  29  42
BRANCH  31  44
ATOM     44  O3' CBI d          -1.959  43.419  13.903  0.00  0.00    -0.390 OA
ATOM     45  H21 CBI d          -1.991  44.310  13.574  0.00  0.00     0.210 HD
ENDBRANCH  31  44
ENDBRANCH   1  24
TORSDOF 12
ENDMDL
MODEL 7
REMARK VINA RESULT:      -3.5      1.550      6.517
REMARK  12 active torsions:
REMARK  status: ('A' for Active; 'I' for Inactive)
REMARK    1  A    between atoms: C1_1  and  O4'_21 
REMARK    2  A    between atoms: C2_2  and  O2_7 
REMARK    3  A    between atoms: C3_3  and  O3_8 
REMARK    4  A    between atoms: C4_4  and  O4_9 
REMARK    5  A    between atoms: C5_5  and  C6_6 
REMARK    6  A    between atoms: C6_6  and  O6_11 
REMARK    7  A    between atoms: C1'_12  and  O1'_18 
REMARK    8  A    between atoms: C2'_13  and  O2'_19 
REMARK    9  A    between atoms: C3'_14  and  O3'_20 
REMARK   10  A    between atoms: O4'_21  and  C4'_15 
REMARK   11  A    between atoms: C5'_16  and  C6'_17 
REMARK   12  A    between atoms: C6'_17  and  O6'_23 
ROOT
ATOM      1  O4' CBI d          -5.803  43.473  12.032  0.00  0.00    -0.348 OA
ENDROOT
BRANCH   1   2
ATOM      2  C1  CBI d          -4.631  42.780  11.621  0.00  0.00     0.159 C 
ATOM      3  O5  CBI d          -3.584  42.976  12.565  0.00  0.00    -0.348 OA
ATOM      4  C5  CBI d          -2.283  42.420  12.306  0.00  0.00     0.089 C 
ATOM      5  C4  CBI d          -1.707  43.036  10.993  0.00  0.00     0.090 C 
ATOM      6  H5  CBI d          -2.345  41.328  12.193  0.00  0.00     0.090 H 
ATOM      7  C3  CBI d          -2.723  42.877   9.820  0.00  0.00     0.092 C 
ATOM      8  H4  CBI d          -1.550  44.111  11.165  0.00  0.00     0.091 H 
ATOM      9  C2  CBI d          -4.137  43.410  10.247  0.00  0.00     0.110 C 
ATOM     10  H3  CBI d          -2.808  41.816   9.544  0.00  0.00     0.091 H 
ATOM     11  H2  CBI d          -4.061  44.499  10.383  0.00  0.00     0.094 H 
ATOM     12  H1  CBI d          -4.846  41.708  11.503  0.00  0.00     0.133 H 
BRANCH   4  13
ATOM     13  C6  CBI d          -1.437  42.774  13.548  0.00  0.00     0.043 C 
ATOM     14  H6  CBI d          -1.104  41.821  13.984  0.00  0.00     0.078 H 
ATOM     15  H7  CBI d          -2.111  43.284  14.252  0.00  0.00     0.078 H 
BRANCH  13  16
ATOM     16  O6  CBI d          -0.285  43.588  13.429  0.00  0.00    -0.398 OA
ATOM     17  H11 CBI d          -0.115  44.017  14.260  0.00  0.00     0.209 HD
ENDBRANCH  13  16
ENDBRANCH   4  13
BRANCH   5  18
ATOM     18  O4  CBI d          -0.448  42.459  10.647  0.00  0.00    -0.390 OA
ATOM     19  H10 CBI d          -0.573  41.825   9.950  0.00  0.00     0.210 HD
ENDBRANCH   5  18
BRANCH   7  20
ATOM     20  O3  CBI d          -2.210  43.622   8.712  0.00  0.00    -0.390 OA
ATOM     21  H9  CBI d          -2.108  44.532   8.964  0.00  0.00     0.210 HD
ENDBRANCH   7  20
BRANCH   9  22
ATOM     22  O2  CBI d          -5.088  43.154   9.224  0.00  0.00    -0.388 OA
ATOM     23  H8  CBI d          -4.726  42.530   8.606  0.00  0.00     0.210 HD
ENDBRANCH   9  22
ENDBRANCH   1   2
BRANCH   1  24
ATOM     24  C4' CBI d          -6.404  43.113  13.252  0.00  0.00     0.096 C 
ATOM     25  C5' CBI d          -7.927  42.682  13.123  0.00  0.00     0.089 C 
ATOM     26  O5' CBI d          -8.488  42.356  14.398  0.00  0.00    -0.349 OA
ATOM     27  H16 CBI d          -8.491  43.520  12.685  0.00  0.00     0.090 H 
ATOM     28  C1' CBI d          -8.446  43.368  15.396  0.00  0.00     0.156 C 
ATOM     29  C2' CBI d          -7.039  43.983  15.615  0.00  0.00     0.110 C 
ATOM     30  H12 CBI d          -9.118  44.189  15.104  0.00  0.00     0.133 H 
ATOM     31  C3' CBI d          -6.313  44.321  14.274  0.00  0.00     0.092 C 
ATOM     32  H13 CBI d          -6.425  43.230  16.131  0.00  0.00     0.094 H 
ATOM     33  H14 CBI d          -6.832  45.182  13.827  0.00  0.00     0.091 H 
ATOM     34  H15 CBI d          -5.844  42.260  13.660  0.00  0.00     0.091 H 
BRANCH  25  35
ATOM     35  C6' CBI d          -8.078  41.435  12.212  0.00  0.00     0.043 C 
ATOM     36  H17 CBI d          -9.032  40.938  12.438  0.00  0.00     0.078 H 
ATOM     37  H18 CBI d          -7.247  40.742  12.413  0.00  0.00     0.078 H 
BRANCH  35  38
ATOM     38  O6' CBI d          -8.058  41.794  10.839  0.00  0.00    -0.398 OA
ATOM     39  H22 CBI d          -7.926  42.731  10.760  0.00  0.00     0.209 HD
ENDBRANCH  35  38
ENDBRANCH  25  35
BRANCH  28  40
ATOM     40  O1' CBI d          -8.962  42.732  16.546  0.00  0.00    -0.369 OA
ATOM     41  H19 CBI d          -8.638  41.840  16.586  0.00  0.00     0.212 HD
ENDBRANCH  28  40
BRANCH  29  42
ATOM     42  O2' CBI d          -7.146  45.108  16.467  0.00  0.00    -0.388 OA
ATOM     43  H20 CBI d          -7.126  45.903  15.945  0.00  0.00     0.210 HD
ENDBRANCH  29  42
BRANCH  31  44
ATOM     44  O3' CBI d          -4.951  44.690  14.465  0.00  0.00    -0.390 OA
ATOM     45  H21 CBI d          -4.778  44.787  15.395  0.00  0.00     0.210 HD
ENDBRANCH  31  44
ENDBRANCH   1  24
TORSDOF 12
ENDMDL
MODEL 8
REMARK VINA RESULT:      -3.3      1.728      1.755
REMARK  12 active torsions:
REMARK  status: ('A' for Active; 'I' for Inactive)
REMARK    1  A    between atoms: C1_1  and  O4'_21 
REMARK    2  A    between atoms: C2_2  and  O2_7 
REMARK    3  A    between atoms: C3_3  and  O3_8 
REMARK    4  A    between atoms: C4_4  and  O4_9 
REMARK    5  A    between atoms: C5_5  and  C6_6 
REMARK    6  A    between atoms: C6_6  and  O6_11 
REMARK    7  A    between atoms: C1'_12  and  O1'_18 
REMARK    8  A    between atoms: C2'_13  and  O2'_19 
REMARK    9  A    between atoms: C3'_14  and  O3'_20 
REMARK   10  A    between atoms: O4'_21  and  C4'_15 
REMARK   11  A    between atoms: C5'_16  and  C6'_17 
REMARK   12  A    between atoms: C6'_17  and  O6'_23 
ROOT
ATOM      1  O4' CBI d          -4.032  41.671  12.242  0.00  0.00    -0.348 OA
ENDROOT
BRANCH   1   2
ATOM      2  C1  CBI d          -5.023  42.692  12.257  0.00  0.00     0.159 C 
ATOM      3  O5  CBI d          -5.054  43.330  13.529  0.00  0.00    -0.348 OA
ATOM      4  C5  CBI d          -6.038  44.348  13.786  0.00  0.00     0.089 C 
ATOM      5  C4  CBI d          -7.467  43.734  13.652  0.00  0.00     0.090 C 
ATOM      6  H5  CBI d          -5.933  45.176  13.070  0.00  0.00     0.090 H 
ATOM      7  C3  CBI d          -7.628  43.013  12.279  0.00  0.00     0.092 C 
ATOM      8  H4  CBI d          -7.588  42.985  14.448  0.00  0.00     0.091 H 
ATOM      9  C2  CBI d          -6.443  42.009  12.048  0.00  0.00     0.110 C 
ATOM     10  H3  CBI d          -7.632  43.756  11.468  0.00  0.00     0.091 H 
ATOM     11  H2  CBI d          -6.539  41.197  12.784  0.00  0.00     0.094 H 
ATOM     12  H1  CBI d          -4.822  43.427  11.464  0.00  0.00     0.133 H 
BRANCH   4  13
ATOM     13  C6  CBI d          -5.739  44.847  15.217  0.00  0.00     0.043 C 
ATOM     14  H6  CBI d          -5.140  45.763  15.111  0.00  0.00     0.078 H 
ATOM     15  H7  CBI d          -5.134  44.067  15.701  0.00  0.00     0.078 H 
BRANCH  13  16
ATOM     16  O6  CBI d          -6.793  45.154  16.110  0.00  0.00    -0.398 OA
ATOM     17  H11 CBI d          -6.830  44.494  16.793  0.00  0.00     0.209 HD
ENDBRANCH  13  16
ENDBRANCH   4  13
BRANCH   5  18
ATOM     18  O4  CBI d          -8.483  44.722  13.821  0.00  0.00    -0.390 OA
ATOM     19  H10 CBI d          -8.746  45.054  12.970  0.00  0.00     0.210 HD
ENDBRANCH   5  18
BRANCH   7  20
ATOM     20  O3  CBI d          -8.882  42.326  12.307  0.00  0.00    -0.390 OA
ATOM     21  H9  CBI d          -9.497  42.815  12.840  0.00  0.00     0.210 HD
ENDBRANCH   7  20
BRANCH   9  22
ATOM     22  O2  CBI d          -6.525  41.443  10.748  0.00  0.00    -0.388 OA
ATOM     23  H8  CBI d          -7.298  41.776  10.307  0.00  0.00     0.210 HD
ENDBRANCH   9  22
ENDBRANCH   1   2
BRANCH   1  24
ATOM     24  C4' CBI d          -2.737  41.997  11.798  0.00  0.00     0.096 C 
ATOM     25  C5' CBI d          -2.423  41.531  10.313  0.00  0.00     0.089 C 
ATOM     26  O5' CBI d          -1.085  41.866   9.932  0.00  0.00    -0.349 OA
ATOM     27  H16 CBI d          -2.552  40.440  10.255  0.00  0.00     0.090 H 
ATOM     28  C1' CBI d          -0.038  41.345  10.740  0.00  0.00     0.156 C 
ATOM     29  C2' CBI d          -0.208  41.627  12.256  0.00  0.00     0.110 C 
ATOM     30  H12 CBI d           0.003  40.252  10.615  0.00  0.00     0.133 H 
ATOM     31  C3' CBI d          -1.659  41.349  12.762  0.00  0.00     0.092 C 
ATOM     32  H13 CBI d          -0.011  42.697  12.418  0.00  0.00     0.094 H 
ATOM     33  H14 CBI d          -1.808  40.259  12.752  0.00  0.00     0.091 H 
ATOM     34  H15 CBI d          -2.637  43.091  11.839  0.00  0.00     0.091 H 
BRANCH  25  35
ATOM     35  C6' CBI d          -3.383  42.212   9.301  0.00  0.00     0.043 C 
ATOM     36  H17 CBI d          -2.829  42.443   8.380  0.00  0.00     0.078 H 
ATOM     37  H18 CBI d          -3.765  43.145   9.742  0.00  0.00     0.078 H 
BRANCH  35  38
ATOM     38  O6' CBI d          -4.478  41.369   8.982  0.00  0.00    -0.398 OA
ATOM     39  H22 CBI d          -4.481  41.195   8.048  0.00  0.00     0.209 HD
ENDBRANCH  35  38
ENDBRANCH  25  35
BRANCH  28  40
ATOM     40  O1' CBI d           1.131  41.919  10.193  0.00  0.00    -0.369 OA
ATOM     41  H19 CBI d           1.084  42.864  10.270  0.00  0.00     0.212 HD
ENDBRANCH  28  40
BRANCH  29  42
ATOM     42  O2' CBI d           0.764  40.896  12.982  0.00  0.00    -0.388 OA
ATOM     43  H20 CBI d           0.390  40.604  13.805  0.00  0.00     0.210 HD
ENDBRANCH  29  42
BRANCH  31  44
ATOM     44  O3' CBI d          -1.870  41.799  14.096  0.00  0.00    -0.390 OA
ATOM     45  H21 CBI d          -1.119  41.568  14.630  0.00  0.00     0.210 HD
ENDBRANCH  31  44
ENDBRANCH   1  24
TORSDOF 12
ENDMDL
MODEL 9
REMARK VINA RESULT:      -2.9      1.371      2.792
REMARK  12 active torsions:
REMARK  status: ('A' for Active; 'I' for Inactive)
REMARK    1  A    between atoms: C1_1  and  O4'_21 
REMARK    2  A    between atoms: C2_2  and  O2_7 
REMARK    3  A    between atoms: C3_3  and  O3_8 
REMARK    4  A    between atoms: C4_4  and  O4_9 
REMARK    5  A    between atoms: C5_5  and  C6_6 
REMARK    6  A    between atoms: C6_6  and  O6_11 
REMARK    7  A    between atoms: C1'_12  and  O1'_18 
REMARK    8  A    between atoms: C2'_13  and  O2'_19 
REMARK    9  A    between atoms: C3'_14  and  O3'_20 
REMARK   10  A    between atoms: O4'_21  and  C4'_15 
REMARK   11  A    between atoms: C5'_16  and  C6'_17 
REMARK   12  A    between atoms: C6'_17  and  O6'_23 
ROOT
ATOM      1  O4' CBI d          -4.105  41.784  12.520  0.00  0.00    -0.348 OA
ENDROOT
BRANCH   1   2
ATOM      2  C1  CBI d          -5.136  42.761  12.448  0.00  0.00     0.159 C 
ATOM      3  O5  CBI d          -5.324  43.375  13.719  0.00  0.00    -0.348 OA
ATOM      4  C5  CBI d          -6.373  44.345  13.888  0.00  0.00     0.089 C 
ATOM      5  C4  CBI d          -7.752  43.675  13.601  0.00  0.00     0.090 C 
ATOM      6  H5  CBI d          -6.233  45.190  13.198  0.00  0.00     0.090 H 
ATOM      7  C3  CBI d          -7.742  42.972  12.209  0.00  0.00     0.092 C 
ATOM      8  H4  CBI d          -7.921  42.907  14.370  0.00  0.00     0.091 H 
ATOM      9  C2  CBI d          -6.496  42.023  12.086  0.00  0.00     0.110 C 
ATOM     10  H3  CBI d          -7.696  43.728  11.411  0.00  0.00     0.091 H 
ATOM     11  H2  CBI d          -6.632  41.195  12.798  0.00  0.00     0.094 H 
ATOM     12  H1  CBI d          -4.889  43.518  11.690  0.00  0.00     0.133 H 
BRANCH   4  13
ATOM     13  C6  CBI d          -6.242  44.831  15.348  0.00  0.00     0.043 C 
ATOM     14  H6  CBI d          -7.027  45.586  15.500  0.00  0.00     0.078 H 
ATOM     15  H7  CBI d          -5.254  45.308  15.433  0.00  0.00     0.078 H 
BRANCH  13  16
ATOM     16  O6  CBI d          -6.345  43.918  16.425  0.00  0.00    -0.398 OA
ATOM     17  H11 CBI d          -7.084  44.158  16.972  0.00  0.00     0.209 HD
ENDBRANCH  13  16
ENDBRANCH   4  13
BRANCH   5  18
ATOM     18  O4  CBI d          -8.823  44.616  13.679  0.00  0.00    -0.390 OA
ATOM     19  H10 CBI d          -8.476  45.497  13.591  0.00  0.00     0.210 HD
ENDBRANCH   5  18
BRANCH   7  20
ATOM     20  O3  CBI d          -8.961  42.232  12.100  0.00  0.00    -0.390 OA
ATOM     21  H9  CBI d          -9.587  42.561  12.734  0.00  0.00     0.210 HD
ENDBRANCH   7  20
BRANCH   9  22
ATOM     22  O2  CBI d          -6.422  41.477  10.777  0.00  0.00    -0.388 OA
ATOM     23  H8  CBI d          -5.589  41.034  10.667  0.00  0.00     0.210 HD
ENDBRANCH   9  22
ENDBRANCH   1   2
BRANCH   1  24
ATOM     24  C4' CBI d          -2.935  41.984  11.767  0.00  0.00     0.096 C 
ATOM     25  C5' CBI d          -1.623  42.174  12.642  0.00  0.00     0.089 C 
ATOM     26  O5' CBI d          -0.474  42.402  11.819  0.00  0.00    -0.349 OA
ATOM     27  H16 CBI d          -1.768  43.040  13.305  0.00  0.00     0.090 H 
ATOM     28  C1' CBI d          -0.527  43.515  10.937  0.00  0.00     0.156 C 
ATOM     29  C2' CBI d          -1.793  43.555  10.043  0.00  0.00     0.110 C 
ATOM     30  H12 CBI d          -0.517  44.443  11.528  0.00  0.00     0.133 H 
ATOM     31  C3' CBI d          -3.104  43.257  10.839  0.00  0.00     0.092 C 
ATOM     32  H13 CBI d          -1.690  42.763   9.286  0.00  0.00     0.094 H 
ATOM     33  H14 CBI d          -3.299  44.125  11.487  0.00  0.00     0.091 H 
ATOM     34  H15 CBI d          -2.792  41.098  11.131  0.00  0.00     0.091 H 
BRANCH  25  35
ATOM     35  C6' CBI d          -1.341  40.915  13.503  0.00  0.00     0.043 C 
ATOM     36  H17 CBI d          -0.283  40.915  13.803  0.00  0.00     0.078 H 
ATOM     37  H18 CBI d          -1.552  40.016  12.904  0.00  0.00     0.078 H 
BRANCH  35  38
ATOM     38  O6' CBI d          -2.151  40.895  14.667  0.00  0.00    -0.398 OA
ATOM     39  H22 CBI d          -1.673  40.481  15.377  0.00  0.00     0.209 HD
ENDBRANCH  35  38
ENDBRANCH  25  35
BRANCH  28  40
ATOM     40  O1' CBI d           0.675  43.421  10.200  0.00  0.00    -0.369 OA
ATOM     41  H19 CBI d           0.672  44.071   9.507  0.00  0.00     0.212 HD
ENDBRANCH  28  40
BRANCH  29  42
ATOM     42  O2' CBI d          -1.848  44.795   9.361  0.00  0.00    -0.388 OA
ATOM     43  H20 CBI d          -2.754  45.017   9.180  0.00  0.00     0.210 HD
ENDBRANCH  29  42
BRANCH  31  44
ATOM     44  O3' CBI d          -4.235  43.091   9.991  0.00  0.00    -0.390 OA
ATOM     45  H21 CBI d          -4.287  43.823   9.387  0.00  0.00     0.210 HD
ENDBRANCH  31  44
ENDBRANCH   1  24
TORSDOF 12
ENDMDL
MODEL 10
REMARK VINA RESULT:      -2.8      1.922      6.815
REMARK  12 active torsions:
REMARK  status: ('A' for Active; 'I' for Inactive)
REMARK    1  A    between atoms: C1_1  and  O4'_21 
REMARK    2  A    between atoms: C2_2  and  O2_7 
REMARK    3  A    between atoms: C3_3  and  O3_8 
REMARK    4  A    between atoms: C4_4  and  O4_9 
REMARK    5  A    between atoms: C5_5  and  C6_6 
REMARK    6  A    between atoms: C6_6  and  O6_11 
REMARK    7  A    between atoms: C1'_12  and  O1'_18 
REMARK    8  A    between atoms: C2'_13  and  O2'_19 
REMARK    9  A    between atoms: C3'_14  and  O3'_20 
REMARK   10  A    between atoms: O4'_21  and  C4'_15 
REMARK   11  A    between atoms: C5'_16  and  C6'_17 
REMARK   12  A    between atoms: C6'_17  and  O6'_23 
ROOT
ATOM      1  O4' CBI d          -2.408  43.737  10.731  0.00  0.00    -0.348 OA
ENDROOT
BRANCH   1   2
ATOM      2  C1  CBI d          -1.510  42.671  11.014  0.00  0.00     0.159 C 
ATOM      3  O5  CBI d          -0.590  43.057  12.029  0.00  0.00    -0.348 OA
ATOM      4  C5  CBI d           0.457  42.150  12.418  0.00  0.00     0.089 C 
ATOM      5  C4  CBI d           1.374  41.857  11.189  0.00  0.00     0.090 C 
ATOM      6  H5  CBI d           0.032  41.203  12.783  0.00  0.00     0.090 H 
ATOM      7  C3  CBI d           0.524  41.379   9.972  0.00  0.00     0.092 C 
ATOM      8  H4  CBI d           1.873  42.797  10.909  0.00  0.00     0.091 H 
ATOM      9  C2  CBI d          -0.657  42.379   9.704  0.00  0.00     0.110 C 
ATOM     10  H3  CBI d           0.110  40.381  10.177  0.00  0.00     0.091 H 
ATOM     11  H2  CBI d          -0.223  43.331   9.364  0.00  0.00     0.094 H 
ATOM     12  H1  CBI d          -2.069  41.775  11.323  0.00  0.00     0.133 H 
BRANCH   4  13
ATOM     13  C6  CBI d           1.208  42.866  13.561  0.00  0.00     0.043 C 
ATOM     14  H6  CBI d           1.759  43.699  13.102  0.00  0.00     0.078 H 
ATOM     15  H7  CBI d           1.922  42.137  13.973  0.00  0.00     0.078 H 
BRANCH  13  16
ATOM     16  O6  CBI d           0.502  43.406  14.662  0.00  0.00    -0.398 OA
ATOM     17  H11 CBI d          -0.428  43.412  14.468  0.00  0.00     0.209 HD
ENDBRANCH  13  16
ENDBRANCH   4  13
BRANCH   5  18
ATOM     18  O4  CBI d           2.385  40.899  11.501  0.00  0.00    -0.390 OA
ATOM     19  H10 CBI d           3.070  40.937  10.843  0.00  0.00     0.210 HD
ENDBRANCH   5  18
BRANCH   7  20
ATOM     20  O3  CBI d           1.402  41.312   8.844  0.00  0.00    -0.390 OA
ATOM     21  H9  CBI d           1.467  40.412   8.549  0.00  0.00     0.210 HD
ENDBRANCH   7  20
BRANCH   9  22
ATOM     22  O2  CBI d          -1.499  41.880   8.675  0.00  0.00    -0.388 OA
ATOM     23  H8  CBI d          -2.407  41.994   8.928  0.00  0.00     0.210 HD
ENDBRANCH   9  22
ENDBRANCH   1   2
BRANCH   1  24
ATOM     24  C4' CBI d          -3.777  43.550  10.992  0.00  0.00     0.096 C 
ATOM     25  C5' CBI d          -4.104  43.157  12.496  0.00  0.00     0.089 C 
ATOM     26  O5' CBI d          -5.507  42.953  12.691  0.00  0.00    -0.349 OA
ATOM     27  H16 CBI d          -3.568  42.227  12.738  0.00  0.00     0.090 H 
ATOM     28  C1' CBI d          -6.130  41.967  11.879  0.00  0.00     0.156 C 
ATOM     29  C2' CBI d          -5.858  42.130  10.361  0.00  0.00     0.110 C 
ATOM     30  H12 CBI d          -5.758  40.973  12.171  0.00  0.00     0.133 H 
ATOM     31  C3' CBI d          -4.356  42.419  10.045  0.00  0.00     0.092 C 
ATOM     32  H13 CBI d          -6.432  43.002  10.014  0.00  0.00     0.094 H 
ATOM     33  H14 CBI d          -3.795  41.493  10.242  0.00  0.00     0.091 H 
ATOM     34  H15 CBI d          -4.292  44.496  10.770  0.00  0.00     0.091 H 
BRANCH  25  35
ATOM     35  C6' CBI d          -3.652  44.275  13.474  0.00  0.00     0.043 C 
ATOM     36  H17 CBI d          -3.371  45.166  12.894  0.00  0.00     0.078 H 
ATOM     37  H18 CBI d          -2.782  43.921  14.046  0.00  0.00     0.078 H 
BRANCH  35  38
ATOM     38  O6' CBI d          -4.690  44.620  14.377  0.00  0.00    -0.398 OA
ATOM     39  H22 CBI d          -4.511  44.231  15.226  0.00  0.00     0.209 HD
ENDBRANCH  35  38
ENDBRANCH  25  35
BRANCH  28  40
ATOM     40  O1' CBI d          -7.499  42.067  12.216  0.00  0.00    -0.369 OA
ATOM     41  H19 CBI d          -7.876  41.196  12.265  0.00  0.00     0.212 HD
ENDBRANCH  28  40
BRANCH  29  42
ATOM     42  O2' CBI d          -6.344  40.993   9.671  0.00  0.00    -0.388 OA
ATOM     43  H20 CBI d          -5.853  40.226   9.942  0.00  0.00     0.210 HD
ENDBRANCH  29  42
BRANCH  31  44
ATOM     44  O3' CBI d          -4.140  42.771   8.683  0.00  0.00    -0.390 OA
ATOM     45  H21 CBI d          -4.276  43.706   8.574  0.00  0.00     0.210 HD
ENDBRANCH  31  44
ENDBRANCH   1  24
TORSDOF 12
ENDMDL
