MODEL 1
REMARK VINA RESULT:     -11.4      0.000      0.000
REMARK  11 active torsions:
REMARK  status: ('A' for Active; 'I' for Inactive)
REMARK       I    between atoms: N1_3  and  C20_36 
REMARK    1  A    between atoms: C28_44  and  N1_3 
REMARK    2  A    between atoms: O1_4  and  C9_24 
REMARK    3  A    between atoms: C20_36  and  O1_4 
REMARK    4  A    between atoms: N3_10  and  S1_5 
REMARK    5  A    between atoms: S1_5  and  C23_39 
REMARK    6  A    between atoms: C2_6  and  C4_12 
REMARK       I    between atoms: C4_12  and  N3_10 
REMARK       I    between atoms: C35_51  and  N4_13 
REMARK    7  A    between atoms: C9_24  and  C6_18 
REMARK    8  A    between atoms: C9_24  and  C7_20 
REMARK    9  A    between atoms: C9_24  and  C8_22 
REMARK   10  A    between atoms: C30_46  and  O8_23 
REMARK   11  A    between atoms: O8_23  and  C35_51 
ROOT
ATOM      1  C1  TSV d         -12.564  -6.209  17.114  0.00  0.00    -0.023 A 
ATOM      2  C2  TSV d         -12.180  -6.588  15.685  0.00  0.00     0.122 A 
ATOM      3  N2  TSV d         -12.478  -7.944  15.296  0.00  0.00    -0.341 N 
ATOM      4  C3  TSV d         -13.454  -5.764  15.970  0.00  0.00    -0.002 A 
ATOM      5  O3  TSV d         -15.602  -8.251  15.117  0.00  0.00    -0.271 OA
ATOM      6  C5  TSV d         -13.491  -4.295  15.660  0.00  0.00    -0.100 C 
ATOM      7  N5  TSV d         -14.958  -9.580  13.458  0.00  0.00    -0.334 N 
ATOM      8  O7  TSV d         -13.177  -7.350  13.237  0.00  0.00    -0.271 OA
ATOM      9  C10 TSV d         -14.402  -3.747  14.837  0.00  0.00    -0.106 C 
ATOM     10  C11 TSV d         -13.027  -8.205  14.117  0.00  0.00     0.241 C 
ATOM     11  C13 TSV d         -15.496  -4.524  14.132  0.00  0.00    -0.050 C 
ATOM     12  C15 TSV d         -13.561  -9.594  13.929  0.00  0.00     0.094 C 
ATOM     13  C18 TSV d         -15.367  -4.456  12.620  0.00  0.00    -0.062 C 
ATOM     14  C19 TSV d         -16.512  -5.199  11.908  0.00  0.00    -0.065 C 
ATOM     15  C22 TSV d         -16.447  -6.721  12.072  0.00  0.00    -0.063 C 
ATOM     16  C25 TSV d         -17.470  -7.226  13.093  0.00  0.00    -0.038 C 
ATOM     17  C27 TSV d         -12.845 -10.327  12.812  0.00  0.00    -0.011 C 
ATOM     18  C28 TSV d         -17.239  -8.682  13.468  0.00  0.00     0.091 C 
ATOM     19  C30 TSV d         -13.879 -11.258  12.250  0.00  0.00     0.067 C 
ATOM     20  C33 TSV d         -15.864  -8.832  14.080  0.00  0.00     0.243 C 
ATOM     21  C34 TSV d         -15.153 -10.459  12.283  0.00  0.00     0.023 C 
ATOM     22  H1  TSV d         -11.966  -5.467  17.663  0.00  0.00     0.038 H 
ATOM     23  H2  TSV d         -12.914  -6.986  17.811  0.00  0.00     0.038 H 
ATOM     24  H4  TSV d         -12.270  -8.695  15.922  0.00  0.00     0.163 HD
ATOM     25  H5  TSV d         -14.447  -6.211  15.816  0.00  0.00     0.050 H 
ATOM     26  H7  TSV d         -12.749  -3.645  16.121  0.00  0.00     0.077 H 
ATOM     27  H17 TSV d         -14.350  -2.673  14.664  0.00  0.00     0.076 H 
ATOM     28  H19 TSV d         -16.471  -4.106  14.423  0.00  0.00     0.038 H 
ATOM     29  H20 TSV d         -15.441  -5.577  14.444  0.00  0.00     0.038 H 
ATOM     30  H22 TSV d         -13.473 -10.144  14.878  0.00  0.00     0.088 H 
ATOM     31  H25 TSV d         -14.410  -4.911  12.324  0.00  0.00     0.033 H 
ATOM     32  H26 TSV d         -15.381  -3.401  12.310  0.00  0.00     0.033 H 
ATOM     33  H27 TSV d         -16.467  -4.962  10.835  0.00  0.00     0.033 H 
ATOM     34  H28 TSV d         -17.467  -4.845  12.322  0.00  0.00     0.033 H 
ATOM     35  H29 TSV d         -15.438  -7.000  12.411  0.00  0.00     0.033 H 
ATOM     36  H30 TSV d         -16.651  -7.193  11.100  0.00  0.00     0.033 H 
ATOM     37  H32 TSV d         -18.477  -7.127  12.663  0.00  0.00     0.036 H 
ATOM     38  H33 TSV d         -17.396  -6.610  14.001  0.00  0.00     0.036 H 
ATOM     39  H34 TSV d         -11.987 -10.891  13.206  0.00  0.00     0.040 H 
ATOM     40  H35 TSV d         -12.499  -9.621  12.043  0.00  0.00     0.040 H 
ATOM     41  H36 TSV d         -17.310  -9.310  12.567  0.00  0.00     0.087 H 
ATOM     42  H39 TSV d         -13.618 -11.599  11.237  0.00  0.00     0.086 H 
ATOM     43  H43 TSV d         -15.274  -9.869  11.363  0.00  0.00     0.068 H 
ATOM     44  H44 TSV d         -16.027 -11.113  12.418  0.00  0.00     0.068 H 
ENDROOT
BRANCH  18  45
ATOM     45  N1  TSV d         -18.235  -9.095  14.419  0.00  0.00    -0.324 N 
ATOM     46  C20 TSV d         -18.520 -10.371  14.638  0.00  0.00     0.362 C 
ATOM     47  O2  TSV d         -18.015 -11.328  14.047  0.00  0.00    -0.238 OA
ATOM     48  H3  TSV d         -18.731  -8.395  14.934  0.00  0.00     0.165 HD
BRANCH  46  49
ATOM     49  O1  TSV d         -19.496 -10.574  15.677  0.00  0.00    -0.294 OA
BRANCH  49  50
ATOM     50  C9  TSV d         -19.970 -11.852  16.112  0.00  0.00     0.061 C 
BRANCH  50  51
ATOM     51  C6  TSV d         -18.814 -12.691  16.639  0.00  0.00    -0.048 C 
ATOM     52  H8  TSV d         -19.192 -13.670  16.970  0.00  0.00     0.031 H 
ATOM     53  H9  TSV d         -18.342 -12.175  17.489  0.00  0.00     0.031 H 
ATOM     54  H10 TSV d         -18.071 -12.836  15.840  0.00  0.00     0.031 H 
ENDBRANCH  50  51
BRANCH  50  55
ATOM     55  C7  TSV d         -20.988 -11.573  17.214  0.00  0.00    -0.048 C 
ATOM     56  H11 TSV d         -21.390 -12.525  17.592  0.00  0.00     0.031 H 
ATOM     57  H12 TSV d         -21.808 -10.963  16.810  0.00  0.00     0.031 H 
ATOM     58  H13 TSV d         -20.498 -11.030  18.037  0.00  0.00     0.031 H 
ENDBRANCH  50  55
BRANCH  50  59
ATOM     59  C8  TSV d         -20.636 -12.556  14.934  0.00  0.00    -0.048 C 
ATOM     60  H14 TSV d         -21.004 -13.541  15.257  0.00  0.00     0.031 H 
ATOM     61  H15 TSV d         -19.904 -12.687  14.124  0.00  0.00     0.031 H 
ATOM     62  H16 TSV d         -21.479 -11.950  14.573  0.00  0.00     0.031 H 
ENDBRANCH  50  59
ENDBRANCH  49  50
ENDBRANCH  46  49
ENDBRANCH  18  45
BRANCH  19  63
ATOM     63  O8  TSV d         -14.070 -12.350  13.135  0.00  0.00    -0.296 OA
BRANCH  63  64
ATOM     64  C35 TSV d         -13.177 -13.455  12.962  0.00  0.00     0.371 C 
ATOM     65  N4  TSV d         -13.159 -14.272  13.966  0.00  0.00    -0.278 N 
ATOM     66  C12 TSV d         -12.447 -15.558  13.929  0.00  0.00     0.000 A 
ATOM     67  C31 TSV d         -13.869 -14.032  15.223  0.00  0.00     0.003 A 
ATOM     68  C24 TSV d         -12.806 -16.137  15.245  0.00  0.00    -0.005 A 
ATOM     69  H18 TSV d         -11.821 -15.976  13.142  0.00  0.00     0.113 H 
ATOM     70  C16 TSV d         -12.424 -17.382  15.736  0.00  0.00    -0.071 A 
ATOM     71  C26 TSV d         -13.597 -15.306  15.970  0.00  0.00     0.030 A 
ATOM     72  C14 TSV d         -12.872 -17.742  16.990  0.00  0.00    -0.079 A 
ATOM     73  H23 TSV d         -11.797 -18.046  15.153  0.00  0.00     0.084 H 
ATOM     74  C17 TSV d         -13.687 -16.889  17.737  0.00  0.00    -0.045 A 
ATOM     75  H21 TSV d         -12.586 -18.703  17.403  0.00  0.00     0.083 H 
ATOM     76  C21 TSV d         -14.052 -15.639  17.215  0.00  0.00     0.128 A 
ATOM     77  H24 TSV d         -14.037 -17.191  18.718  0.00  0.00     0.088 H 
ATOM     78  F1  TSV d         -14.828 -14.786  17.914  0.00  0.00    -0.205 F 
ATOM     79  H40 TSV d         -14.442 -13.159  15.535  0.00  0.00     0.114 H 
ATOM     80  O5  TSV d         -12.505 -13.587  11.944  0.00  0.00    -0.238 OA
ENDBRANCH  63  64
ENDBRANCH  19  63
BRANCH   2  81
ATOM     81  C4  TSV d         -10.941  -5.934  15.162  0.00  0.00     0.260 C 
ATOM     82  N3  TSV d         -10.290  -6.574  14.195  0.00  0.00    -0.252 N 
ATOM     83  H6  TSV d         -10.600  -7.470  13.874  0.00  0.00     0.181 HD
ATOM     84  O9  TSV d         -10.575  -4.871  15.606  0.00  0.00    -0.270 OA
BRANCH  82  85
ATOM     85  S1  TSV d          -9.016  -5.886  13.566  0.00  0.00     0.237 S 
ATOM     86  O4  TSV d          -8.113  -5.423  14.579  0.00  0.00    -0.205 OA
ATOM     87  O6  TSV d          -9.428  -4.833  12.656  0.00  0.00    -0.205 OA
BRANCH  85  88
ATOM     88  C23 TSV d          -8.306  -7.070  12.630  0.00  0.00     0.063 A 
ATOM     89  C29 TSV d          -6.915  -6.758  12.087  0.00  0.00    -0.046 A 
ATOM     90  C32 TSV d          -7.070  -7.775  13.197  0.00  0.00    -0.046 A 
ATOM     91  H37 TSV d          -6.450  -5.784  12.297  0.00  0.00     0.035 H 
ATOM     92  H38 TSV d          -6.635  -7.088  11.076  0.00  0.00     0.035 H 
ATOM     93  H41 TSV d          -6.904  -8.843  12.991  0.00  0.00     0.035 H 
ATOM     94  H42 TSV d          -6.719  -7.538  14.212  0.00  0.00     0.035 H 
ATOM     95  H31 TSV d          -9.054  -7.613  12.034  0.00  0.00     0.066 H 
ENDBRANCH  85  88
ENDBRANCH  82  85
ENDBRANCH   2  81
TORSDOF 11
ENDMDL
