MODEL 1
REMARK VINA RESULT:     -11.5      0.000      0.000
REMARK  11 active torsions:
REMARK  status: ('A' for Active; 'I' for Inactive)
REMARK       I    between atoms: N1_3  and  C20_36 
REMARK    1  A    between atoms: C28_44  and  N1_3 
REMARK    2  A    between atoms: O1_4  and  C9_24 
REMARK    3  A    between atoms: C20_36  and  O1_4 
REMARK    4  A    between atoms: N3_10  and  S1_5 
REMARK    5  A    between atoms: S1_5  and  C23_39 
REMARK    6  A    between atoms: C2_6  and  C4_12 
REMARK       I    between atoms: C4_12  and  N3_10 
REMARK       I    between atoms: C35_51  and  N4_13 
REMARK    7  A    between atoms: C9_24  and  C6_18 
REMARK    8  A    between atoms: C9_24  and  C7_20 
REMARK    9  A    between atoms: C9_24  and  C8_22 
REMARK   10  A    between atoms: C30_46  and  O8_23 
REMARK   11  A    between atoms: O8_23  and  C35_51 
ROOT
ATOM      1  C1  TSV d         -12.660  -6.235  17.126  0.00  0.00    -0.023 A 
ATOM      2  C2  TSV d         -12.243  -6.601  15.703  0.00  0.00     0.122 A 
ATOM      3  N2  TSV d         -12.542  -7.950  15.292  0.00  0.00    -0.341 N 
ATOM      4  C3  TSV d         -13.518  -5.770  15.965  0.00  0.00    -0.002 A 
ATOM      5  O3  TSV d         -15.663  -8.230  15.030  0.00  0.00    -0.271 OA
ATOM      6  C5  TSV d         -13.536  -4.298  15.669  0.00  0.00    -0.100 C 
ATOM      7  N5  TSV d         -14.987  -9.547  13.373  0.00  0.00    -0.334 N 
ATOM      8  O7  TSV d         -13.184  -7.329  13.222  0.00  0.00    -0.271 OA
ATOM      9  C10 TSV d         -14.421  -3.734  14.829  0.00  0.00    -0.106 C 
ATOM     10  C11 TSV d         -13.062  -8.195  14.096  0.00  0.00     0.241 C 
ATOM     11  C13 TSV d         -15.503  -4.494  14.088  0.00  0.00    -0.050 C 
ATOM     12  C15 TSV d         -13.603  -9.577  13.880  0.00  0.00     0.094 C 
ATOM     13  C18 TSV d         -15.334  -4.411  12.581  0.00  0.00    -0.062 C 
ATOM     14  C19 TSV d         -16.467  -5.138  11.832  0.00  0.00    -0.065 C 
ATOM     15  C22 TSV d         -16.417  -6.661  11.981  0.00  0.00    -0.063 C 
ATOM     16  C25 TSV d         -17.470  -7.169  12.970  0.00  0.00    -0.038 C 
ATOM     17  C27 TSV d         -12.864 -10.304  12.774  0.00  0.00    -0.011 C 
ATOM     18  C28 TSV d         -17.260  -8.631  13.335  0.00  0.00     0.091 C 
ATOM     19  C30 TSV d         -13.890 -11.221  12.175  0.00  0.00     0.067 C 
ATOM     20  C33 TSV d         -15.903  -8.798  13.981  0.00  0.00     0.243 C 
ATOM     21  C34 TSV d         -15.158 -10.412  12.185  0.00  0.00     0.023 C 
ATOM     22  H1  TSV d         -12.071  -5.503  17.698  0.00  0.00     0.038 H 
ATOM     23  H2  TSV d         -13.034  -7.015  17.805  0.00  0.00     0.038 H 
ATOM     24  H4  TSV d         -12.356  -8.710  15.914  0.00  0.00     0.163 HD
ATOM     25  H5  TSV d         -14.510  -6.207  15.780  0.00  0.00     0.050 H 
ATOM     26  H7  TSV d         -12.800  -3.659  16.157  0.00  0.00     0.077 H 
ATOM     27  H17 TSV d         -14.356  -2.658  14.670  0.00  0.00     0.076 H 
ATOM     28  H19 TSV d         -16.481  -4.072  14.359  0.00  0.00     0.038 H 
ATOM     29  H20 TSV d         -15.464  -5.551  14.391  0.00  0.00     0.038 H 
ATOM     30  H22 TSV d         -13.543 -10.138  14.825  0.00  0.00     0.088 H 
ATOM     31  H25 TSV d         -14.373  -4.871  12.305  0.00  0.00     0.033 H 
ATOM     32  H26 TSV d         -15.332  -3.352  12.282  0.00  0.00     0.033 H 
ATOM     33  H27 TSV d         -16.393  -4.889  10.763  0.00  0.00     0.033 H 
ATOM     34  H28 TSV d         -17.429  -4.780  12.226  0.00  0.00     0.033 H 
ATOM     35  H29 TSV d         -15.420  -6.952  12.343  0.00  0.00     0.033 H 
ATOM     36  H30 TSV d         -16.600  -7.121  10.999  0.00  0.00     0.033 H 
ATOM     37  H32 TSV d         -18.465  -7.057  12.516  0.00  0.00     0.036 H 
ATOM     38  H33 TSV d         -17.414  -6.563  13.887  0.00  0.00     0.036 H 
ATOM     39  H34 TSV d         -12.020 -10.879  13.183  0.00  0.00     0.040 H 
ATOM     40  H35 TSV d         -12.493  -9.593  12.021  0.00  0.00     0.040 H 
ATOM     41  H36 TSV d         -17.313  -9.248  12.426  0.00  0.00     0.087 H 
ATOM     42  H39 TSV d         -13.606 -11.553  11.166  0.00  0.00     0.086 H 
ATOM     43  H43 TSV d         -15.252  -9.811  11.269  0.00  0.00     0.068 H 
ATOM     44  H44 TSV d         -16.041 -11.060  12.290  0.00  0.00     0.068 H 
ENDROOT
BRANCH  18  45
ATOM     45  N1  TSV d         -18.284  -9.046  14.256  0.00  0.00    -0.324 N 
ATOM     46  C20 TSV d         -19.121 -10.038  13.985  0.00  0.00     0.362 C 
ATOM     47  O2  TSV d         -19.154 -10.678  12.932  0.00  0.00    -0.238 OA
ATOM     48  H3  TSV d         -18.367  -8.570  15.132  0.00  0.00     0.165 HD
BRANCH  46  49
ATOM     49  O1  TSV d         -20.024 -10.341  15.065  0.00  0.00    -0.294 OA
BRANCH  49  50
ATOM     50  C9  TSV d         -19.889 -11.455  15.952  0.00  0.00     0.061 C 
BRANCH  50  51
ATOM     51  C6  TSV d         -18.566 -12.169  15.705  0.00  0.00    -0.048 C 
ATOM     52  H8  TSV d         -17.904 -12.027  16.572  0.00  0.00     0.031 H 
ATOM     53  H9  TSV d         -18.086 -11.752  14.807  0.00  0.00     0.031 H 
ATOM     54  H10 TSV d         -18.751 -13.243  15.556  0.00  0.00     0.031 H 
ENDBRANCH  50  51
BRANCH  50  55
ATOM     55  C7  TSV d         -19.942 -10.881  17.365  0.00  0.00    -0.048 C 
ATOM     56  H11 TSV d         -20.748 -11.373  17.930  0.00  0.00     0.031 H 
ATOM     57  H12 TSV d         -20.137  -9.800  17.314  0.00  0.00     0.031 H 
ATOM     58  H13 TSV d         -18.981 -11.059  17.870  0.00  0.00     0.031 H 
ENDBRANCH  50  55
BRANCH  50  59
ATOM     59  C8  TSV d         -21.053 -12.413  15.718  0.00  0.00    -0.048 C 
ATOM     60  H14 TSV d         -21.992 -11.844  15.669  0.00  0.00     0.031 H 
ATOM     61  H15 TSV d         -21.105 -13.135  16.546  0.00  0.00     0.031 H 
ATOM     62  H16 TSV d         -20.900 -12.952  14.772  0.00  0.00     0.031 H 
ENDBRANCH  50  59
ENDBRANCH  49  50
ENDBRANCH  46  49
ENDBRANCH  18  45
BRANCH  19  63
ATOM     63  O8  TSV d         -14.112 -12.320  13.043  0.00  0.00    -0.296 OA
BRANCH  63  64
ATOM     64  C35 TSV d         -13.239 -13.440  12.865  0.00  0.00     0.371 C 
ATOM     65  N4  TSV d         -13.208 -14.243  13.881  0.00  0.00    -0.278 N 
ATOM     66  C12 TSV d         -12.514 -15.539  13.845  0.00  0.00     0.000 A 
ATOM     67  C31 TSV d         -13.884 -13.975  15.151  0.00  0.00     0.003 A 
ATOM     68  C24 TSV d         -12.850 -16.094  15.177  0.00  0.00    -0.005 A 
ATOM     69  H18 TSV d         -11.913 -15.977  13.049  0.00  0.00     0.113 H 
ATOM     70  C16 TSV d         -12.473 -17.338  15.677  0.00  0.00    -0.071 A 
ATOM     71  C26 TSV d         -13.612 -15.242  15.909  0.00  0.00     0.030 A 
ATOM     72  C14 TSV d         -12.895 -17.673  16.947  0.00  0.00    -0.079 A 
ATOM     73  H23 TSV d         -11.869 -18.018  15.089  0.00  0.00     0.084 H 
ATOM     74  C17 TSV d         -13.681 -16.798  17.701  0.00  0.00    -0.045 A 
ATOM     75  H21 TSV d         -12.613 -18.632  17.367  0.00  0.00     0.083 H 
ATOM     76  C21 TSV d         -14.041 -15.551  17.169  0.00  0.00     0.128 A 
ATOM     77  H24 TSV d         -14.011 -17.081  18.694  0.00  0.00     0.088 H 
ATOM     78  F1  TSV d         -14.788 -14.677  17.874  0.00  0.00    -0.205 F 
ATOM     79  H40 TSV d         -14.437 -13.090  15.463  0.00  0.00     0.114 H 
ATOM     80  O5  TSV d         -12.593 -13.596  11.834  0.00  0.00    -0.238 OA
ENDBRANCH  63  64
ENDBRANCH  19  63
BRANCH   2  81
ATOM     81  C4  TSV d         -10.986  -5.951  15.219  0.00  0.00     0.260 C 
ATOM     82  N3  TSV d         -10.321  -6.582  14.255  0.00  0.00    -0.252 N 
ATOM     83  H6  TSV d         -10.634  -7.468  13.911  0.00  0.00     0.181 HD
ATOM     84  O9  TSV d         -10.619  -4.901  15.690  0.00  0.00    -0.270 OA
BRANCH  82  85
ATOM     85  S1  TSV d          -9.027  -5.896  13.666  0.00  0.00     0.237 S 
ATOM     86  O4  TSV d          -8.140  -5.463  14.707  0.00  0.00    -0.205 OA
ATOM     87  O6  TSV d          -9.407  -4.822  12.768  0.00  0.00    -0.205 OA
BRANCH  85  88
ATOM     88  C23 TSV d          -8.310  -7.071  12.723  0.00  0.00     0.063 A 
ATOM     89  C29 TSV d          -6.927  -6.742  12.171  0.00  0.00    -0.046 A 
ATOM     90  C32 TSV d          -7.062  -7.763  13.279  0.00  0.00    -0.046 A 
ATOM     91  H37 TSV d          -6.471  -5.763  12.379  0.00  0.00     0.035 H 
ATOM     92  H38 TSV d          -6.650  -7.066  11.157  0.00  0.00     0.035 H 
ATOM     93  H41 TSV d          -6.885  -8.828  13.070  0.00  0.00     0.035 H 
ATOM     94  H42 TSV d          -6.707  -7.524  14.293  0.00  0.00     0.035 H 
ATOM     95  H31 TSV d          -9.056  -7.621  12.132  0.00  0.00     0.066 H 
ENDBRANCH  85  88
ENDBRANCH  82  85
ENDBRANCH   2  81
TORSDOF 11
ENDMDL
MODEL 2
REMARK VINA RESULT:      -9.4      1.538      1.742
REMARK  11 active torsions:
REMARK  status: ('A' for Active; 'I' for Inactive)
REMARK       I    between atoms: N1_3  and  C20_36 
REMARK    1  A    between atoms: C28_44  and  N1_3 
REMARK    2  A    between atoms: O1_4  and  C9_24 
REMARK    3  A    between atoms: C20_36  and  O1_4 
REMARK    4  A    between atoms: N3_10  and  S1_5 
REMARK    5  A    between atoms: S1_5  and  C23_39 
REMARK    6  A    between atoms: C2_6  and  C4_12 
REMARK       I    between atoms: C4_12  and  N3_10 
REMARK       I    between atoms: C35_51  and  N4_13 
REMARK    7  A    between atoms: C9_24  and  C6_18 
REMARK    8  A    between atoms: C9_24  and  C7_20 
REMARK    9  A    between atoms: C9_24  and  C8_22 
REMARK   10  A    between atoms: C30_46  and  O8_23 
REMARK   11  A    between atoms: O8_23  and  C35_51 
ROOT
ATOM      1  C1  TSV d         -12.390  -6.308  16.703  0.00  0.00    -0.023 A 
ATOM      2  C2  TSV d         -12.148  -6.803  15.279  0.00  0.00     0.122 A 
ATOM      3  N2  TSV d         -12.484  -8.183  15.031  0.00  0.00    -0.341 N 
ATOM      4  C3  TSV d         -13.388  -5.948  15.620  0.00  0.00    -0.002 A 
ATOM      5  O3  TSV d         -15.611  -8.476  15.184  0.00  0.00    -0.271 OA
ATOM      6  C5  TSV d         -13.454  -4.508  15.197  0.00  0.00    -0.100 C 
ATOM      7  N5  TSV d         -15.134  -9.940  13.581  0.00  0.00    -0.334 N 
ATOM      8  O7  TSV d         -13.381  -7.750  13.009  0.00  0.00    -0.271 OA
ATOM      9  C10 TSV d         -14.440  -4.020  14.426  0.00  0.00    -0.106 C 
ATOM     10  C11 TSV d         -13.146  -8.534  13.936  0.00  0.00     0.241 C 
ATOM     11  C13 TSV d         -15.599  -4.842  13.896  0.00  0.00    -0.050 C 
ATOM     12  C15 TSV d         -13.697  -9.928  13.914  0.00  0.00     0.094 C 
ATOM     13  C18 TSV d         -15.618  -4.896  12.378  0.00  0.00    -0.062 C 
ATOM     14  C19 TSV d         -16.828  -5.683  11.843  0.00  0.00    -0.065 C 
ATOM     15  C22 TSV d         -16.749  -7.188  12.122  0.00  0.00    -0.063 C 
ATOM     16  C25 TSV d         -17.667  -7.600  13.275  0.00  0.00    -0.038 C 
ATOM     17  C27 TSV d         -13.095 -10.754  12.795  0.00  0.00    -0.011 C 
ATOM     18  C28 TSV d         -17.402  -9.024  13.742  0.00  0.00     0.091 C 
ATOM     19  C30 TSV d         -14.179 -11.718  12.413  0.00  0.00     0.067 C 
ATOM     20  C33 TSV d         -15.974  -9.136  14.227  0.00  0.00     0.243 C 
ATOM     21  C34 TSV d         -15.443 -10.908  12.506  0.00  0.00     0.023 C 
ATOM     22  H1  TSV d         -11.740  -5.530  17.130  0.00  0.00     0.038 H 
ATOM     23  H2  TSV d         -12.670  -7.023  17.491  0.00  0.00     0.038 H 
ATOM     24  H4  TSV d         -12.216  -8.884  15.692  0.00  0.00     0.163 HD
ATOM     25  H5  TSV d         -14.391  -6.397  15.600  0.00  0.00     0.050 H 
ATOM     26  H7  TSV d         -12.669  -3.831  15.530  0.00  0.00     0.077 H 
ATOM     27  H17 TSV d         -14.405  -2.964  14.163  0.00  0.00     0.076 H 
ATOM     28  H19 TSV d         -16.540  -4.393  14.246  0.00  0.00     0.038 H 
ATOM     29  H20 TSV d         -15.514  -5.867  14.285  0.00  0.00     0.038 H 
ATOM     30  H22 TSV d         -13.517 -10.401  14.890  0.00  0.00     0.088 H 
ATOM     31  H25 TSV d         -14.695  -5.382  12.028  0.00  0.00     0.033 H 
ATOM     32  H26 TSV d         -15.662  -3.868  11.987  0.00  0.00     0.033 H 
ATOM     33  H27 TSV d         -16.889  -5.533  10.755  0.00  0.00     0.033 H 
ATOM     34  H28 TSV d         -17.738  -5.289  12.319  0.00  0.00     0.033 H 
ATOM     35  H29 TSV d         -15.712  -7.447  12.382  0.00  0.00     0.033 H 
ATOM     36  H30 TSV d         -17.048  -7.734  11.216  0.00  0.00     0.033 H 
ATOM     37  H32 TSV d         -18.711  -7.527  12.939  0.00  0.00     0.036 H 
ATOM     38  H33 TSV d         -17.504  -6.914  14.120  0.00  0.00     0.036 H 
ATOM     39  H34 TSV d         -12.203 -11.292  13.147  0.00  0.00     0.040 H 
ATOM     40  H35 TSV d         -12.825 -10.115  11.941  0.00  0.00     0.040 H 
ATOM     41  H36 TSV d         -17.561  -9.721  12.906  0.00  0.00     0.087 H 
ATOM     42  H39 TSV d         -14.020 -12.141  11.410  0.00  0.00     0.086 H 
ATOM     43  H43 TSV d         -15.654 -10.392  11.558  0.00  0.00     0.068 H 
ATOM     44  H44 TSV d         -16.301 -11.541  12.778  0.00  0.00     0.068 H 
ENDROOT
BRANCH  18  45
ATOM     45  N1  TSV d         -18.300  -9.351  14.816  0.00  0.00    -0.324 N 
ATOM     46  C20 TSV d         -19.258 -10.259  14.687  0.00  0.00     0.362 C 
ATOM     47  O2  TSV d         -19.516 -10.885  13.657  0.00  0.00    -0.238 OA
ATOM     48  H3  TSV d         -18.200  -8.877  15.691  0.00  0.00     0.165 HD
BRANCH  46  49
ATOM     49  O1  TSV d         -20.002 -10.487  15.899  0.00  0.00    -0.294 OA
BRANCH  49  50
ATOM     50  C9  TSV d         -20.034 -11.724  16.615  0.00  0.00     0.061 C 
BRANCH  50  51
ATOM     51  C6  TSV d         -18.758 -12.515  16.358  0.00  0.00    -0.048 C 
ATOM     52  H8  TSV d         -17.900 -11.827  16.321  0.00  0.00     0.031 H 
ATOM     53  H9  TSV d         -18.842 -13.046  15.398  0.00  0.00     0.031 H 
ATOM     54  H10 TSV d         -18.609 -13.245  17.168  0.00  0.00     0.031 H 
ENDBRANCH  50  51
BRANCH  50  55
ATOM     55  C7  TSV d         -20.158 -11.356  18.091  0.00  0.00    -0.048 C 
ATOM     56  H11 TSV d         -19.241 -11.652  18.621  0.00  0.00     0.031 H 
ATOM     57  H12 TSV d         -21.020 -11.880  18.529  0.00  0.00     0.031 H 
ATOM     58  H13 TSV d         -20.301 -10.269  18.187  0.00  0.00     0.031 H 
ENDBRANCH  50  55
BRANCH  50  59
ATOM     59  C8  TSV d         -21.249 -12.526  16.160  0.00  0.00    -0.048 C 
ATOM     60  H14 TSV d         -20.969 -13.166  15.311  0.00  0.00     0.031 H 
ATOM     61  H15 TSV d         -22.048 -11.837  15.851  0.00  0.00     0.031 H 
ATOM     62  H16 TSV d         -21.607 -13.154  16.989  0.00  0.00     0.031 H 
ENDBRANCH  50  59
ENDBRANCH  49  50
ENDBRANCH  46  49
ENDBRANCH  18  45
BRANCH  19  63
ATOM     63  O8  TSV d         -14.284 -12.734  13.397  0.00  0.00    -0.296 OA
BRANCH  63  64
ATOM     64  C35 TSV d         -14.918 -13.946  12.977  0.00  0.00     0.371 C 
ATOM     65  N4  TSV d         -15.456 -14.616  13.945  0.00  0.00    -0.278 N 
ATOM     66  C12 TSV d         -16.304 -15.796  13.718  0.00  0.00     0.000 A 
ATOM     67  C31 TSV d         -15.319 -14.256  15.357  0.00  0.00     0.003 A 
ATOM     68  C24 TSV d         -16.735 -16.124  15.096  0.00  0.00    -0.005 A 
ATOM     69  H18 TSV d         -16.550 -16.297  12.782  0.00  0.00     0.113 H 
ATOM     70  C16 TSV d         -17.592 -17.154  15.475  0.00  0.00    -0.071 A 
ATOM     71  C26 TSV d         -16.203 -15.278  16.014  0.00  0.00     0.030 A 
ATOM     72  C14 TSV d         -17.878 -17.291  16.818  0.00  0.00    -0.079 A 
ATOM     73  H23 TSV d         -18.020 -17.826  14.740  0.00  0.00     0.084 H 
ATOM     74  C17 TSV d         -17.332 -16.419  17.763  0.00  0.00    -0.045 A 
ATOM     75  H21 TSV d         -18.536 -18.087  17.145  0.00  0.00     0.083 H 
ATOM     76  C21 TSV d         -16.470 -15.393  17.349  0.00  0.00     0.128 A 
ATOM     77  H24 TSV d         -17.573 -16.535  18.814  0.00  0.00     0.088 H 
ATOM     78  F1  TSV d         -15.915 -14.541  18.236  0.00  0.00    -0.205 F 
ATOM     79  H40 TSV d         -14.732 -13.459  15.811  0.00  0.00     0.114 H 
ATOM     80  O5  TSV d         -14.931 -14.291  11.799  0.00  0.00    -0.238 OA
ENDBRANCH  63  64
ENDBRANCH  19  63
BRANCH   2  81
ATOM     81  C4  TSV d         -10.965  -6.204  14.586  0.00  0.00     0.260 C 
ATOM     82  N3  TSV d         -10.650  -6.710  13.398  0.00  0.00    -0.252 N 
ATOM     83  H6  TSV d         -11.159  -7.483  13.018  0.00  0.00     0.181 HD
ATOM     84  O9  TSV d         -10.349  -5.299  15.098  0.00  0.00    -0.270 OA
BRANCH  82  85
ATOM     85  S1  TSV d          -9.452  -6.060  12.601  0.00  0.00     0.237 S 
ATOM     86  O4  TSV d          -9.487  -4.628  12.672  0.00  0.00    -0.205 OA
ATOM     87  O6  TSV d          -9.444  -6.556  11.238  0.00  0.00    -0.205 OA
BRANCH  85  88
ATOM     88  C23 TSV d          -8.076  -6.659  13.331  0.00  0.00     0.063 A 
ATOM     89  C29 TSV d          -7.371  -7.801  12.608  0.00  0.00    -0.046 A 
ATOM     90  C32 TSV d          -6.739  -6.427  12.623  0.00  0.00    -0.046 A 
ATOM     91  H37 TSV d          -7.791  -8.202  11.674  0.00  0.00     0.035 H 
ATOM     92  H38 TSV d          -6.918  -8.620  13.187  0.00  0.00     0.035 H 
ATOM     93  H41 TSV d          -5.828  -6.247  13.213  0.00  0.00     0.035 H 
ATOM     94  H42 TSV d          -6.702  -5.829  11.699  0.00  0.00     0.035 H 
ATOM     95  H31 TSV d          -8.158  -6.627  14.428  0.00  0.00     0.066 H 
ENDBRANCH  85  88
ENDBRANCH  82  85
ENDBRANCH   2  81
TORSDOF 11
ENDMDL
