MODEL 1
REMARK VINA RESULT:      -7.2      0.000      0.000
REMARK  2 active torsions:
REMARK  status: ('A' for Active; 'I' for Inactive)
REMARK    1  A    between atoms: C6_3  and  S_5 
REMARK    2  A    between atoms: S_5  and  N_10 
ROOT
ATOM      1  C4  SKF d          27.916  42.460  18.035  0.00  0.00    -0.075 A 
ATOM      2  C5  SKF d          27.652  42.296  16.682  0.00  0.00    -0.060 A 
ATOM      3  C6  SKF d          27.900  43.351  15.797  0.00  0.00     0.080 A 
ATOM      4  C7  SKF d          28.409  44.553  16.272  0.00  0.00    -0.052 A 
ATOM      5  C8  SKF d          28.669  44.716  17.619  0.00  0.00    -0.025 A 
ATOM      6  C9  SKF d          28.424  43.665  18.509  0.00  0.00    -0.049 A 
ATOM      7  C1  SKF d          29.295  45.999  18.106  0.00  0.00     0.106 C 
ATOM      8  C2  SKF d          29.534  44.899  20.323  0.00  0.00     0.086 C 
ATOM      9  C3  SKF d          28.411  43.944  19.980  0.00  0.00    -0.018 C 
ATOM     10  N1  SKF d          29.251  46.156  19.578  0.00  0.00    -0.071 N 
ATOM     11  H1  SKF d          27.726  41.646  18.725  0.00  0.00     0.084 H 
ATOM     12  H2  SKF d          27.255  41.357  16.314  0.00  0.00     0.085 H 
ATOM     13  H3  SKF d          28.602  45.367  15.582  0.00  0.00     0.086 H 
ATOM     14  H6  SKF d          28.757  46.843  17.649  0.00  0.00     0.083 H 
ATOM     15  H7  SKF d          30.347  46.017  17.785  0.00  0.00     0.083 H 
ATOM     16  H8  SKF d          30.501  44.479  20.009  0.00  0.00     0.076 H 
ATOM     17  H9  SKF d          29.552  45.093  21.405  0.00  0.00     0.076 H 
ATOM     18  H10 SKF d          28.549  43.003  20.532  0.00  0.00     0.042 H 
ATOM     19  H11 SKF d          27.447  44.395  20.259  0.00  0.00     0.042 H 
ATOM     20  H12 SKF d          28.332  46.479  19.837  0.00  0.00     0.277 HD
ATOM     21  H13 SKF d          29.937  46.844  19.845  0.00  0.00     0.277 HD
ENDROOT
BRANCH   3  22
ATOM     22  S   SKF d          27.562  43.160  14.076  0.00  0.00     0.256 S 
ATOM     23  O1  SKF d          26.159  43.376  13.797  0.00  0.00    -0.201 OA
ATOM     24  O2  SKF d          27.943  41.864  13.577  0.00  0.00    -0.201 OA
BRANCH  22  25
ATOM     25  N   SKF d          28.408  44.254  13.321  0.00  0.00    -0.324 N 
ATOM     26  H4  SKF d          29.308  44.519  13.669  0.00  0.00     0.169 HD
ATOM     27  H5  SKF d          28.046  44.684  12.494  0.00  0.00     0.169 HD
ENDBRANCH  22  25
ENDBRANCH   3  22
TORSDOF 2
ENDMDL
MODEL 2
REMARK VINA RESULT:      -7.2      3.389      5.151
REMARK  2 active torsions:
REMARK  status: ('A' for Active; 'I' for Inactive)
REMARK    1  A    between atoms: C6_3  and  S_5 
REMARK    2  A    between atoms: S_5  and  N_10 
ROOT
ATOM      1  C4  SKF d          27.591  42.403  17.030  0.00  0.00    -0.075 A 
ATOM      2  C5  SKF d          28.075  43.025  18.173  0.00  0.00    -0.060 A 
ATOM      3  C6  SKF d          28.656  44.294  18.074  0.00  0.00     0.080 A 
ATOM      4  C7  SKF d          28.747  44.924  16.839  0.00  0.00    -0.052 A 
ATOM      5  C8  SKF d          28.268  44.302  15.702  0.00  0.00    -0.025 A 
ATOM      6  C9  SKF d          27.684  43.034  15.795  0.00  0.00    -0.049 A 
ATOM      7  C1  SKF d          28.303  45.033  14.384  0.00  0.00     0.106 C 
ATOM      8  C2  SKF d          26.952  43.164  13.452  0.00  0.00     0.086 C 
ATOM      9  C3  SKF d          27.454  42.244  14.543  0.00  0.00    -0.018 C 
ATOM     10  N1  SKF d          28.033  44.159  13.217  0.00  0.00    -0.071 N 
ATOM     11  H1  SKF d          27.139  41.420  17.101  0.00  0.00     0.084 H 
ATOM     12  H2  SKF d          28.002  42.532  19.135  0.00  0.00     0.085 H 
ATOM     13  H3  SKF d          29.197  45.908  16.767  0.00  0.00     0.086 H 
ATOM     14  H6  SKF d          29.299  45.481  14.261  0.00  0.00     0.083 H 
ATOM     15  H7  SKF d          27.543  45.828  14.406  0.00  0.00     0.083 H 
ATOM     16  H8  SKF d          26.031  43.671  13.774  0.00  0.00     0.076 H 
ATOM     17  H9  SKF d          26.755  42.593  12.533  0.00  0.00     0.076 H 
ATOM     18  H10 SKF d          26.706  41.462  14.736  0.00  0.00     0.042 H 
ATOM     19  H11 SKF d          28.399  41.779  14.225  0.00  0.00     0.042 H 
ATOM     20  H12 SKF d          28.880  43.662  12.990  0.00  0.00     0.277 HD
ATOM     21  H13 SKF d          27.767  44.741  12.439  0.00  0.00     0.277 HD
ENDROOT
BRANCH   3  22
ATOM     22  S   SKF d          29.283  45.095  19.516  0.00  0.00     0.256 S 
ATOM     23  O1  SKF d          29.159  46.533  19.405  0.00  0.00    -0.201 OA
ATOM     24  O2  SKF d          30.659  44.764  19.779  0.00  0.00    -0.201 OA
BRANCH  22  25
ATOM     25  N   SKF d          28.408  44.598  20.729  0.00  0.00    -0.324 N 
ATOM     26  H4  SKF d          28.720  43.831  21.289  0.00  0.00     0.169 HD
ATOM     27  H5  SKF d          27.542  45.051  20.939  0.00  0.00     0.169 HD
ENDBRANCH  22  25
ENDBRANCH   3  22
TORSDOF 2
ENDMDL
MODEL 3
REMARK VINA RESULT:      -6.8      1.012      2.041
REMARK  2 active torsions:
REMARK  status: ('A' for Active; 'I' for Inactive)
REMARK    1  A    between atoms: C6_3  and  S_5 
REMARK    2  A    between atoms: S_5  and  N_10 
ROOT
ATOM      1  C4  SKF d          28.595  46.288  16.507  0.00  0.00    -0.075 A 
ATOM      2  C5  SKF d          28.224  45.532  15.403  0.00  0.00    -0.060 A 
ATOM      3  C6  SKF d          28.061  44.149  15.537  0.00  0.00     0.080 A 
ATOM      4  C7  SKF d          28.270  43.539  16.767  0.00  0.00    -0.052 A 
ATOM      5  C8  SKF d          28.642  44.292  17.865  0.00  0.00    -0.025 A 
ATOM      6  C9  SKF d          28.805  45.676  17.737  0.00  0.00    -0.049 A 
ATOM      7  C1  SKF d          28.788  43.626  19.209  0.00  0.00     0.106 C 
ATOM      8  C2  SKF d          29.048  45.904  20.173  0.00  0.00     0.086 C 
ATOM      9  C3  SKF d          29.499  46.431  18.828  0.00  0.00    -0.018 C 
ATOM     10  N1  SKF d          29.462  44.475  20.219  0.00  0.00    -0.071 N 
ATOM     11  H1  SKF d          28.722  47.360  16.409  0.00  0.00     0.084 H 
ATOM     12  H2  SKF d          28.062  46.011  14.444  0.00  0.00     0.085 H 
ATOM     13  H3  SKF d          28.141  42.468  16.867  0.00  0.00     0.086 H 
ATOM     14  H6  SKF d          29.375  42.705  19.080  0.00  0.00     0.083 H 
ATOM     15  H7  SKF d          27.785  43.372  19.583  0.00  0.00     0.083 H 
ATOM     16  H8  SKF d          27.955  45.987  20.268  0.00  0.00     0.076 H 
ATOM     17  H9  SKF d          29.530  46.467  20.985  0.00  0.00     0.076 H 
ATOM     18  H10 SKF d          29.249  47.499  18.751  0.00  0.00     0.042 H 
ATOM     19  H11 SKF d          30.587  46.301  18.730  0.00  0.00     0.042 H 
ATOM     20  H12 SKF d          30.457  44.427  20.062  0.00  0.00     0.277 HD
ATOM     21  H13 SKF d          29.249  44.112  21.134  0.00  0.00     0.277 HD
ENDROOT
BRANCH   3  22
ATOM     22  S   SKF d          27.597  43.174  14.142  0.00  0.00     0.256 S 
ATOM     23  O1  SKF d          26.160  43.022  14.071  0.00  0.00    -0.201 OA
ATOM     24  O2  SKF d          28.205  41.868  14.152  0.00  0.00    -0.201 OA
BRANCH  22  25
ATOM     25  N   SKF d          28.095  43.946  12.860  0.00  0.00    -0.324 N 
ATOM     26  H4  SKF d          27.522  43.977  12.042  0.00  0.00     0.169 HD
ATOM     27  H5  SKF d          28.983  44.404  12.867  0.00  0.00     0.169 HD
ENDBRANCH  22  25
ENDBRANCH   3  22
TORSDOF 2
ENDMDL
MODEL 4
REMARK VINA RESULT:      -6.6      3.714      5.541
REMARK  2 active torsions:
REMARK  status: ('A' for Active; 'I' for Inactive)
REMARK    1  A    between atoms: C6_3  and  S_5 
REMARK    2  A    between atoms: S_5  and  N_10 
ROOT
ATOM      1  C4  SKF d          28.783  46.131  16.219  0.00  0.00    -0.075 A 
ATOM      2  C5  SKF d          29.076  46.158  17.576  0.00  0.00    -0.060 A 
ATOM      3  C6  SKF d          28.881  45.006  18.347  0.00  0.00     0.080 A 
ATOM      4  C7  SKF d          28.399  43.845  17.755  0.00  0.00    -0.052 A 
ATOM      5  C8  SKF d          28.106  43.821  16.405  0.00  0.00    -0.025 A 
ATOM      6  C9  SKF d          28.300  44.969  15.629  0.00  0.00    -0.049 A 
ATOM      7  C1  SKF d          27.658  42.532  15.763  0.00  0.00     0.106 C 
ATOM      8  C2  SKF d          27.859  43.693  13.574  0.00  0.00     0.086 C 
ATOM      9  C3  SKF d          27.697  45.032  14.259  0.00  0.00    -0.018 C 
ATOM     10  N1  SKF d          27.107  42.710  14.400  0.00  0.00    -0.071 N 
ATOM     11  H1  SKF d          28.933  47.020  15.617  0.00  0.00     0.084 H 
ATOM     12  H2  SKF d          29.452  47.064  18.035  0.00  0.00     0.085 H 
ATOM     13  H3  SKF d          28.251  42.955  18.355  0.00  0.00     0.086 H 
ATOM     14  H6  SKF d          26.882  42.079  16.397  0.00  0.00     0.083 H 
ATOM     15  H7  SKF d          28.523  41.854  15.703  0.00  0.00     0.083 H 
ATOM     16  H8  SKF d          28.923  43.415  13.526  0.00  0.00     0.076 H 
ATOM     17  H9  SKF d          27.444  43.732  12.556  0.00  0.00     0.076 H 
ATOM     18  H10 SKF d          28.207  45.809  13.670  0.00  0.00     0.042 H 
ATOM     19  H11 SKF d          26.628  45.276  14.340  0.00  0.00     0.042 H 
ATOM     20  H12 SKF d          26.154  43.027  14.481  0.00  0.00     0.277 HD
ATOM     21  H13 SKF d          27.126  41.819  13.930  0.00  0.00     0.277 HD
ENDROOT
BRANCH   3  22
ATOM     22  S   SKF d          29.241  45.026  20.074  0.00  0.00     0.256 S 
ATOM     23  O1  SKF d          28.033  44.867  20.856  0.00  0.00    -0.201 OA
ATOM     24  O2  SKF d          29.908  46.233  20.486  0.00  0.00    -0.201 OA
BRANCH  22  25
ATOM     25  N   SKF d          30.197  43.805  20.355  0.00  0.00    -0.324 N 
ATOM     26  H4  SKF d          30.907  43.563  19.693  0.00  0.00     0.169 HD
ATOM     27  H5  SKF d          30.094  43.272  21.194  0.00  0.00     0.169 HD
ENDBRANCH  22  25
ENDBRANCH   3  22
TORSDOF 2
ENDMDL
MODEL 5
REMARK VINA RESULT:      -6.5      1.028      1.244
REMARK  2 active torsions:
REMARK  status: ('A' for Active; 'I' for Inactive)
REMARK    1  A    between atoms: C6_3  and  S_5 
REMARK    2  A    between atoms: S_5  and  N_10 
ROOT
ATOM      1  C4  SKF d          27.757  42.661  18.471  0.00  0.00    -0.075 A 
ATOM      2  C5  SKF d          27.574  42.429  17.114  0.00  0.00    -0.060 A 
ATOM      3  C6  SKF d          27.949  43.411  16.190  0.00  0.00     0.080 A 
ATOM      4  C7  SKF d          28.500  44.607  16.630  0.00  0.00    -0.052 A 
ATOM      5  C8  SKF d          28.680  44.837  17.981  0.00  0.00    -0.025 A 
ATOM      6  C9  SKF d          28.308  43.859  18.909  0.00  0.00    -0.049 A 
ATOM      7  C1  SKF d          29.352  46.107  18.436  0.00  0.00     0.106 C 
ATOM      8  C2  SKF d          29.370  45.133  20.724  0.00  0.00     0.086 C 
ATOM      9  C3  SKF d          28.214  44.229  20.358  0.00  0.00    -0.018 C 
ATOM     10  N1  SKF d          29.220  46.357  19.891  0.00  0.00    -0.071 N 
ATOM     11  H1  SKF d          27.469  41.904  19.191  0.00  0.00     0.084 H 
ATOM     12  H2  SKF d          27.143  41.495  16.773  0.00  0.00     0.085 H 
ATOM     13  H3  SKF d          28.791  45.364  15.910  0.00  0.00     0.086 H 
ATOM     14  H6  SKF d          28.902  46.953  17.895  0.00  0.00     0.083 H 
ATOM     15  H7  SKF d          30.422  46.042  18.190  0.00  0.00     0.083 H 
ATOM     16  H8  SKF d          30.327  44.637  20.504  0.00  0.00     0.076 H 
ATOM     17  H9  SKF d          29.328  45.392  21.792  0.00  0.00     0.076 H 
ATOM     18  H10 SKF d          28.253  43.317  20.972  0.00  0.00     0.042 H 
ATOM     19  H11 SKF d          27.265  44.753  20.541  0.00  0.00     0.042 H 
ATOM     20  H12 SKF d          28.308  46.750  20.064  0.00  0.00     0.277 HD
ATOM     21  H13 SKF d          29.929  47.018  20.166  0.00  0.00     0.277 HD
ENDROOT
BRANCH   3  22
ATOM     22  S   SKF d          27.715  43.135  14.463  0.00  0.00     0.256 S 
ATOM     23  O1  SKF d          28.293  41.872  14.058  0.00  0.00    -0.201 OA
ATOM     24  O2  SKF d          28.275  44.186  13.653  0.00  0.00    -0.201 OA
BRANCH  22  25
ATOM     25  N   SKF d          26.159  43.089  14.215  0.00  0.00    -0.324 N 
ATOM     26  H4  SKF d          25.746  43.679  13.522  0.00  0.00     0.169 HD
ATOM     27  H5  SKF d          25.586  42.470  14.751  0.00  0.00     0.169 HD
ENDBRANCH  22  25
ENDBRANCH   3  22
TORSDOF 2
ENDMDL
MODEL 6
REMARK VINA RESULT:      -6.2      3.549      5.178
REMARK  2 active torsions:
REMARK  status: ('A' for Active; 'I' for Inactive)
REMARK    1  A    between atoms: C6_3  and  S_5 
REMARK    2  A    between atoms: S_5  and  N_10 
ROOT
ATOM      1  C4  SKF d          27.894  42.495  17.280  0.00  0.00    -0.075 A 
ATOM      2  C5  SKF d          28.281  43.016  18.508  0.00  0.00    -0.060 A 
ATOM      3  C6  SKF d          28.670  44.357  18.597  0.00  0.00     0.080 A 
ATOM      4  C7  SKF d          28.667  45.159  17.463  0.00  0.00    -0.052 A 
ATOM      5  C8  SKF d          28.284  44.639  16.241  0.00  0.00    -0.025 A 
ATOM      6  C9  SKF d          27.893  43.299  16.147  0.00  0.00    -0.049 A 
ATOM      7  C1  SKF d          28.212  45.543  15.037  0.00  0.00     0.106 C 
ATOM      8  C2  SKF d          27.150  43.647  13.829  0.00  0.00     0.086 C 
ATOM      9  C3  SKF d          27.782  42.667  14.793  0.00  0.00    -0.018 C 
ATOM     10  N1  SKF d          28.074  44.812  13.756  0.00  0.00    -0.071 N 
ATOM     11  H1  SKF d          27.591  41.457  17.206  0.00  0.00     0.084 H 
ATOM     12  H2  SKF d          28.281  42.387  19.391  0.00  0.00     0.085 H 
ATOM     13  H3  SKF d          28.968  46.198  17.537  0.00  0.00     0.086 H 
ATOM     14  H6  SKF d          29.132  46.145  14.998  0.00  0.00     0.083 H 
ATOM     15  H7  SKF d          27.343  46.209  15.153  0.00  0.00     0.083 H 
ATOM     16  H8  SKF d          26.164  43.965  14.199  0.00  0.00     0.076 H 
ATOM     17  H9  SKF d          27.039  43.187  12.836  0.00  0.00     0.076 H 
ATOM     18  H10 SKF d          27.157  41.765  14.860  0.00  0.00     0.042 H 
ATOM     19  H11 SKF d          28.785  42.392  14.433  0.00  0.00     0.042 H 
ATOM     20  H12 SKF d          28.984  44.479  13.480  0.00  0.00     0.277 HD
ATOM     21  H13 SKF d          27.725  45.452  13.060  0.00  0.00     0.277 HD
ENDROOT
BRANCH   3  22
ATOM     22  S   SKF d          29.171  45.031  20.148  0.00  0.00     0.256 S 
ATOM     23  O1  SKF d          30.116  44.158  20.811  0.00  0.00    -0.201 OA
ATOM     24  O2  SKF d          28.061  45.274  21.032  0.00  0.00    -0.201 OA
BRANCH  22  25
ATOM     25  N   SKF d          29.876  46.408  19.840  0.00  0.00    -0.324 N 
ATOM     26  H4  SKF d          29.873  46.773  18.910  0.00  0.00     0.169 HD
ATOM     27  H5  SKF d          30.324  46.914  20.575  0.00  0.00     0.169 HD
ENDBRANCH  22  25
ENDBRANCH   3  22
TORSDOF 2
ENDMDL
