MODEL 1
REMARK VINA RESULT:      -8.8      0.000      0.000
REMARK  3 active torsions:
REMARK  status: ('A' for Active; 'I' for Inactive)
REMARK    1  A    between atoms: C2_2  and  C22_10 
REMARK    2  A    between atoms: C6_6  and  N1_12 
REMARK    3  A    between atoms: C22_10  and  O22_9 
ROOT
ATOM      1  C1  HNT d          28.069  45.465  18.397  0.00  0.00    -0.012 C 
ATOM      2  C2  HNT d          27.492  44.734  19.611  0.00  0.00     0.126 C 
ATOM      3  C4  HNT d          27.137  42.600  18.483  0.00  0.00     0.106 C 
ATOM      4  C5  HNT d          26.821  42.757  15.998  0.00  0.00    -0.043 A 
ATOM      5  C6  HNT d          26.853  43.431  14.782  0.00  0.00     0.103 A 
ATOM      6  C7  HNT d          27.273  44.758  14.749  0.00  0.00    -0.050 A 
ATOM      7  C8  HNT d          27.663  45.398  15.922  0.00  0.00    -0.074 A 
ATOM      8  C8A HNT d          27.632  44.719  17.134  0.00  0.00    -0.048 A 
ATOM      9  C4A HNT d          27.209  43.394  17.176  0.00  0.00    -0.024 A 
ATOM     10  N41 HNT d          27.849  43.307  19.561  0.00  0.00    -0.065 N 
ATOM     11  H1  HNT d          29.167  45.481  18.460  0.00  0.00     0.043 H 
ATOM     12  H2  HNT d          27.688  46.497  18.370  0.00  0.00     0.043 H 
ATOM     13  H3  HNT d          26.395  44.812  19.571  0.00  0.00     0.088 H 
ATOM     14  H4  HNT d          27.600  41.614  18.332  0.00  0.00     0.083 H 
ATOM     15  H5  HNT d          26.083  42.472  18.769  0.00  0.00     0.083 H 
ATOM     16  H6  HNT d          26.491  41.725  16.030  0.00  0.00     0.088 H 
ATOM     17  H7  HNT d          27.297  45.294  13.807  0.00  0.00     0.087 H 
ATOM     18  H8  HNT d          27.991  46.431  15.890  0.00  0.00     0.084 H 
ATOM     19  H12 HNT d          27.611  42.881  20.443  0.00  0.00     0.278 HD
ATOM     20  H13 HNT d          28.841  43.224  19.405  0.00  0.00     0.278 HD
ENDROOT
BRANCH   2  21
ATOM     21  C22 HNT d          27.965  45.391  20.910  0.00  0.00     0.044 C 
ATOM     22  H10 HNT d          27.954  46.484  20.794  0.00  0.00     0.077 H 
ATOM     23  H11 HNT d          28.988  45.056  21.138  0.00  0.00     0.077 H 
BRANCH  21  24
ATOM     24  O22 HNT d          27.091  45.016  21.977  0.00  0.00    -0.399 OA
ATOM     25  H9  HNT d          27.301  45.526  22.751  0.00  0.00     0.209 HD
ENDBRANCH  21  24
ENDBRANCH   2  21
BRANCH   5  26
ATOM     26  N1  HNT d          26.544  42.799  13.650  0.00  0.00    -0.116 N 
ATOM     27  O2  HNT d          26.649  41.385  13.557  0.00  0.00    -0.532 OA
ATOM     28  O3  HNT d          26.102  43.534  12.517  0.00  0.00    -0.532 OA
ENDBRANCH   5  26
TORSDOF 3
ENDMDL
MODEL 2
REMARK VINA RESULT:      -7.7      1.041      1.924
REMARK  3 active torsions:
REMARK  status: ('A' for Active; 'I' for Inactive)
REMARK    1  A    between atoms: C2_2  and  C22_10 
REMARK    2  A    between atoms: C6_6  and  N1_12 
REMARK    3  A    between atoms: C22_10  and  O22_9 
ROOT
ATOM      1  C1  HNT d          27.078  43.627  19.243  0.00  0.00    -0.012 C 
ATOM      2  C2  HNT d          28.140  44.699  19.494  0.00  0.00     0.126 C 
ATOM      3  C4  HNT d          28.076  45.658  17.252  0.00  0.00     0.106 C 
ATOM      4  C5  HNT d          27.312  44.086  15.450  0.00  0.00    -0.043 A 
ATOM      5  C6  HNT d          26.745  42.902  14.994  0.00  0.00     0.103 A 
ATOM      6  C7  HNT d          26.295  41.962  15.917  0.00  0.00    -0.050 A 
ATOM      7  C8  HNT d          26.409  42.212  17.282  0.00  0.00    -0.074 A 
ATOM      8  C8A HNT d          26.974  43.399  17.733  0.00  0.00    -0.048 A 
ATOM      9  C4A HNT d          27.430  44.341  16.816  0.00  0.00    -0.024 A 
ATOM     10  N41 HNT d          27.855  45.897  18.689  0.00  0.00    -0.065 N 
ATOM     11  H1  HNT d          26.108  43.966  19.636  0.00  0.00     0.043 H 
ATOM     12  H2  HNT d          27.369  42.692  19.741  0.00  0.00     0.043 H 
ATOM     13  H3  HNT d          29.115  44.299  19.176  0.00  0.00     0.088 H 
ATOM     14  H4  HNT d          27.634  46.485  16.677  0.00  0.00     0.083 H 
ATOM     15  H5  HNT d          29.157  45.611  17.056  0.00  0.00     0.083 H 
ATOM     16  H6  HNT d          27.668  44.821  14.736  0.00  0.00     0.088 H 
ATOM     17  H7  HNT d          25.856  41.033  15.572  0.00  0.00     0.087 H 
ATOM     18  H8  HNT d          26.055  41.477  17.996  0.00  0.00     0.084 H 
ATOM     19  H12 HNT d          28.459  46.645  18.992  0.00  0.00     0.278 HD
ATOM     20  H13 HNT d          26.893  46.163  18.830  0.00  0.00     0.278 HD
ENDROOT
BRANCH   2  21
ATOM     21  C22 HNT d          28.230  45.028  20.986  0.00  0.00     0.044 C 
ATOM     22  H10 HNT d          28.761  45.982  21.120  0.00  0.00     0.077 H 
ATOM     23  H11 HNT d          28.778  44.228  21.506  0.00  0.00     0.077 H 
BRANCH  21  24
ATOM     24  O22 HNT d          26.913  45.136  21.529  0.00  0.00    -0.399 OA
ATOM     25  H9  HNT d          26.274  45.006  20.838  0.00  0.00     0.209 HD
ENDBRANCH  21  24
ENDBRANCH   2  21
BRANCH   5  26
ATOM     26  N1  HNT d          26.575  42.692  13.689  0.00  0.00    -0.116 N 
ATOM     27  O2  HNT d          26.692  41.385  13.144  0.00  0.00    -0.532 OA
ATOM     28  O3  HNT d          26.271  43.775  12.822  0.00  0.00    -0.532 OA
ENDBRANCH   5  26
TORSDOF 3
ENDMDL
MODEL 3
REMARK VINA RESULT:      -7.3      1.349      6.000
REMARK  3 active torsions:
REMARK  status: ('A' for Active; 'I' for Inactive)
REMARK    1  A    between atoms: C2_2  and  C22_10 
REMARK    2  A    between atoms: C6_6  and  N1_12 
REMARK    3  A    between atoms: C22_10  and  O22_9 
ROOT
ATOM      1  C1  HNT d          26.742  42.538  15.686  0.00  0.00    -0.012 C 
ATOM      2  C2  HNT d          26.391  43.473  14.527  0.00  0.00     0.126 C 
ATOM      3  C4  HNT d          27.574  45.421  15.399  0.00  0.00     0.106 C 
ATOM      4  C5  HNT d          27.850  45.462  17.893  0.00  0.00    -0.043 A 
ATOM      5  C6  HNT d          27.802  44.886  19.157  0.00  0.00     0.103 A 
ATOM      6  C7  HNT d          27.406  43.557  19.287  0.00  0.00    -0.050 A 
ATOM      7  C8  HNT d          27.069  42.815  18.158  0.00  0.00    -0.074 A 
ATOM      8  C8A HNT d          27.123  43.394  16.896  0.00  0.00    -0.048 A 
ATOM      9  C4A HNT d          27.513  44.723  16.760  0.00  0.00    -0.024 A 
ATOM     10  N41 HNT d          27.480  44.438  14.305  0.00  0.00    -0.065 N 
ATOM     11  H1  HNT d          27.589  41.897  15.402  0.00  0.00     0.043 H 
ATOM     12  H2  HNT d          25.874  41.910  15.933  0.00  0.00     0.043 H 
ATOM     13  H3  HNT d          25.487  44.037  14.802  0.00  0.00     0.088 H 
ATOM     14  H4  HNT d          28.527  45.964  15.314  0.00  0.00     0.083 H 
ATOM     15  H5  HNT d          26.738  46.131  15.320  0.00  0.00     0.083 H 
ATOM     16  H6  HNT d          28.154  46.497  17.787  0.00  0.00     0.088 H 
ATOM     17  H7  HNT d          27.360  43.100  20.269  0.00  0.00     0.087 H 
ATOM     18  H8  HNT d          26.764  41.780  18.265  0.00  0.00     0.084 H 
ATOM     19  H12 HNT d          27.309  44.928  13.441  0.00  0.00     0.278 HD
ATOM     20  H13 HNT d          28.352  43.938  14.242  0.00  0.00     0.278 HD
ENDROOT
BRANCH   2  21
ATOM     21  C22 HNT d          26.081  42.670  13.262  0.00  0.00     0.044 C 
ATOM     22  H10 HNT d          26.470  43.204  12.383  0.00  0.00     0.077 H 
ATOM     23  H11 HNT d          24.992  42.547  13.164  0.00  0.00     0.077 H 
BRANCH  21  24
ATOM     24  O22 HNT d          26.699  41.385  13.351  0.00  0.00    -0.399 OA
ATOM     25  H9  HNT d          26.378  40.830  12.650  0.00  0.00     0.209 HD
ENDBRANCH  21  24
ENDBRANCH   2  21
BRANCH   5  26
ATOM     26  N1  HNT d          28.188  45.576  20.231  0.00  0.00    -0.116 N 
ATOM     27  O2  HNT d          28.964  46.758  20.092  0.00  0.00    -0.532 OA
ATOM     28  O3  HNT d          27.824  45.138  21.533  0.00  0.00    -0.532 OA
ENDBRANCH   5  26
TORSDOF 3
ENDMDL
MODEL 4
REMARK VINA RESULT:      -7.1      1.615      5.686
REMARK  3 active torsions:
REMARK  status: ('A' for Active; 'I' for Inactive)
REMARK    1  A    between atoms: C2_2  and  C22_10 
REMARK    2  A    between atoms: C6_6  and  N1_12 
REMARK    3  A    between atoms: C22_10  and  O22_9 
ROOT
ATOM      1  C1  HNT d          26.941  43.517  15.245  0.00  0.00    -0.012 C 
ATOM      2  C2  HNT d          26.856  41.993  15.350  0.00  0.00     0.126 C 
ATOM      3  C4  HNT d          26.518  41.918  17.765  0.00  0.00     0.106 C 
ATOM      4  C5  HNT d          27.433  43.887  19.023  0.00  0.00    -0.043 A 
ATOM      5  C6  HNT d          27.971  45.166  19.106  0.00  0.00     0.103 A 
ATOM      6  C7  HNT d          28.176  45.897  17.939  0.00  0.00    -0.050 A 
ATOM      7  C8  HNT d          27.837  45.352  16.704  0.00  0.00    -0.074 A 
ATOM      8  C8A HNT d          27.296  44.074  16.626  0.00  0.00    -0.048 A 
ATOM      9  C4A HNT d          27.094  43.336  17.789  0.00  0.00    -0.024 A 
ATOM     10  N41 HNT d          25.948  41.609  16.442  0.00  0.00    -0.065 N 
ATOM     11  H1  HNT d          25.973  43.922  14.918  0.00  0.00     0.043 H 
ATOM     12  H2  HNT d          27.719  43.796  14.521  0.00  0.00     0.043 H 
ATOM     13  H3  HNT d          27.858  41.607  15.588  0.00  0.00     0.088 H 
ATOM     14  H4  HNT d          25.728  41.835  18.526  0.00  0.00     0.083 H 
ATOM     15  H5  HNT d          27.320  41.199  17.989  0.00  0.00     0.083 H 
ATOM     16  H6  HNT d          27.276  43.312  19.928  0.00  0.00     0.088 H 
ATOM     17  H7  HNT d          28.599  46.894  17.992  0.00  0.00     0.087 H 
ATOM     18  H8  HNT d          27.997  45.926  15.798  0.00  0.00     0.084 H 
ATOM     19  H12 HNT d          25.772  40.617  16.386  0.00  0.00     0.278 HD
ATOM     20  H13 HNT d          25.080  42.110  16.337  0.00  0.00     0.278 HD
ENDROOT
BRANCH   2  21
ATOM     21  C22 HNT d          26.422  41.385  14.014  0.00  0.00     0.044 C 
ATOM     22  H10 HNT d          25.340  41.190  14.033  0.00  0.00     0.077 H 
ATOM     23  H11 HNT d          26.963  40.441  13.848  0.00  0.00     0.077 H 
BRANCH  21  24
ATOM     24  O22 HNT d          26.723  42.299  12.956  0.00  0.00    -0.399 OA
ATOM     25  H9  HNT d          27.414  42.888  13.235  0.00  0.00     0.209 HD
ENDBRANCH  21  24
ENDBRANCH   2  21
BRANCH   5  26
ATOM     26  N1  HNT d          28.233  45.714  20.293  0.00  0.00    -0.116 N 
ATOM     27  O2  HNT d          29.029  46.887  20.389  0.00  0.00    -0.532 OA
ATOM     28  O3  HNT d          27.715  45.132  21.481  0.00  0.00    -0.532 OA
ENDBRANCH   5  26
TORSDOF 3
ENDMDL
