MODEL 1
REMARK VINA RESULT:      -8.4      0.000      0.000
REMARK  6 active torsions:
REMARK  status: ('A' for Active; 'I' for Inactive)
REMARK    1  A    between atoms: CAX_6  and  CAW_7 
REMARK       I    between atoms: CAW_7  and  NAR_9 
REMARK    2  A    between atoms: CAO_16  and  CAN_18 
REMARK    3  A    between atoms: CAN_18  and  CAL_19 
REMARK    4  A    between atoms: CAL_19  and  NAM_20 
REMARK    5  A    between atoms: CAL_19  and  CAK_21 
REMARK    6  A    between atoms: CAK_21  and  CAG_22 
ROOT
ATOM      1  CAW KR2 d          -4.302   2.405  -7.405  0.00  0.00     0.250 C 
ATOM      2  OAA KR2 d          -2.879   2.239  -7.429  0.00  0.00    -0.199 OA
ATOM      3  NAR KR2 d          -4.683   3.792  -7.086  0.00  0.00    -0.181 NA
ATOM      4  CAV KR2 d          -5.277   4.419  -8.278  0.00  0.00     0.001 C 
ATOM      5  CDD KR2 d          -4.761   5.827  -8.583  0.00  0.00    -0.052 C 
ATOM      6  CNN KR2 d          -3.331   5.839  -9.130  0.00  0.00    -0.062 C 
ATOM      7  CAT KR2 d          -2.265   5.824  -8.029  0.00  0.00    -0.049 C 
ATOM      8  CAS KR2 d          -2.293   4.552  -7.175  0.00  0.00     0.013 C 
ATOM      9  NAQ KR2 d          -3.608   4.410  -6.526  0.00  0.00    -0.288 N 
ATOM     10  CAO KR2 d          -3.906   5.126  -5.448  0.00  0.00     0.170 C 
ATOM     11  OAP KR2 d          -5.178   5.410  -5.067  0.00  0.00    -0.176 OA
ATOM     12  H6  KR2 d          -6.365   4.479  -8.128  0.00  0.00     0.058 H 
ATOM     13  H7  KR2 d          -5.062   3.779  -9.146  0.00  0.00     0.058 H 
ATOM     14  H8  KR2 d          -4.785   6.417  -7.655  0.00  0.00     0.034 H 
ATOM     15  H9  KR2 d          -5.424   6.288  -9.329  0.00  0.00     0.034 H 
ATOM     16  H10 KR2 d          -3.196   6.747  -9.736  0.00  0.00     0.033 H 
ATOM     17  H11 KR2 d          -3.192   4.950  -9.764  0.00  0.00     0.033 H 
ATOM     18  H12 KR2 d          -2.431   6.690  -7.371  0.00  0.00     0.035 H 
ATOM     19  H13 KR2 d          -1.275   5.906  -8.501  0.00  0.00     0.035 H 
ATOM     20  H14 KR2 d          -1.510   4.613  -6.404  0.00  0.00     0.066 H 
ATOM     21  H15 KR2 d          -2.107   3.678  -7.817  0.00  0.00     0.066 H 
ENDROOT
BRANCH  10  22
ATOM     22  CAN KR2 d          -2.775   5.745  -4.630  0.00  0.00     0.025 C 
ATOM     23  H16 KR2 d          -2.472   6.696  -5.093  0.00  0.00     0.048 H 
ATOM     24  H17 KR2 d          -1.918   5.055  -4.616  0.00  0.00     0.048 H 
BRANCH  22  25
ATOM     25  CAL KR2 d          -3.238   6.006  -3.197  0.00  0.00     0.111 C 
ATOM     26  H18 KR2 d          -4.116   6.668  -3.215  0.00  0.00     0.085 H 
BRANCH  25  27
ATOM     27  NAM KR2 d          -2.095   6.614  -2.502  0.00  0.00    -0.074 N 
ATOM     28  H19 KR2 d          -2.348   6.808  -1.546  0.00  0.00     0.274 HD
ATOM     29  H20 KR2 d          -1.839   7.473  -2.962  0.00  0.00     0.274 HD
ATOM     30  H21 KR2 d          -1.313   5.977  -2.520  0.00  0.00     0.274 HD
ENDBRANCH  25  27
BRANCH  25  31
ATOM     31  CAK KR2 d          -3.521   4.783  -2.327  0.00  0.00    -0.011 C 
ATOM     32  H22 KR2 d          -2.618   4.156  -2.364  0.00  0.00     0.043 H 
ATOM     33  H23 KR2 d          -4.358   4.249  -2.801  0.00  0.00     0.043 H 
BRANCH  31  34
ATOM     34  CAG KR2 d          -3.851   4.919  -0.982  0.00  0.00    -0.015 A 
ATOM     35  CAH KR2 d          -4.879   5.763  -0.593  0.00  0.00    -0.034 A 
ATOM     36  CAC KR2 d          -5.088   6.100   0.743  0.00  0.00     0.155 A 
ATOM     37  H24 KR2 d          -5.539   6.174  -1.348  0.00  0.00     0.089 H 
ATOM     38  FAB KR2 d          -6.197   6.789   1.067  0.00  0.00    -0.203 F 
ATOM     39  CAD KR2 d          -4.224   5.594   1.709  0.00  0.00     0.157 A 
ATOM     40  FAI KR2 d          -4.133   6.148   2.934  0.00  0.00    -0.203 F 
ATOM     41  CAE KR2 d          -3.249   4.681   1.332  0.00  0.00    -0.005 A 
ATOM     42  CAF KR2 d          -3.063   4.325   0.000  0.00  0.00     0.125 A 
ATOM     43  H25 KR2 d          -2.619   4.234   2.092  0.00  0.00     0.093 H 
ATOM     44  FAJ KR2 d          -2.055   3.486  -0.293  0.00  0.00    -0.205 F 
ENDBRANCH  31  34
ENDBRANCH  25  31
ENDBRANCH  22  25
ENDBRANCH  10  22
BRANCH   1  45
ATOM     45  CAX KR2 d          -4.866   1.605  -6.225  0.00  0.00     0.001 A 
ATOM     46  CAY KR2 d          -6.219   1.276  -6.195  0.00  0.00    -0.072 A 
ATOM     47  CBC KR2 d          -6.791   0.782  -5.025  0.00  0.00    -0.082 A 
ATOM     48  H1  KR2 d          -6.828   1.405  -7.083  0.00  0.00     0.084 H 
ATOM     49  CBB KR2 d          -6.009   0.614  -3.884  0.00  0.00    -0.083 A 
ATOM     50  H2  KR2 d          -7.845   0.529  -5.002  0.00  0.00     0.083 H 
ATOM     51  CBA KR2 d          -4.653   0.931  -3.919  0.00  0.00    -0.082 A 
ATOM     52  H3  KR2 d          -6.456   0.238  -2.971  0.00  0.00     0.083 H 
ATOM     53  CAZ KR2 d          -4.081   1.421  -5.090  0.00  0.00    -0.072 A 
ATOM     54  H4  KR2 d          -4.043   0.796  -3.033  0.00  0.00     0.083 H 
ATOM     55  H5  KR2 d          -3.023   1.658  -5.118  0.00  0.00     0.084 H 
ENDBRANCH   1  45
TORSDOF 6
ENDMDL
