MODEL 1
REMARK VINA RESULT:      -7.6      0.000      0.000
REMARK  6 active torsions:
REMARK  status: ('A' for Active; 'I' for Inactive)
REMARK    1  A    between atoms: CAX_6  and  CAW_7 
REMARK       I    between atoms: CAW_7  and  NAR_9 
REMARK    2  A    between atoms: CAO_16  and  CAN_18 
REMARK    3  A    between atoms: CAN_18  and  CAL_19 
REMARK    4  A    between atoms: CAL_19  and  NAM_20 
REMARK    5  A    between atoms: CAL_19  and  CAK_21 
REMARK    6  A    between atoms: CAK_21  and  CAG_22 
ROOT
ATOM      1  CAW KR2 d          -3.832   4.427  -8.456  0.00  0.00     0.250 C 
ATOM      2  OAA KR2 d          -5.113   3.787  -8.448  0.00  0.00    -0.199 OA
ATOM      3  NAR KR2 d          -2.812   3.612  -7.774  0.00  0.00    -0.181 NA
ATOM      4  CAV KR2 d          -1.848   3.109  -8.766  0.00  0.00     0.001 C 
ATOM      5  CDD KR2 d          -1.502   1.625  -8.626  0.00  0.00    -0.052 C 
ATOM      6  CNN KR2 d          -2.637   0.698  -9.067  0.00  0.00    -0.062 C 
ATOM      7  CAT KR2 d          -3.663   0.433  -7.960  0.00  0.00    -0.049 C 
ATOM      8  CAS KR2 d          -4.409   1.694  -7.509  0.00  0.00     0.013 C 
ATOM      9  NAQ KR2 d          -3.450   2.691  -7.001  0.00  0.00    -0.288 N 
ATOM     10  CAO KR2 d          -2.940   2.572  -5.781  0.00  0.00     0.170 C 
ATOM     11  OAP KR2 d          -1.762   3.133  -5.405  0.00  0.00    -0.176 OA
ATOM     12  H6  KR2 d          -0.918   3.689  -8.665  0.00  0.00     0.058 H 
ATOM     13  H7  KR2 d          -2.271   3.269  -9.768  0.00  0.00     0.058 H 
ATOM     14  H8  KR2 d          -1.272   1.418  -7.570  0.00  0.00     0.034 H 
ATOM     15  H9  KR2 d          -0.617   1.413  -9.243  0.00  0.00     0.034 H 
ATOM     16  H10 KR2 d          -2.202  -0.264  -9.378  0.00  0.00     0.033 H 
ATOM     17  H11 KR2 d          -3.155   1.160  -9.921  0.00  0.00     0.033 H 
ATOM     18  H12 KR2 d          -3.138   0.009  -7.091  0.00  0.00     0.035 H 
ATOM     19  H13 KR2 d          -4.400  -0.293  -8.333  0.00  0.00     0.035 H 
ATOM     20  H14 KR2 d          -5.119   1.432  -6.711  0.00  0.00     0.066 H 
ATOM     21  H15 KR2 d          -4.957   2.118  -8.363  0.00  0.00     0.066 H 
ENDROOT
BRANCH  10  22
ATOM     22  CAN KR2 d          -3.652   1.690  -4.760  0.00  0.00     0.025 C 
ATOM     23  H16 KR2 d          -2.921   1.016  -4.290  0.00  0.00     0.048 H 
ATOM     24  H17 KR2 d          -4.425   1.094  -5.271  0.00  0.00     0.048 H 
BRANCH  22  25
ATOM     25  CAL KR2 d          -4.310   2.551  -3.682  0.00  0.00     0.111 C 
ATOM     26  H18 KR2 d          -4.374   1.975  -2.747  0.00  0.00     0.085 H 
BRANCH  25  27
ATOM     27  NAM KR2 d          -5.634   2.919  -4.202  0.00  0.00    -0.074 N 
ATOM     28  H19 KR2 d          -5.566   3.109  -5.190  0.00  0.00     0.274 HD
ATOM     29  H20 KR2 d          -5.967   3.741  -3.724  0.00  0.00     0.274 HD
ATOM     30  H21 KR2 d          -6.278   2.158  -4.050  0.00  0.00     0.274 HD
ENDBRANCH  25  27
BRANCH  25  31
ATOM     31  CAK KR2 d          -3.687   3.920  -3.412  0.00  0.00    -0.011 C 
ATOM     32  H22 KR2 d          -4.180   4.628  -4.095  0.00  0.00     0.043 H 
ATOM     33  H23 KR2 d          -2.622   3.836  -3.677  0.00  0.00     0.043 H 
BRANCH  31  34
ATOM     34  CAG KR2 d          -3.735   4.494  -2.146  0.00  0.00    -0.015 A 
ATOM     35  CAH KR2 d          -2.895   4.046  -1.139  0.00  0.00    -0.034 A 
ATOM     36  CAC KR2 d          -3.068   4.432   0.189  0.00  0.00     0.155 A 
ATOM     37  H24 KR2 d          -2.081   3.377  -1.390  0.00  0.00     0.089 H 
ATOM     38  FAB KR2 d          -2.125   4.094   1.086  0.00  0.00    -0.203 F 
ATOM     39  CAD KR2 d          -4.131   5.269   0.514  0.00  0.00     0.157 A 
ATOM     40  FAI KR2 d          -4.575   5.386   1.781  0.00  0.00    -0.203 F 
ATOM     41  CAE KR2 d          -4.919   5.788  -0.504  0.00  0.00    -0.005 A 
ATOM     42  CAF KR2 d          -4.724   5.423  -1.832  0.00  0.00     0.125 A 
ATOM     43  H25 KR2 d          -5.705   6.494  -0.259  0.00  0.00     0.093 H 
ATOM     44  FAJ KR2 d          -5.570   5.915  -2.752  0.00  0.00    -0.205 F 
ENDBRANCH  31  34
ENDBRANCH  25  31
ENDBRANCH  22  25
ENDBRANCH  10  22
BRANCH   1  45
ATOM     45  CAX KR2 d          -3.912   5.688  -7.588  0.00  0.00     0.001 A 
ATOM     46  CAY KR2 d          -3.052   6.756  -7.835  0.00  0.00    -0.072 A 
ATOM     47  CBC KR2 d          -2.937   7.789  -6.908  0.00  0.00    -0.082 A 
ATOM     48  H1  KR2 d          -2.472   6.782  -8.750  0.00  0.00     0.084 H 
ATOM     49  CBB KR2 d          -3.685   7.757  -5.733  0.00  0.00    -0.083 A 
ATOM     50  H2  KR2 d          -2.266   8.617  -7.101  0.00  0.00     0.083 H 
ATOM     51  CBA KR2 d          -4.555   6.695  -5.492  0.00  0.00    -0.082 A 
ATOM     52  H3  KR2 d          -3.590   8.556  -5.007  0.00  0.00     0.083 H 
ATOM     53  CAZ KR2 d          -4.672   5.665  -6.421  0.00  0.00    -0.072 A 
ATOM     54  H4  KR2 d          -5.141   6.672  -4.580  0.00  0.00     0.083 H 
ATOM     55  H5  KR2 d          -5.357   4.844  -6.236  0.00  0.00     0.084 H 
ENDBRANCH   1  45
TORSDOF 6
ENDMDL
MODEL 2
REMARK VINA RESULT:      -7.3      1.558      4.223
REMARK  6 active torsions:
REMARK  status: ('A' for Active; 'I' for Inactive)
REMARK    1  A    between atoms: CAX_6  and  CAW_7 
REMARK       I    between atoms: CAW_7  and  NAR_9 
REMARK    2  A    between atoms: CAO_16  and  CAN_18 
REMARK    3  A    between atoms: CAN_18  and  CAL_19 
REMARK    4  A    between atoms: CAL_19  and  NAM_20 
REMARK    5  A    between atoms: CAL_19  and  CAK_21 
REMARK    6  A    between atoms: CAK_21  and  CAG_22 
ROOT
ATOM      1  CAW KR2 d          -1.948   4.027  -8.524  0.00  0.00     0.250 C 
ATOM      2  OAA KR2 d          -1.130   4.751  -7.598  0.00  0.00    -0.199 OA
ATOM      3  NAR KR2 d          -3.256   4.676  -8.717  0.00  0.00    -0.181 NA
ATOM      4  CAV KR2 d          -3.329   5.229 -10.080  0.00  0.00     0.001 C 
ATOM      5  CDD KR2 d          -3.876   6.655 -10.161  0.00  0.00    -0.052 C 
ATOM      6  CNN KR2 d          -2.893   7.709  -9.646  0.00  0.00    -0.062 C 
ATOM      7  CAT KR2 d          -2.962   7.906  -8.128  0.00  0.00    -0.049 C 
ATOM      8  CAS KR2 d          -2.567   6.654  -7.336  0.00  0.00     0.013 C 
ATOM      9  NAQ KR2 d          -3.461   5.536  -7.683  0.00  0.00    -0.288 N 
ATOM     10  CAO KR2 d          -4.681   5.465  -7.163  0.00  0.00     0.170 C 
ATOM     11  OAP KR2 d          -5.701   4.779  -7.740  0.00  0.00    -0.176 OA
ATOM     12  H6  KR2 d          -3.980   4.577 -10.680  0.00  0.00     0.058 H 
ATOM     13  H7  KR2 d          -2.315   5.226 -10.506  0.00  0.00     0.058 H 
ATOM     14  H8  KR2 d          -4.796   6.712  -9.560  0.00  0.00     0.034 H 
ATOM     15  H9  KR2 d          -4.111   6.880 -11.212  0.00  0.00     0.034 H 
ATOM     16  H10 KR2 d          -3.121   8.669 -10.134  0.00  0.00     0.033 H 
ATOM     17  H11 KR2 d          -1.872   7.395  -9.913  0.00  0.00     0.033 H 
ATOM     18  H12 KR2 d          -3.992   8.179  -7.858  0.00  0.00     0.035 H 
ATOM     19  H13 KR2 d          -2.280   8.723  -7.850  0.00  0.00     0.035 H 
ATOM     20  H14 KR2 d          -2.647   6.864  -6.259  0.00  0.00     0.066 H 
ATOM     21  H15 KR2 d          -1.530   6.381  -7.580  0.00  0.00     0.066 H 
ENDROOT
BRANCH  10  22
ATOM     22  CAN KR2 d          -4.999   6.261  -5.900  0.00  0.00     0.025 C 
ATOM     23  H16 KR2 d          -6.048   6.591  -5.934  0.00  0.00     0.048 H 
ATOM     24  H17 KR2 d          -4.339   7.140  -5.850  0.00  0.00     0.048 H 
BRANCH  22  25
ATOM     25  CAL KR2 d          -4.782   5.396  -4.659  0.00  0.00     0.111 C 
ATOM     26  H18 KR2 d          -4.432   4.400  -4.969  0.00  0.00     0.085 H 
BRANCH  25  27
ATOM     27  NAM KR2 d          -6.076   5.342  -3.965  0.00  0.00    -0.074 N 
ATOM     28  H19 KR2 d          -5.933   5.479  -2.977  0.00  0.00     0.274 HD
ATOM     29  H20 KR2 d          -6.504   4.444  -4.121  0.00  0.00     0.274 HD
ATOM     30  H21 KR2 d          -6.678   6.068  -4.321  0.00  0.00     0.274 HD
ENDBRANCH  25  27
BRANCH  25  31
ATOM     31  CAK KR2 d          -3.866   5.959  -3.573  0.00  0.00    -0.011 C 
ATOM     32  H22 KR2 d          -4.163   7.008  -3.427  0.00  0.00     0.043 H 
ATOM     33  H23 KR2 d          -2.843   5.920  -3.977  0.00  0.00     0.043 H 
BRANCH  31  34
ATOM     34  CAG KR2 d          -3.813   5.383  -2.308  0.00  0.00    -0.015 A 
ATOM     35  CAH KR2 d          -4.226   6.096  -1.193  0.00  0.00    -0.034 A 
ATOM     36  CAC KR2 d          -3.978   5.645   0.101  0.00  0.00     0.155 A 
ATOM     37  H24 KR2 d          -4.757   7.030  -1.332  0.00  0.00     0.089 H 
ATOM     38  FAB KR2 d          -4.546   6.299   1.131  0.00  0.00    -0.203 F 
ATOM     39  CAD KR2 d          -3.272   4.459   0.278  0.00  0.00     0.157 A 
ATOM     40  FAI KR2 d          -2.687   4.155   1.453  0.00  0.00    -0.203 F 
ATOM     41  CAE KR2 d          -2.935   3.701  -0.834  0.00  0.00    -0.005 A 
ATOM     42  CAF KR2 d          -3.211   4.141  -2.125  0.00  0.00     0.125 A 
ATOM     43  H25 KR2 d          -2.445   2.744  -0.695  0.00  0.00     0.093 H 
ATOM     44  FAJ KR2 d          -2.794   3.383  -3.152  0.00  0.00    -0.205 F 
ENDBRANCH  31  34
ENDBRANCH  25  31
ENDBRANCH  22  25
ENDBRANCH  10  22
BRANCH   1  45
ATOM     45  CAX KR2 d          -2.314   2.676  -7.899  0.00  0.00     0.001 A 
ATOM     46  CAY KR2 d          -2.762   1.636  -8.710  0.00  0.00    -0.072 A 
ATOM     47  CBC KR2 d          -3.336   0.503  -8.138  0.00  0.00    -0.082 A 
ATOM     48  H1  KR2 d          -2.663   1.708  -9.787  0.00  0.00     0.084 H 
ATOM     49  CBB KR2 d          -3.461   0.408  -6.753  0.00  0.00    -0.083 A 
ATOM     50  H2  KR2 d          -3.686  -0.305  -8.770  0.00  0.00     0.083 H 
ATOM     51  CBA KR2 d          -3.001   1.443  -5.943  0.00  0.00    -0.082 A 
ATOM     52  H3  KR2 d          -3.915  -0.469  -6.308  0.00  0.00     0.083 H 
ATOM     53  CAZ KR2 d          -2.423   2.574  -6.515  0.00  0.00    -0.072 A 
ATOM     54  H4  KR2 d          -3.093   1.369  -4.865  0.00  0.00     0.083 H 
ATOM     55  H5  KR2 d          -2.058   3.374  -5.881  0.00  0.00     0.084 H 
ENDBRANCH   1  45
TORSDOF 6
ENDMDL
MODEL 3
REMARK VINA RESULT:      -7.0      1.935      2.598
REMARK  6 active torsions:
REMARK  status: ('A' for Active; 'I' for Inactive)
REMARK    1  A    between atoms: CAX_6  and  CAW_7 
REMARK       I    between atoms: CAW_7  and  NAR_9 
REMARK    2  A    between atoms: CAO_16  and  CAN_18 
REMARK    3  A    between atoms: CAN_18  and  CAL_19 
REMARK    4  A    between atoms: CAL_19  and  NAM_20 
REMARK    5  A    between atoms: CAL_19  and  CAK_21 
REMARK    6  A    between atoms: CAK_21  and  CAG_22 
ROOT
ATOM      1  CAW KR2 d          -4.504   4.759  -9.324  0.00  0.00     0.250 C 
ATOM      2  OAA KR2 d          -5.538   4.791  -8.333  0.00  0.00    -0.199 OA
ATOM      3  NAR KR2 d          -3.319   4.025  -8.850  0.00  0.00    -0.181 NA
ATOM      4  CAV KR2 d          -3.190   2.768  -9.606  0.00  0.00     0.001 C 
ATOM      5  CDD KR2 d          -2.899   1.535  -8.749  0.00  0.00    -0.052 C 
ATOM      6  CNN KR2 d          -4.106   1.071  -7.929  0.00  0.00    -0.062 C 
ATOM      7  CAT KR2 d          -4.247   1.809  -6.594  0.00  0.00    -0.049 C 
ATOM      8  CAS KR2 d          -4.501   3.312  -6.755  0.00  0.00     0.013 C 
ATOM      9  NAQ KR2 d          -3.389   3.934  -7.494  0.00  0.00    -0.288 N 
ATOM     10  CAO KR2 d          -2.243   4.206  -6.881  0.00  0.00     0.170 C 
ATOM     11  OAP KR2 d          -1.059   4.335  -7.532  0.00  0.00    -0.176 OA
ATOM     12  H6  KR2 d          -2.370   2.884 -10.329  0.00  0.00     0.058 H 
ATOM     13  H7  KR2 d          -4.132   2.595 -10.146  0.00  0.00     0.058 H 
ATOM     14  H8  KR2 d          -2.078   1.776  -8.056  0.00  0.00     0.034 H 
ATOM     15  H9  KR2 d          -2.590   0.714  -9.411  0.00  0.00     0.034 H 
ATOM     16  H10 KR2 d          -3.997  -0.005  -7.725  0.00  0.00     0.033 H 
ATOM     17  H11 KR2 d          -5.017   1.242  -8.522  0.00  0.00     0.033 H 
ATOM     18  H12 KR2 d          -3.319   1.671  -6.020  0.00  0.00     0.035 H 
ATOM     19  H13 KR2 d          -5.089   1.370  -6.039  0.00  0.00     0.035 H 
ATOM     20  H14 KR2 d          -4.583   3.776  -5.761  0.00  0.00     0.066 H 
ATOM     21  H15 KR2 d          -5.439   3.465  -7.309  0.00  0.00     0.066 H 
ENDROOT
BRANCH  10  22
ATOM     22  CAN KR2 d          -2.217   4.293  -5.357  0.00  0.00     0.025 C 
ATOM     23  H16 KR2 d          -1.177   4.400  -5.018  0.00  0.00     0.048 H 
ATOM     24  H17 KR2 d          -2.649   3.373  -4.934  0.00  0.00     0.048 H 
BRANCH  22  25
ATOM     25  CAL KR2 d          -3.029   5.497  -4.881  0.00  0.00     0.111 C 
ATOM     26  H18 KR2 d          -3.305   6.114  -5.749  0.00  0.00     0.085 H 
BRANCH  25  27
ATOM     27  NAM KR2 d          -2.172   6.220  -3.932  0.00  0.00    -0.074 N 
ATOM     28  H19 KR2 d          -2.621   7.082  -3.663  0.00  0.00     0.274 HD
ATOM     29  H20 KR2 d          -1.286   6.425  -4.368  0.00  0.00     0.274 HD
ATOM     30  H21 KR2 d          -2.021   5.650  -3.114  0.00  0.00     0.274 HD
ENDBRANCH  25  27
BRANCH  25  31
ATOM     31  CAK KR2 d          -4.265   5.207  -4.030  0.00  0.00    -0.011 C 
ATOM     32  H22 KR2 d          -4.780   4.359  -4.505  0.00  0.00     0.043 H 
ATOM     33  H23 KR2 d          -4.902   6.102  -4.089  0.00  0.00     0.043 H 
BRANCH  31  34
ATOM     34  CAG KR2 d          -4.149   4.892  -2.679  0.00  0.00    -0.015 A 
ATOM     35  CAH KR2 d          -4.386   5.855  -1.711  0.00  0.00    -0.034 A 
ATOM     36  CAC KR2 d          -4.061   5.646  -0.372  0.00  0.00     0.155 A 
ATOM     37  H24 KR2 d          -4.836   6.797  -2.002  0.00  0.00     0.089 H 
ATOM     38  FAB KR2 d          -4.466   6.551   0.538  0.00  0.00    -0.203 F 
ATOM     39  CAD KR2 d          -3.459   4.447  -0.004  0.00  0.00     0.157 A 
ATOM     40  FAI KR2 d          -2.797   4.319   1.163  0.00  0.00    -0.203 F 
ATOM     41  CAE KR2 d          -3.301   3.449  -0.956  0.00  0.00    -0.005 A 
ATOM     42  CAF KR2 d          -3.653   3.652  -2.286  0.00  0.00     0.125 A 
ATOM     43  H25 KR2 d          -2.893   2.490  -0.656  0.00  0.00     0.093 H 
ATOM     44  FAJ KR2 d          -3.408   2.662  -3.161  0.00  0.00    -0.205 F 
ENDBRANCH  31  34
ENDBRANCH  25  31
ENDBRANCH  22  25
ENDBRANCH  10  22
BRANCH   1  45
ATOM     45  CAX KR2 d          -3.978   6.185  -9.526  0.00  0.00     0.001 A 
ATOM     46  CAY KR2 d          -3.581   6.605 -10.793  0.00  0.00    -0.072 A 
ATOM     47  CBC KR2 d          -2.870   7.792 -10.944  0.00  0.00    -0.082 A 
ATOM     48  H1  KR2 d          -3.827   6.006 -11.663  0.00  0.00     0.084 H 
ATOM     49  CBB KR2 d          -2.556   8.563  -9.826  0.00  0.00    -0.083 A 
ATOM     50  H2  KR2 d          -2.559   8.116 -11.930  0.00  0.00     0.083 H 
ATOM     51  CBA KR2 d          -2.965   8.150  -8.561  0.00  0.00    -0.082 A 
ATOM     52  H3  KR2 d          -1.995   9.483  -9.942  0.00  0.00     0.083 H 
ATOM     53  CAZ KR2 d          -3.680   6.964  -8.411  0.00  0.00    -0.072 A 
ATOM     54  H4  KR2 d          -2.725   8.751  -7.691  0.00  0.00     0.083 H 
ATOM     55  H5  KR2 d          -4.005   6.649  -7.426  0.00  0.00     0.084 H 
ENDBRANCH   1  45
TORSDOF 6
ENDMDL
MODEL 4
REMARK VINA RESULT:      -6.8      3.530      7.161
REMARK  6 active torsions:
REMARK  status: ('A' for Active; 'I' for Inactive)
REMARK    1  A    between atoms: CAX_6  and  CAW_7 
REMARK       I    between atoms: CAW_7  and  NAR_9 
REMARK    2  A    between atoms: CAO_16  and  CAN_18 
REMARK    3  A    between atoms: CAN_18  and  CAL_19 
REMARK    4  A    between atoms: CAL_19  and  NAM_20 
REMARK    5  A    between atoms: CAL_19  and  CAK_21 
REMARK    6  A    between atoms: CAK_21  and  CAG_22 
ROOT
ATOM      1  CAW KR2 d          -5.315   2.413  -4.545  0.00  0.00     0.250 C 
ATOM      2  OAA KR2 d          -6.426   3.316  -4.592  0.00  0.00    -0.199 OA
ATOM      3  NAR KR2 d          -4.067   3.104  -4.178  0.00  0.00    -0.181 NA
ATOM      4  CAV KR2 d          -3.647   2.670  -2.835  0.00  0.00     0.001 C 
ATOM      5  CDD KR2 d          -3.222   3.805  -1.902  0.00  0.00    -0.052 C 
ATOM      6  CNN KR2 d          -4.398   4.649  -1.404  0.00  0.00    -0.062 C 
ATOM      7  CAT KR2 d          -4.792   5.767  -2.375  0.00  0.00    -0.049 C 
ATOM      8  CAS KR2 d          -5.293   5.246  -3.727  0.00  0.00     0.013 C 
ATOM      9  NAQ KR2 d          -4.246   4.438  -4.376  0.00  0.00    -0.288 N 
ATOM     10  CAO KR2 d          -3.229   5.028  -4.993  0.00  0.00     0.170 C 
ATOM     11  OAP KR2 d          -2.031   4.424  -5.205  0.00  0.00    -0.176 OA
ATOM     12  H6  KR2 d          -2.797   1.982  -2.947  0.00  0.00     0.058 H 
ATOM     13  H7  KR2 d          -4.489   2.139  -2.368  0.00  0.00     0.058 H 
ATOM     14  H8  KR2 d          -2.526   4.462  -2.445  0.00  0.00     0.034 H 
ATOM     15  H9  KR2 d          -2.712   3.369  -1.031  0.00  0.00     0.034 H 
ATOM     16  H10 KR2 d          -4.119   5.104  -0.441  0.00  0.00     0.033 H 
ATOM     17  H11 KR2 d          -5.266   3.988  -1.260  0.00  0.00     0.033 H 
ATOM     18  H12 KR2 d          -3.911   6.402  -2.551  0.00  0.00     0.035 H 
ATOM     19  H13 KR2 d          -5.591   6.365  -1.914  0.00  0.00     0.035 H 
ATOM     20  H14 KR2 d          -5.549   6.099  -4.374  0.00  0.00     0.066 H 
ATOM     21  H15 KR2 d          -6.187   4.626  -3.569  0.00  0.00     0.066 H 
ENDROOT
BRANCH  10  22
ATOM     22  CAN KR2 d          -3.361   6.488  -5.417  0.00  0.00     0.025 C 
ATOM     23  H16 KR2 d          -2.840   7.126  -4.687  0.00  0.00     0.048 H 
ATOM     24  H17 KR2 d          -4.427   6.761  -5.449  0.00  0.00     0.048 H 
BRANCH  22  25
ATOM     25  CAL KR2 d          -2.745   6.698  -6.800  0.00  0.00     0.111 C 
ATOM     26  H18 KR2 d          -2.167   5.804  -7.078  0.00  0.00     0.085 H 
BRANCH  25  27
ATOM     27  NAM KR2 d          -1.902   7.896  -6.696  0.00  0.00    -0.074 N 
ATOM     28  H19 KR2 d          -1.002   7.643  -6.319  0.00  0.00     0.274 HD
ATOM     29  H20 KR2 d          -2.344   8.566  -6.087  0.00  0.00     0.274 HD
ATOM     30  H21 KR2 d          -1.781   8.302  -7.611  0.00  0.00     0.274 HD
ENDBRANCH  25  27
BRANCH  25  31
ATOM     31  CAK KR2 d          -3.697   7.080  -7.932  0.00  0.00    -0.011 C 
ATOM     32  H22 KR2 d          -3.161   7.808  -8.559  0.00  0.00     0.043 H 
ATOM     33  H23 KR2 d          -4.562   7.569  -7.460  0.00  0.00     0.043 H 
BRANCH  31  34
ATOM     34  CAG KR2 d          -4.209   6.117  -8.796  0.00  0.00    -0.015 A 
ATOM     35  CAH KR2 d          -5.214   5.260  -8.377  0.00  0.00    -0.034 A 
ATOM     36  CAC KR2 d          -5.590   4.146  -9.124  0.00  0.00     0.155 A 
ATOM     37  H24 KR2 d          -5.723   5.462  -7.441  0.00  0.00     0.089 H 
ATOM     38  FAB KR2 d          -6.678   3.452  -8.744  0.00  0.00    -0.203 F 
ATOM     39  CAD KR2 d          -4.918   3.874 -10.312  0.00  0.00     0.157 A 
ATOM     40  FAI KR2 d          -4.964   2.655 -10.886  0.00  0.00    -0.203 F 
ATOM     41  CAE KR2 d          -3.972   4.777 -10.776  0.00  0.00    -0.005 A 
ATOM     42  CAF KR2 d          -3.621   5.904 -10.040  0.00  0.00     0.125 A 
ATOM     43  H25 KR2 d          -3.496   4.601 -11.734  0.00  0.00     0.093 H 
ATOM     44  FAJ KR2 d          -2.649   6.696 -10.524  0.00  0.00    -0.205 F 
ENDBRANCH  31  34
ENDBRANCH  25  31
ENDBRANCH  22  25
ENDBRANCH  10  22
BRANCH   1  45
ATOM     45  CAX KR2 d          -5.035   1.911  -5.966  0.00  0.00     0.001 A 
ATOM     46  CAY KR2 d          -6.029   1.239  -6.672  0.00  0.00    -0.072 A 
ATOM     47  CBC KR2 d          -5.714   0.559  -7.846  0.00  0.00    -0.082 A 
ATOM     48  H1  KR2 d          -7.050   1.246  -6.308  0.00  0.00     0.084 H 
ATOM     49  CBB KR2 d          -4.403   0.552  -8.316  0.00  0.00    -0.083 A 
ATOM     50  H2  KR2 d          -6.489   0.035  -8.394  0.00  0.00     0.083 H 
ATOM     51  CBA KR2 d          -3.411   1.235  -7.616  0.00  0.00    -0.082 A 
ATOM     52  H3  KR2 d          -4.155   0.016  -9.225  0.00  0.00     0.083 H 
ATOM     53  CAZ KR2 d          -3.727   1.918  -6.445  0.00  0.00    -0.072 A 
ATOM     54  H4  KR2 d          -2.390   1.234  -7.984  0.00  0.00     0.083 H 
ATOM     55  H5  KR2 d          -2.955   2.456  -5.907  0.00  0.00     0.084 H 
ENDBRANCH   1  45
TORSDOF 6
ENDMDL
MODEL 5
REMARK VINA RESULT:      -6.7      3.007      7.023
REMARK  6 active torsions:
REMARK  status: ('A' for Active; 'I' for Inactive)
REMARK    1  A    between atoms: CAX_6  and  CAW_7 
REMARK       I    between atoms: CAW_7  and  NAR_9 
REMARK    2  A    between atoms: CAO_16  and  CAN_18 
REMARK    3  A    between atoms: CAN_18  and  CAL_19 
REMARK    4  A    between atoms: CAL_19  and  NAM_20 
REMARK    5  A    between atoms: CAL_19  and  CAK_21 
REMARK    6  A    between atoms: CAK_21  and  CAG_22 
ROOT
ATOM      1  CAW KR2 d          -4.683   2.439  -4.159  0.00  0.00     0.250 C 
ATOM      2  OAA KR2 d          -5.943   3.113  -4.256  0.00  0.00    -0.199 OA
ATOM      3  NAR KR2 d          -3.597   3.365  -3.798  0.00  0.00    -0.181 NA
ATOM      4  CAV KR2 d          -3.132   3.062  -2.434  0.00  0.00     0.001 C 
ATOM      5  CDD KR2 d          -2.950   4.287  -1.535  0.00  0.00    -0.052 C 
ATOM      6  CNN KR2 d          -4.275   4.907  -1.085  0.00  0.00    -0.062 C 
ATOM      7  CAT KR2 d          -4.852   5.898  -2.102  0.00  0.00    -0.049 C 
ATOM      8  CAS KR2 d          -5.216   5.249  -3.442  0.00  0.00     0.013 C 
ATOM      9  NAQ KR2 d          -4.020   4.635  -4.045  0.00  0.00    -0.288 N 
ATOM     10  CAO KR2 d          -3.119   5.387  -4.667  0.00  0.00     0.170 C 
ATOM     11  OAP KR2 d          -1.825   5.015  -4.838  0.00  0.00    -0.176 OA
ATOM     12  H6  KR2 d          -2.164   2.545  -2.508  0.00  0.00     0.058 H 
ATOM     13  H7  KR2 d          -3.868   2.396  -1.961  0.00  0.00     0.058 H 
ATOM     14  H8  KR2 d          -2.379   5.046  -2.089  0.00  0.00     0.034 H 
ATOM     15  H9  KR2 d          -2.385   3.983  -0.641  0.00  0.00     0.034 H 
ATOM     16  H10 KR2 d          -4.109   5.437  -0.135  0.00  0.00     0.033 H 
ATOM     17  H11 KR2 d          -5.006   4.099  -0.931  0.00  0.00     0.033 H 
ATOM     18  H12 KR2 d          -4.104   6.684  -2.286  0.00  0.00     0.035 H 
ATOM     19  H13 KR2 d          -5.759   6.349  -1.674  0.00  0.00     0.035 H 
ATOM     20  H14 KR2 d          -5.613   6.017  -4.122  0.00  0.00     0.066 H 
ATOM     21  H15 KR2 d          -5.979   4.475  -3.276  0.00  0.00     0.066 H 
ENDROOT
BRANCH  10  22
ATOM     22  CAN KR2 d          -3.516   6.781  -5.144  0.00  0.00     0.025 C 
ATOM     23  H16 KR2 d          -3.186   7.525  -4.404  0.00  0.00     0.048 H 
ATOM     24  H17 KR2 d          -4.611   6.830  -5.251  0.00  0.00     0.048 H 
BRANCH  22  25
ATOM     25  CAL KR2 d          -2.864   7.087  -6.492  0.00  0.00     0.111 C 
ATOM     26  H18 KR2 d          -1.937   6.501  -6.587  0.00  0.00     0.085 H 
BRANCH  25  27
ATOM     27  NAM KR2 d          -2.614   8.534  -6.508  0.00  0.00    -0.074 N 
ATOM     28  H19 KR2 d          -2.746   8.908  -5.581  0.00  0.00     0.274 HD
ATOM     29  H20 KR2 d          -3.255   8.979  -7.145  0.00  0.00     0.274 HD
ATOM     30  H21 KR2 d          -1.667   8.708  -6.808  0.00  0.00     0.274 HD
ENDBRANCH  25  27
BRANCH  25  31
ATOM     31  CAK KR2 d          -3.729   6.904  -7.738  0.00  0.00    -0.011 C 
ATOM     32  H22 KR2 d          -3.306   7.560  -8.512  0.00  0.00     0.043 H 
ATOM     33  H23 KR2 d          -4.738   7.254  -7.472  0.00  0.00     0.043 H 
BRANCH  31  34
ATOM     34  CAG KR2 d          -3.888   5.652  -8.326  0.00  0.00    -0.015 A 
ATOM     35  CAH KR2 d          -3.043   5.243  -9.346  0.00  0.00    -0.034 A 
ATOM     36  CAC KR2 d          -3.308   4.107 -10.108  0.00  0.00     0.155 A 
ATOM     37  H24 KR2 d          -2.152   5.823  -9.557  0.00  0.00     0.089 H 
ATOM     38  FAB KR2 d          -2.368   3.676 -10.969  0.00  0.00    -0.203 F 
ATOM     39  CAD KR2 d          -4.466   3.379  -9.853  0.00  0.00     0.157 A 
ATOM     40  FAI KR2 d          -4.968   2.514 -10.755  0.00  0.00    -0.203 F 
ATOM     41  CAE KR2 d          -5.266   3.737  -8.777  0.00  0.00    -0.005 A 
ATOM     42  CAF KR2 d          -4.983   4.856  -8.001  0.00  0.00     0.125 A 
ATOM     43  H25 KR2 d          -6.132   3.131  -8.535  0.00  0.00     0.093 H 
ATOM     44  FAJ KR2 d          -5.841   5.176  -7.018  0.00  0.00    -0.205 F 
ENDBRANCH  31  34
ENDBRANCH  25  31
ENDBRANCH  22  25
ENDBRANCH  10  22
BRANCH   1  45
ATOM     45  CAX KR2 d          -4.281   1.954  -5.557  0.00  0.00     0.001 A 
ATOM     46  CAY KR2 d          -5.132   1.113  -6.270  0.00  0.00    -0.072 A 
ATOM     47  CBC KR2 d          -4.675   0.465  -7.415  0.00  0.00    -0.082 A 
ATOM     48  H1  KR2 d          -6.152   0.964  -5.934  0.00  0.00     0.084 H 
ATOM     49  CBB KR2 d          -3.365   0.658  -7.849  0.00  0.00    -0.083 A 
ATOM     50  H2  KR2 d          -5.338  -0.190  -7.968  0.00  0.00     0.083 H 
ATOM     51  CBA KR2 d          -2.518   1.509  -7.143  0.00  0.00    -0.082 A 
ATOM     52  H3  KR2 d          -3.007   0.147  -8.735  0.00  0.00     0.083 H 
ATOM     53  CAZ KR2 d          -2.977   2.161  -6.001  0.00  0.00    -0.072 A 
ATOM     54  H4  KR2 d          -1.500   1.664  -7.482  0.00  0.00     0.083 H 
ATOM     55  H5  KR2 d          -2.319   2.829  -5.457  0.00  0.00     0.084 H 
ENDBRANCH   1  45
TORSDOF 6
ENDMDL
MODEL 6
REMARK VINA RESULT:      -6.6      2.173      4.669
REMARK  6 active torsions:
REMARK  status: ('A' for Active; 'I' for Inactive)
REMARK    1  A    between atoms: CAX_6  and  CAW_7 
REMARK       I    between atoms: CAW_7  and  NAR_9 
REMARK    2  A    between atoms: CAO_16  and  CAN_18 
REMARK    3  A    between atoms: CAN_18  and  CAL_19 
REMARK    4  A    between atoms: CAL_19  and  NAM_20 
REMARK    5  A    between atoms: CAL_19  and  CAK_21 
REMARK    6  A    between atoms: CAK_21  and  CAG_22 
ROOT
ATOM      1  CAW KR2 d          -2.070   3.850  -9.246  0.00  0.00     0.250 C 
ATOM      2  OAA KR2 d          -1.067   4.390  -8.377  0.00  0.00    -0.199 OA
ATOM      3  NAR KR2 d          -3.285   4.682  -9.258  0.00  0.00    -0.181 NA
ATOM      4  CAV KR2 d          -3.416   5.333 -10.571  0.00  0.00     0.001 C 
ATOM      5  CDD KR2 d          -3.761   6.823 -10.513  0.00  0.00    -0.052 C 
ATOM      6  CNN KR2 d          -2.591   7.695 -10.052  0.00  0.00    -0.062 C 
ATOM      7  CAT KR2 d          -2.476   7.792  -8.527  0.00  0.00    -0.049 C 
ATOM      8  CAS KR2 d          -2.185   6.446  -7.853  0.00  0.00     0.013 C 
ATOM      9  NAQ KR2 d          -3.259   5.487  -8.161  0.00  0.00    -0.288 N 
ATOM     10  CAO KR2 d          -4.418   5.546  -7.515  0.00  0.00     0.170 C 
ATOM     11  OAP KR2 d          -5.579   5.046  -8.013  0.00  0.00    -0.176 OA
ATOM     12  H6  KR2 d          -4.211   4.820 -11.131  0.00  0.00     0.058 H 
ATOM     13  H7  KR2 d          -2.462   5.223 -11.106  0.00  0.00     0.058 H 
ATOM     14  H8  KR2 d          -4.598   6.961  -9.811  0.00  0.00     0.034 H 
ATOM     15  H9  KR2 d          -4.067   7.151 -11.517  0.00  0.00     0.034 H 
ATOM     16  H10 KR2 d          -2.729   8.709 -10.457  0.00  0.00     0.033 H 
ATOM     17  H11 KR2 d          -1.658   7.266 -10.446  0.00  0.00     0.033 H 
ATOM     18  H12 KR2 d          -3.425   8.183  -8.130  0.00  0.00     0.035 H 
ATOM     19  H13 KR2 d          -1.661   8.489  -8.281  0.00  0.00     0.035 H 
ATOM     20  H14 KR2 d          -2.125   6.589  -6.764  0.00  0.00     0.066 H 
ATOM     21  H15 KR2 d          -1.227   6.053  -8.225  0.00  0.00     0.066 H 
ENDROOT
BRANCH  10  22
ATOM     22  CAN KR2 d          -4.490   6.286  -6.182  0.00  0.00     0.025 C 
ATOM     23  H16 KR2 d          -5.311   7.018  -6.218  0.00  0.00     0.048 H 
ATOM     24  H17 KR2 d          -3.538   6.811  -6.007  0.00  0.00     0.048 H 
BRANCH  22  25
ATOM     25  CAL KR2 d          -4.741   5.302  -5.040  0.00  0.00     0.111 C 
ATOM     26  H18 KR2 d          -5.078   4.341  -5.458  0.00  0.00     0.085 H 
BRANCH  25  27
ATOM     27  NAM KR2 d          -5.758   5.923  -4.180  0.00  0.00    -0.074 N 
ATOM     28  H19 KR2 d          -5.445   6.838  -3.897  0.00  0.00     0.274 HD
ATOM     29  H20 KR2 d          -5.902   5.350  -3.364  0.00  0.00     0.274 HD
ATOM     30  H21 KR2 d          -6.624   6.006  -4.689  0.00  0.00     0.274 HD
ENDBRANCH  25  27
BRANCH  25  31
ATOM     31  CAK KR2 d          -3.594   5.073  -4.057  0.00  0.00    -0.011 C 
ATOM     32  H22 KR2 d          -3.644   5.891  -3.323  0.00  0.00     0.043 H 
ATOM     33  H23 KR2 d          -2.664   5.158  -4.638  0.00  0.00     0.043 H 
BRANCH  31  34
ATOM     34  CAG KR2 d          -3.498   3.893  -3.327  0.00  0.00    -0.015 A 
ATOM     35  CAH KR2 d          -3.631   2.665  -3.956  0.00  0.00    -0.034 A 
ATOM     36  CAC KR2 d          -3.769   1.481  -3.235  0.00  0.00     0.155 A 
ATOM     37  H24 KR2 d          -3.626   2.624  -5.039  0.00  0.00     0.089 H 
ATOM     38  FAB KR2 d          -3.729   0.312  -3.901  0.00  0.00    -0.203 F 
ATOM     39  CAD KR2 d          -3.802   1.538  -1.845  0.00  0.00     0.157 A 
ATOM     40  FAI KR2 d          -4.289   0.520  -1.108  0.00  0.00    -0.203 F 
ATOM     41  CAE KR2 d          -3.582   2.754  -1.213  0.00  0.00    -0.005 A 
ATOM     42  CAF KR2 d          -3.415   3.930  -1.937  0.00  0.00     0.125 A 
ATOM     43  H25 KR2 d          -3.540   2.789  -0.130  0.00  0.00     0.093 H 
ATOM     44  FAJ KR2 d          -3.274   5.077  -1.253  0.00  0.00    -0.205 F 
ENDBRANCH  31  34
ENDBRANCH  25  31
ENDBRANCH  22  25
ENDBRANCH  10  22
BRANCH   1  45
ATOM     45  CAX KR2 d          -2.558   2.520  -8.660  0.00  0.00     0.001 A 
ATOM     46  CAY KR2 d          -3.722   1.932  -9.151  0.00  0.00    -0.072 A 
ATOM     47  CBC KR2 d          -4.312   0.874  -8.465  0.00  0.00    -0.082 A 
ATOM     48  H1  KR2 d          -4.168   2.299 -10.068  0.00  0.00     0.084 H 
ATOM     49  CBB KR2 d          -3.737   0.400  -7.287  0.00  0.00    -0.083 A 
ATOM     50  H2  KR2 d          -5.218   0.419  -8.847  0.00  0.00     0.083 H 
ATOM     51  CBA KR2 d          -2.567   0.980  -6.804  0.00  0.00    -0.082 A 
ATOM     52  H3  KR2 d          -4.201  -0.418  -6.748  0.00  0.00     0.083 H 
ATOM     53  CAZ KR2 d          -1.975   2.035  -7.492  0.00  0.00    -0.072 A 
ATOM     54  H4  KR2 d          -2.116   0.609  -5.890  0.00  0.00     0.083 H 
ATOM     55  H5  KR2 d          -1.059   2.480  -7.119  0.00  0.00     0.084 H 
ENDBRANCH   1  45
TORSDOF 6
ENDMDL
MODEL 7
REMARK VINA RESULT:      -6.6      3.330      6.370
REMARK  6 active torsions:
REMARK  status: ('A' for Active; 'I' for Inactive)
REMARK    1  A    between atoms: CAX_6  and  CAW_7 
REMARK       I    between atoms: CAW_7  and  NAR_9 
REMARK    2  A    between atoms: CAO_16  and  CAN_18 
REMARK    3  A    between atoms: CAN_18  and  CAL_19 
REMARK    4  A    between atoms: CAL_19  and  NAM_20 
REMARK    5  A    between atoms: CAL_19  and  CAK_21 
REMARK    6  A    between atoms: CAK_21  and  CAG_22 
ROOT
ATOM      1  CAW KR2 d          -3.042   5.881  -4.862  0.00  0.00     0.250 C 
ATOM      2  OAA KR2 d          -2.104   4.804  -4.976  0.00  0.00    -0.199 OA
ATOM      3  NAR KR2 d          -4.279   5.456  -4.186  0.00  0.00    -0.181 NA
ATOM      4  CAV KR2 d          -4.359   6.103  -2.866  0.00  0.00     0.001 C 
ATOM      5  CDD KR2 d          -4.751   5.168  -1.720  0.00  0.00    -0.052 C 
ATOM      6  CNN KR2 d          -3.634   4.199  -1.323  0.00  0.00    -0.062 C 
ATOM      7  CAT KR2 d          -3.605   2.929  -2.180  0.00  0.00    -0.049 C 
ATOM      8  CAS KR2 d          -3.311   3.202  -3.659  0.00  0.00     0.013 C 
ATOM      9  NAQ KR2 d          -4.337   4.097  -4.220  0.00  0.00    -0.288 N 
ATOM     10  CAO KR2 d          -5.531   3.622  -4.558  0.00  0.00     0.170 C 
ATOM     11  OAP KR2 d          -6.647   4.391  -4.638  0.00  0.00    -0.176 OA
ATOM     12  H6  KR2 d          -5.107   6.908  -2.922  0.00  0.00     0.058 H 
ATOM     13  H7  KR2 d          -3.374   6.534  -2.635  0.00  0.00     0.058 H 
ATOM     14  H8  KR2 d          -5.628   4.581  -2.032  0.00  0.00     0.034 H 
ATOM     15  H9  KR2 d          -5.011   5.779  -0.844  0.00  0.00     0.034 H 
ATOM     16  H10 KR2 d          -3.780   3.909  -0.271  0.00  0.00     0.033 H 
ATOM     17  H11 KR2 d          -2.668   4.716  -1.430  0.00  0.00     0.033 H 
ATOM     18  H12 KR2 d          -4.585   2.435  -2.104  0.00  0.00     0.035 H 
ATOM     19  H13 KR2 d          -2.826   2.260  -1.786  0.00  0.00     0.035 H 
ATOM     20  H14 KR2 d          -3.313   2.252  -4.213  0.00  0.00     0.066 H 
ATOM     21  H15 KR2 d          -2.323   3.677  -3.752  0.00  0.00     0.066 H 
ENDROOT
BRANCH  10  22
ATOM     22  CAN KR2 d          -5.697   2.122  -4.786  0.00  0.00     0.025 C 
ATOM     23  H16 KR2 d          -6.662   1.797  -4.370  0.00  0.00     0.048 H 
ATOM     24  H17 KR2 d          -4.880   1.586  -4.280  0.00  0.00     0.048 H 
BRANCH  22  25
ATOM     25  CAL KR2 d          -5.659   1.805  -6.281  0.00  0.00     0.111 C 
ATOM     26  H18 KR2 d          -5.858   2.725  -6.851  0.00  0.00     0.085 H 
BRANCH  25  27
ATOM     27  NAM KR2 d          -6.682   0.776  -6.507  0.00  0.00    -0.074 N 
ATOM     28  H19 KR2 d          -6.357   0.126  -7.206  0.00  0.00     0.274 HD
ATOM     29  H20 KR2 d          -7.534   1.212  -6.825  0.00  0.00     0.274 HD
ATOM     30  H21 KR2 d          -6.859   0.282  -5.646  0.00  0.00     0.274 HD
ENDBRANCH  25  27
BRANCH  25  31
ATOM     31  CAK KR2 d          -4.401   1.120  -6.813  0.00  0.00    -0.011 C 
ATOM     32  H22 KR2 d          -4.720   0.147  -7.214  0.00  0.00     0.043 H 
ATOM     33  H23 KR2 d          -3.742   0.962  -5.946  0.00  0.00     0.043 H 
BRANCH  31  34
ATOM     34  CAG KR2 d          -3.621   1.717  -7.799  0.00  0.00    -0.015 A 
ATOM     35  CAH KR2 d          -2.695   2.694  -7.467  0.00  0.00    -0.034 A 
ATOM     36  CAC KR2 d          -2.065   3.469  -8.438  0.00  0.00     0.155 A 
ATOM     37  H24 KR2 d          -2.454   2.859  -6.423  0.00  0.00     0.089 H 
ATOM     38  FAB KR2 d          -1.062   4.283  -8.062  0.00  0.00    -0.203 F 
ATOM     39  CAD KR2 d          -2.396   3.274  -9.775  0.00  0.00     0.157 A 
ATOM     40  FAI KR2 d          -2.120   4.202 -10.713  0.00  0.00    -0.203 F 
ATOM     41  CAE KR2 d          -3.256   2.239 -10.115  0.00  0.00    -0.005 A 
ATOM     42  CAF KR2 d          -3.860   1.448  -9.144  0.00  0.00     0.125 A 
ATOM     43  H25 KR2 d          -3.462   2.042 -11.161  0.00  0.00     0.093 H 
ATOM     44  FAJ KR2 d          -4.732   0.509  -9.548  0.00  0.00    -0.205 F 
ENDBRANCH  31  34
ENDBRANCH  25  31
ENDBRANCH  22  25
ENDBRANCH  10  22
BRANCH   1  45
ATOM     45  CAX KR2 d          -3.521   6.261  -6.268  0.00  0.00     0.001 A 
ATOM     46  CAY KR2 d          -4.547   5.536  -6.870  0.00  0.00    -0.072 A 
ATOM     47  CBC KR2 d          -4.815   5.700  -8.226  0.00  0.00    -0.082 A 
ATOM     48  H1  KR2 d          -5.138   4.844  -6.281  0.00  0.00     0.084 H 
ATOM     49  CBB KR2 d          -4.058   6.592  -8.983  0.00  0.00    -0.083 A 
ATOM     50  H2  KR2 d          -5.612   5.134  -8.694  0.00  0.00     0.083 H 
ATOM     51  CBA KR2 d          -3.040   7.326  -8.378  0.00  0.00    -0.082 A 
ATOM     52  H3  KR2 d          -4.260   6.713 -10.041  0.00  0.00     0.083 H 
ATOM     53  CAZ KR2 d          -2.776   7.165  -7.021  0.00  0.00    -0.072 A 
ATOM     54  H4  KR2 d          -2.453   8.024  -8.965  0.00  0.00     0.083 H 
ATOM     55  H5  KR2 d          -1.989   7.744  -6.550  0.00  0.00     0.084 H 
ENDBRANCH   1  45
TORSDOF 6
ENDMDL
MODEL 8
REMARK VINA RESULT:      -6.1      3.338      6.977
REMARK  6 active torsions:
REMARK  status: ('A' for Active; 'I' for Inactive)
REMARK    1  A    between atoms: CAX_6  and  CAW_7 
REMARK       I    between atoms: CAW_7  and  NAR_9 
REMARK    2  A    between atoms: CAO_16  and  CAN_18 
REMARK    3  A    between atoms: CAN_18  and  CAL_19 
REMARK    4  A    between atoms: CAL_19  and  NAM_20 
REMARK    5  A    between atoms: CAL_19  and  CAK_21 
REMARK    6  A    between atoms: CAK_21  and  CAG_22 
ROOT
ATOM      1  CAW KR2 d          -3.740   3.246  -1.641  0.00  0.00     0.250 C 
ATOM      2  OAA KR2 d          -2.447   3.567  -2.168  0.00  0.00    -0.199 OA
ATOM      3  NAR KR2 d          -4.750   3.138  -2.707  0.00  0.00    -0.181 NA
ATOM      4  CAV KR2 d          -5.169   1.733  -2.841  0.00  0.00     0.001 C 
ATOM      5  CDD KR2 d          -5.235   1.221  -4.281  0.00  0.00    -0.052 C 
ATOM      6  CNN KR2 d          -3.855   1.006  -4.909  0.00  0.00    -0.062 C 
ATOM      7  CAT KR2 d          -3.268   2.280  -5.524  0.00  0.00    -0.049 C 
ATOM      8  CAS KR2 d          -3.006   3.386  -4.494  0.00  0.00     0.013 C 
ATOM      9  NAQ KR2 d          -4.263   3.753  -3.819  0.00  0.00    -0.288 N 
ATOM     10  CAO KR2 d          -5.145   4.541  -4.423  0.00  0.00     0.170 C 
ATOM     11  OAP KR2 d          -6.466   4.562  -4.111  0.00  0.00    -0.176 OA
ATOM     12  H6  KR2 d          -6.168   1.628  -2.394  0.00  0.00     0.058 H 
ATOM     13  H7  KR2 d          -4.453   1.108  -2.287  0.00  0.00     0.058 H 
ATOM     14  H8  KR2 d          -5.785   1.955  -4.889  0.00  0.00     0.034 H 
ATOM     15  H9  KR2 d          -5.774   0.263  -4.287  0.00  0.00     0.034 H 
ATOM     16  H10 KR2 d          -3.945   0.245  -5.699  0.00  0.00     0.033 H 
ATOM     17  H11 KR2 d          -3.168   0.645  -4.128  0.00  0.00     0.033 H 
ATOM     18  H12 KR2 d          -3.975   2.663  -6.274  0.00  0.00     0.035 H 
ATOM     19  H13 KR2 d          -2.316   2.026  -6.012  0.00  0.00     0.035 H 
ATOM     20  H14 KR2 d          -2.595   4.269  -5.004  0.00  0.00     0.066 H 
ATOM     21  H15 KR2 d          -2.283   3.024  -3.748  0.00  0.00     0.066 H 
ENDROOT
BRANCH  10  22
ATOM     22  CAN KR2 d          -4.687   5.411  -5.591  0.00  0.00     0.025 C 
ATOM     23  H16 KR2 d          -5.499   6.099  -5.870  0.00  0.00     0.048 H 
ATOM     24  H17 KR2 d          -4.441   4.767  -6.448  0.00  0.00     0.048 H 
BRANCH  22  25
ATOM     25  CAL KR2 d          -3.453   6.221  -5.197  0.00  0.00     0.111 C 
ATOM     26  H18 KR2 d          -3.023   5.802  -4.275  0.00  0.00     0.085 H 
BRANCH  25  27
ATOM     27  NAM KR2 d          -3.911   7.606  -5.020  0.00  0.00    -0.074 N 
ATOM     28  H19 KR2 d          -4.597   7.826  -5.724  0.00  0.00     0.274 HD
ATOM     29  H20 KR2 d          -3.127   8.233  -5.108  0.00  0.00     0.274 HD
ATOM     30  H21 KR2 d          -4.322   7.709  -4.105  0.00  0.00     0.274 HD
ENDBRANCH  25  27
BRANCH  25  31
ATOM     31  CAK KR2 d          -2.364   6.384  -6.256  0.00  0.00    -0.011 C 
ATOM     32  H22 KR2 d          -1.478   5.851  -5.878  0.00  0.00     0.043 H 
ATOM     33  H23 KR2 d          -2.146   7.461  -6.318  0.00  0.00     0.043 H 
BRANCH  31  34
ATOM     34  CAG KR2 d          -2.560   5.945  -7.562  0.00  0.00    -0.015 A 
ATOM     35  CAH KR2 d          -3.425   6.622  -8.408  0.00  0.00    -0.034 A 
ATOM     36  CAC KR2 d          -3.822   6.090  -9.633  0.00  0.00     0.155 A 
ATOM     37  H24 KR2 d          -3.804   7.592  -8.108  0.00  0.00     0.089 H 
ATOM     38  FAB KR2 d          -4.529   6.866 -10.474  0.00  0.00    -0.203 F 
ATOM     39  CAD KR2 d          -3.355   4.832 -10.004  0.00  0.00     0.157 A 
ATOM     40  FAI KR2 d          -3.962   4.111 -10.967  0.00  0.00    -0.203 F 
ATOM     41  CAE KR2 d          -2.422   4.193  -9.200  0.00  0.00    -0.005 A 
ATOM     42  CAF KR2 d          -2.007   4.741  -7.991  0.00  0.00     0.125 A 
ATOM     43  H25 KR2 d          -2.007   3.244  -9.521  0.00  0.00     0.093 H 
ATOM     44  FAJ KR2 d          -1.152   4.031  -7.236  0.00  0.00    -0.205 F 
ENDBRANCH  31  34
ENDBRANCH  25  31
ENDBRANCH  22  25
ENDBRANCH  10  22
BRANCH   1  45
ATOM     45  CAX KR2 d          -4.234   4.432  -0.806  0.00  0.00     0.001 A 
ATOM     46  CAY KR2 d          -3.548   4.801   0.349  0.00  0.00    -0.072 A 
ATOM     47  CBC KR2 d          -4.122   5.699   1.246  0.00  0.00    -0.082 A 
ATOM     48  H1  KR2 d          -2.566   4.389   0.549  0.00  0.00     0.084 H 
ATOM     49  CBB KR2 d          -5.384   6.230   0.987  0.00  0.00    -0.083 A 
ATOM     50  H2  KR2 d          -3.588   5.983   2.144  0.00  0.00     0.083 H 
ATOM     51  CBA KR2 d          -6.065   5.871  -0.174  0.00  0.00    -0.082 A 
ATOM     52  H3  KR2 d          -5.835   6.922   1.689  0.00  0.00     0.083 H 
ATOM     53  CAZ KR2 d          -5.488   4.977  -1.072  0.00  0.00    -0.072 A 
ATOM     54  H4  KR2 d          -7.044   6.288  -0.379  0.00  0.00     0.083 H 
ATOM     55  H5  KR2 d          -6.015   4.706  -1.980  0.00  0.00     0.084 H 
ENDBRANCH   1  45
TORSDOF 6
ENDMDL
MODEL 9
REMARK VINA RESULT:      -5.5      3.253      6.923
REMARK  6 active torsions:
REMARK  status: ('A' for Active; 'I' for Inactive)
REMARK    1  A    between atoms: CAX_6  and  CAW_7 
REMARK       I    between atoms: CAW_7  and  NAR_9 
REMARK    2  A    between atoms: CAO_16  and  CAN_18 
REMARK    3  A    between atoms: CAN_18  and  CAL_19 
REMARK    4  A    between atoms: CAL_19  and  NAM_20 
REMARK    5  A    between atoms: CAL_19  and  CAK_21 
REMARK    6  A    between atoms: CAK_21  and  CAG_22 
ROOT
ATOM      1  CAW KR2 d          -5.993   3.149  -4.258  0.00  0.00     0.250 C 
ATOM      2  OAA KR2 d          -6.678   4.391  -4.056  0.00  0.00    -0.199 OA
ATOM      3  NAR KR2 d          -4.586   3.228  -3.829  0.00  0.00    -0.181 NA
ATOM      4  CAV KR2 d          -4.396   2.396  -2.629  0.00  0.00     0.001 C 
ATOM      5  CDD KR2 d          -3.597   3.065  -1.508  0.00  0.00    -0.052 C 
ATOM      6  CNN KR2 d          -4.379   4.162  -0.783  0.00  0.00    -0.062 C 
ATOM      7  CAT KR2 d          -4.297   5.524  -1.481  0.00  0.00    -0.049 C 
ATOM      8  CAS KR2 d          -4.923   5.527  -2.880  0.00  0.00     0.013 C 
ATOM      9  NAQ KR2 d          -4.242   4.542  -3.738  0.00  0.00    -0.288 N 
ATOM     10  CAO KR2 d          -3.062   4.823  -4.279  0.00  0.00     0.170 C 
ATOM     11  OAP KR2 d          -2.177   3.874  -4.677  0.00  0.00    -0.176 OA
ATOM     12  H6  KR2 d          -3.866   1.480  -2.927  0.00  0.00     0.058 H 
ATOM     13  H7  KR2 d          -5.388   2.133  -2.233  0.00  0.00     0.058 H 
ATOM     14  H8  KR2 d          -2.691   3.512  -1.944  0.00  0.00     0.034 H 
ATOM     15  H9  KR2 d          -3.312   2.296  -0.776  0.00  0.00     0.034 H 
ATOM     16  H10 KR2 d          -3.974   4.266   0.235  0.00  0.00     0.033 H 
ATOM     17  H11 KR2 d          -5.436   3.861  -0.728  0.00  0.00     0.033 H 
ATOM     18  H12 KR2 d          -3.237   5.805  -1.572  0.00  0.00     0.035 H 
ATOM     19  H13 KR2 d          -4.821   6.266  -0.862  0.00  0.00     0.035 H 
ATOM     20  H14 KR2 d          -4.820   6.528  -3.323  0.00  0.00     0.066 H 
ATOM     21  H15 KR2 d          -5.989   5.268  -2.802  0.00  0.00     0.066 H 
ENDROOT
BRANCH  10  22
ATOM     22  CAN KR2 d          -2.622   6.280  -4.387  0.00  0.00     0.025 C 
ATOM     23  H16 KR2 d          -1.532   6.320  -4.525  0.00  0.00     0.048 H 
ATOM     24  H17 KR2 d          -2.894   6.810  -3.461  0.00  0.00     0.048 H 
BRANCH  22  25
ATOM     25  CAL KR2 d          -3.307   6.955  -5.575  0.00  0.00     0.111 C 
ATOM     26  H18 KR2 d          -3.804   7.875  -5.232  0.00  0.00     0.085 H 
BRANCH  25  27
ATOM     27  NAM KR2 d          -4.258   5.973  -6.112  0.00  0.00    -0.074 N 
ATOM     28  H19 KR2 d          -3.984   5.047  -5.824  0.00  0.00     0.274 HD
ATOM     29  H20 KR2 d          -4.263   6.025  -7.118  0.00  0.00     0.274 HD
ATOM     30  H21 KR2 d          -5.182   6.175  -5.761  0.00  0.00     0.274 HD
ENDBRANCH  25  27
BRANCH  25  31
ATOM     31  CAK KR2 d          -2.439   7.253  -6.797  0.00  0.00    -0.011 C 
ATOM     32  H22 KR2 d          -1.398   7.068  -6.494  0.00  0.00     0.043 H 
ATOM     33  H23 KR2 d          -2.572   8.322  -7.021  0.00  0.00     0.043 H 
BRANCH  31  34
ATOM     34  CAG KR2 d          -2.628   6.572  -7.995  0.00  0.00    -0.015 A 
ATOM     35  CAH KR2 d          -3.551   7.027  -8.925  0.00  0.00    -0.034 A 
ATOM     36  CAC KR2 d          -3.931   6.256 -10.021  0.00  0.00     0.155 A 
ATOM     37  H24 KR2 d          -3.989   8.010  -8.795  0.00  0.00     0.089 H 
ATOM     38  FAB KR2 d          -4.703   6.820 -10.968  0.00  0.00    -0.203 F 
ATOM     39  CAD KR2 d          -3.388   4.984 -10.171  0.00  0.00     0.157 A 
ATOM     40  FAI KR2 d          -3.962   4.061 -10.969  0.00  0.00    -0.203 F 
ATOM     41  CAE KR2 d          -2.401   4.561  -9.292  0.00  0.00    -0.005 A 
ATOM     42  CAF KR2 d          -2.004   5.347  -8.215  0.00  0.00     0.125 A 
ATOM     43  H25 KR2 d          -1.929   3.598  -9.447  0.00  0.00     0.093 H 
ATOM     44  FAJ KR2 d          -1.090   4.841  -7.369  0.00  0.00    -0.205 F 
ENDBRANCH  31  34
ENDBRANCH  25  31
ENDBRANCH  22  25
ENDBRANCH  10  22
BRANCH   1  45
ATOM     45  CAX KR2 d          -5.887   2.890  -5.765  0.00  0.00     0.001 A 
ATOM     46  CAY KR2 d          -4.890   2.051  -6.256  0.00  0.00    -0.072 A 
ATOM     47  CBC KR2 d          -4.622   2.009  -7.622  0.00  0.00    -0.082 A 
ATOM     48  H1  KR2 d          -4.322   1.429  -5.573  0.00  0.00     0.084 H 
ATOM     49  CBB KR2 d          -5.353   2.806  -8.500  0.00  0.00    -0.083 A 
ATOM     50  H2  KR2 d          -3.844   1.357  -8.002  0.00  0.00     0.083 H 
ATOM     51  CBA KR2 d          -6.359   3.636  -8.010  0.00  0.00    -0.082 A 
ATOM     52  H3  KR2 d          -5.139   2.781  -9.562  0.00  0.00     0.083 H 
ATOM     53  CAZ KR2 d          -6.630   3.673  -6.645  0.00  0.00    -0.072 A 
ATOM     54  H4  KR2 d          -6.933   4.253  -8.693  0.00  0.00     0.083 H 
ATOM     55  H5  KR2 d          -7.419   4.313  -6.266  0.00  0.00     0.084 H 
ENDBRANCH   1  45
TORSDOF 6
ENDMDL
MODEL 10
REMARK VINA RESULT:      -5.5      3.505      6.886
REMARK  6 active torsions:
REMARK  status: ('A' for Active; 'I' for Inactive)
REMARK    1  A    between atoms: CAX_6  and  CAW_7 
REMARK       I    between atoms: CAW_7  and  NAR_9 
REMARK    2  A    between atoms: CAO_16  and  CAN_18 
REMARK    3  A    between atoms: CAN_18  and  CAL_19 
REMARK    4  A    between atoms: CAL_19  and  NAM_20 
REMARK    5  A    between atoms: CAL_19  and  CAK_21 
REMARK    6  A    between atoms: CAK_21  and  CAG_22 
ROOT
ATOM      1  CAW KR2 d          -5.805   3.045  -4.240  0.00  0.00     0.250 C 
ATOM      2  OAA KR2 d          -6.516   4.288  -4.219  0.00  0.00    -0.199 OA
ATOM      3  NAR KR2 d          -4.380   3.227  -3.915  0.00  0.00    -0.181 NA
ATOM      4  CAV KR2 d          -4.100   2.623  -2.602  0.00  0.00     0.001 C 
ATOM      5  CDD KR2 d          -3.263   3.496  -1.664  0.00  0.00    -0.052 C 
ATOM      6  CNN KR2 d          -4.038   4.687  -1.096  0.00  0.00    -0.062 C 
ATOM      7  CAT KR2 d          -4.034   5.906  -2.026  0.00  0.00    -0.049 C 
ATOM      8  CAS KR2 d          -4.735   5.650  -3.365  0.00  0.00     0.013 C 
ATOM      9  NAQ KR2 d          -4.072   4.543  -4.076  0.00  0.00    -0.288 N 
ATOM     10  CAO KR2 d          -2.932   4.749  -4.726  0.00  0.00     0.170 C 
ATOM     11  OAP KR2 d          -2.041   3.763  -5.003  0.00  0.00    -0.176 OA
ATOM     12  H6  KR2 d          -3.559   1.680  -2.766  0.00  0.00     0.058 H 
ATOM     13  H7  KR2 d          -5.060   2.414  -2.109  0.00  0.00     0.058 H 
ATOM     14  H8  KR2 d          -2.395   3.877  -2.223  0.00  0.00     0.034 H 
ATOM     15  H9  KR2 d          -2.915   2.874  -0.826  0.00  0.00     0.034 H 
ATOM     16  H10 KR2 d          -3.581   4.977  -0.138  0.00  0.00     0.033 H 
ATOM     17  H11 KR2 d          -5.080   4.378  -0.928  0.00  0.00     0.033 H 
ATOM     18  H12 KR2 d          -2.991   6.189  -2.227  0.00  0.00     0.035 H 
ATOM     19  H13 KR2 d          -4.548   6.735  -1.517  0.00  0.00     0.035 H 
ATOM     20  H14 KR2 d          -4.688   6.559  -3.981  0.00  0.00     0.066 H 
ATOM     21  H15 KR2 d          -5.787   5.386  -3.180  0.00  0.00     0.066 H 
ENDROOT
BRANCH  10  22
ATOM     22  CAN KR2 d          -2.543   6.173  -5.112  0.00  0.00     0.025 C 
ATOM     23  H16 KR2 d          -1.456   6.294  -5.002  0.00  0.00     0.048 H 
ATOM     24  H17 KR2 d          -3.061   6.883  -4.449  0.00  0.00     0.048 H 
BRANCH  22  25
ATOM     25  CAL KR2 d          -2.938   6.457  -6.561  0.00  0.00     0.111 C 
ATOM     26  H18 KR2 d          -3.163   7.528  -6.672  0.00  0.00     0.085 H 
BRANCH  25  27
ATOM     27  NAM KR2 d          -4.106   5.611  -6.841  0.00  0.00    -0.074 N 
ATOM     28  H19 KR2 d          -4.877   6.189  -7.137  0.00  0.00     0.274 HD
ATOM     29  H20 KR2 d          -4.365   5.108  -6.007  0.00  0.00     0.274 HD
ATOM     30  H21 KR2 d          -3.878   4.955  -7.572  0.00  0.00     0.274 HD
ENDBRANCH  25  27
BRANCH  25  31
ATOM     31  CAK KR2 d          -1.960   6.011  -7.646  0.00  0.00    -0.011 C 
ATOM     32  H22 KR2 d          -0.976   5.920  -7.162  0.00  0.00     0.043 H 
ATOM     33  H23 KR2 d          -1.929   6.821  -8.391  0.00  0.00     0.043 H 
BRANCH  31  34
ATOM     34  CAG KR2 d          -2.161   4.830  -8.354  0.00  0.00    -0.015 A 
ATOM     35  CAH KR2 d          -1.542   3.656  -7.954  0.00  0.00    -0.034 A 
ATOM     36  CAC KR2 d          -1.534   2.518  -8.758  0.00  0.00     0.155 A 
ATOM     37  H24 KR2 d          -1.050   3.622  -6.989  0.00  0.00     0.089 H 
ATOM     38  FAB KR2 d          -1.061   1.369  -8.243  0.00  0.00    -0.203 F 
ATOM     39  CAD KR2 d          -2.143   2.572 -10.008  0.00  0.00     0.157 A 
ATOM     40  FAI KR2 d          -1.867   1.666 -10.966  0.00  0.00    -0.203 F 
ATOM     41  CAE KR2 d          -2.838   3.717 -10.373  0.00  0.00    -0.005 A 
ATOM     42  CAF KR2 d          -2.867   4.841  -9.554  0.00  0.00     0.125 A 
ATOM     43  H25 KR2 d          -3.369   3.736 -11.318  0.00  0.00     0.093 H 
ATOM     44  FAJ KR2 d          -3.504   5.934 -10.006  0.00  0.00    -0.205 F 
ENDBRANCH  31  34
ENDBRANCH  25  31
ENDBRANCH  22  25
ENDBRANCH  10  22
BRANCH   1  45
ATOM     45  CAX KR2 d          -5.773   2.526  -5.683  0.00  0.00     0.001 A 
ATOM     46  CAY KR2 d          -4.828   1.574  -6.056  0.00  0.00    -0.072 A 
ATOM     47  CBC KR2 d          -4.620   1.287  -7.403  0.00  0.00    -0.082 A 
ATOM     48  H1  KR2 d          -4.253   1.055  -5.297  0.00  0.00     0.084 H 
ATOM     49  CBB KR2 d          -5.360   1.952  -8.379  0.00  0.00    -0.083 A 
ATOM     50  H2  KR2 d          -3.883   0.547  -7.692  0.00  0.00     0.083 H 
ATOM     51  CBA KR2 d          -6.314   2.895  -8.005  0.00  0.00    -0.082 A 
ATOM     52  H3  KR2 d          -5.192   1.736  -9.428  0.00  0.00     0.083 H 
ATOM     53  CAZ KR2 d          -6.524   3.178  -6.657  0.00  0.00    -0.072 A 
ATOM     54  H4  KR2 d          -6.894   3.409  -8.763  0.00  0.00     0.083 H 
ATOM     55  H5  KR2 d          -7.274   3.906  -6.368  0.00  0.00     0.084 H 
ENDBRANCH   1  45
TORSDOF 6
ENDMDL
