MODEL 1
REMARK VINA RESULT:     -11.1      0.000      0.000
REMARK  17 active torsions:
REMARK  status: ('A' for Active; 'I' for Inactive)
REMARK    1  A    between atoms: C_1  and  C2_4 
REMARK    2  A    between atoms: CA_14  and  N_13 
REMARK    3  A    between atoms: C1_15  and  CA_14 
REMARK    4  A    between atoms: CA_14  and  CB_17 
REMARK       I    between atoms: N2_24  and  C1_15 
REMARK    5  A    between atoms: CB_17  and  CG_18 
REMARK    6  A    between atoms: C9_21  and  O2_22 
REMARK    7  A    between atoms: CA1_23  and  C9_21 
REMARK    8  A    between atoms: C9_21  and  CM_33 
REMARK    9  A    between atoms: CA1_23  and  N2_24 
REMARK   10  A    between atoms: CA1_23  and  CB1_25 
REMARK   11  A    between atoms: CB1_25  and  CG1_26 
REMARK   12  A    between atoms: CM_33  and  N11_32 
REMARK   13  A    between atoms: C21_34  and  CC_35 
REMARK       I    between atoms: CC_35  and  N3_45 
REMARK   14  A    between atoms: N3_45  and  CD_46 
REMARK   15  A    between atoms: CD_46  and  C11_47 
REMARK   16  A    between atoms: CD_46  and  C22_48 
REMARK   17  A    between atoms: CD_46  and  C32_49 
ROOT
ATOM      1  C9  ROC d           0.415   5.222   9.351  0.00  0.00     0.078 C 
ATOM      2  H13 ROC d           0.229   5.350   8.275  0.00  0.00     0.088 H 
ENDROOT
BRANCH   1   3
ATOM      3  O2  ROC d           1.633   4.570   9.557  0.00  0.00    -0.392 OA
ATOM      4  H14 ROC d           2.347   5.166   9.361  0.00  0.00     0.210 HD
ENDBRANCH   1   3
BRANCH   1   5
ATOM      5  CA1 ROC d          -0.695   4.365   9.978  0.00  0.00     0.041 C 
ATOM      6  H15 ROC d          -1.108   4.951  10.812  0.00  0.00     0.076 H 
BRANCH   5   7
ATOM      7  N2  ROC d          -1.793   4.172   9.003  0.00  0.00    -0.363 N 
ATOM      8  C1  ROC d          -2.970   4.868   9.229  0.00  0.00     0.175 C 
ATOM      9  O1  ROC d          -3.345   5.812  10.098  0.00  0.00    -0.175 OA
ATOM     10  H16 ROC d          -1.689   3.566   8.215  0.00  0.00     0.162 HD
BRANCH   8  11
ATOM     11  CA  ROC d          -4.072   4.462   8.248  0.00  0.00     0.083 C 
ATOM     12  H8  ROC d          -4.939   4.148   8.848  0.00  0.00     0.086 H 
BRANCH  11  13
ATOM     13  N   ROC d          -4.476   5.596   7.456  0.00  0.00    -0.354 N 
ATOM     14  C   ROC d          -3.469   6.369   6.972  0.00  0.00     0.204 C 
ATOM     15  O   ROC d          -2.142   6.294   6.944  0.00  0.00    -0.170 OA
ATOM     16  H7  ROC d          -5.438   5.802   7.273  0.00  0.00     0.162 HD
BRANCH  14  17
ATOM     17  C2  ROC d          -4.024   7.650   6.343  0.00  0.00     0.111 A 
ATOM     18  N1  ROC d          -5.380   7.771   6.179  0.00  0.00    -0.244 NA
ATOM     19  C8A ROC d          -5.924   8.906   5.600  0.00  0.00     0.068 A 
ATOM     20  C8  ROC d          -7.291   8.996   5.444  0.00  0.00    -0.054 A 
ATOM     21  C4A ROC d          -5.086   9.940   5.182  0.00  0.00    -0.007 A 
ATOM     22  C7  ROC d          -7.850  10.152   4.850  0.00  0.00    -0.081 A 
ATOM     23  H6  ROC d          -7.932   8.187   5.774  0.00  0.00     0.087 H 
ATOM     24  C6  ROC d          -7.024  11.179   4.438  0.00  0.00    -0.082 A 
ATOM     25  H5  ROC d          -8.923  10.231   4.717  0.00  0.00     0.083 H 
ATOM     26  C5  ROC d          -5.647  11.085   4.597  0.00  0.00    -0.071 A 
ATOM     27  H4  ROC d          -7.454  12.066   3.987  0.00  0.00     0.083 H 
ATOM     28  H3  ROC d          -5.007  11.896   4.270  0.00  0.00     0.084 H 
ATOM     29  C4  ROC d          -3.715   9.828   5.349  0.00  0.00    -0.068 A 
ATOM     30  C3  ROC d          -3.177   8.685   5.925  0.00  0.00    -0.050 A 
ATOM     31  H2  ROC d          -3.063  10.632   5.029  0.00  0.00     0.085 H 
ATOM     32  H1  ROC d          -2.104   8.593   6.051  0.00  0.00     0.087 H 
ENDBRANCH  14  17
ENDBRANCH  11  13
BRANCH  11  33
ATOM     33  CB  ROC d          -3.699   3.276   7.346  0.00  0.00     0.023 C 
ATOM     34  H9  ROC d          -3.750   2.350   7.938  0.00  0.00     0.049 H 
ATOM     35  H10 ROC d          -2.672   3.420   6.977  0.00  0.00     0.049 H 
BRANCH  33  36
ATOM     36  CG  ROC d          -4.651   3.146   6.134  0.00  0.00     0.151 C 
ATOM     37  OD1 ROC d          -4.128   3.663   4.995  0.00  0.00    -0.178 OA
ATOM     38  ND2 ROC d          -5.811   2.536   6.513  0.00  0.00    -0.381 N 
ATOM     39  H11 ROC d          -6.533   2.376   5.841  0.00  0.00     0.158 HD
ATOM     40  H12 ROC d          -5.938   2.249   7.462  0.00  0.00     0.158 HD
ENDBRANCH  33  36
ENDBRANCH  11  33
ENDBRANCH   8  11
ENDBRANCH   5   7
BRANCH   5  41
ATOM     41  CB1 ROC d          -0.218   3.049  10.586  0.00  0.00    -0.020 C 
ATOM     42  H17 ROC d           0.268   3.254  11.552  0.00  0.00     0.043 H 
ATOM     43  H18 ROC d           0.506   2.579   9.904  0.00  0.00     0.043 H 
BRANCH  41  44
ATOM     44  CG1 ROC d          -1.400   2.079  10.814  0.00  0.00    -0.056 A 
ATOM     45  CD1 ROC d          -1.467   0.863  10.160  0.00  0.00    -0.077 A 
ATOM     46  CE1 ROC d          -2.563  -0.002  10.380  0.00  0.00    -0.082 A 
ATOM     47  H19 ROC d          -0.678   0.573   9.475  0.00  0.00     0.084 H 
ATOM     48  CZ  ROC d          -3.578   0.362  11.257  0.00  0.00    -0.083 A 
ATOM     49  H21 ROC d          -2.612  -0.954   9.863  0.00  0.00     0.083 H 
ATOM     50  CE2 ROC d          -3.515   1.577  11.911  0.00  0.00    -0.082 A 
ATOM     51  H23 ROC d          -4.416  -0.305  11.426  0.00  0.00     0.083 H 
ATOM     52  CD2 ROC d          -2.425   2.440  11.689  0.00  0.00    -0.077 A 
ATOM     53  H22 ROC d          -4.304   1.866  12.595  0.00  0.00     0.083 H 
ATOM     54  H20 ROC d          -2.382   3.394  12.202  0.00  0.00     0.084 H 
ENDBRANCH  41  44
ENDBRANCH   5  41
ENDBRANCH   1   5
BRANCH   1  55
ATOM     55  CM  ROC d           0.465   6.564  10.022  0.00  0.00     0.110 C 
ATOM     56  H25 ROC d           0.672   6.408  11.092  0.00  0.00     0.080 H 
ATOM     57  H26 ROC d          -0.517   7.045   9.905  0.00  0.00     0.080 H 
BRANCH  55  58
ATOM     58  N11 ROC d           1.497   7.477   9.480  0.00  0.00    -0.057 N 
ATOM     59  C21 ROC d           2.653   7.688  10.397  0.00  0.00     0.167 C 
ATOM     60  C31 ROC d           3.615   8.688   9.780  0.00  0.00    -0.027 C 
ATOM     61  H27 ROC d           3.175   6.722  10.458  0.00  0.00     0.098 H 
ATOM     62  C3A ROC d           3.022   9.987   9.291  0.00  0.00    -0.047 C 
ATOM     63  H28 ROC d           4.098   8.199   8.921  0.00  0.00     0.037 H 
ATOM     64  H29 ROC d           4.373   8.932  10.538  0.00  0.00     0.037 H 
ATOM     65  C41 ROC d           2.700  10.933  10.466  0.00  0.00    -0.061 C 
ATOM     66  C7A ROC d           1.837   9.724   8.412  0.00  0.00    -0.027 C 
ATOM     67  H30 ROC d           3.782  10.486   8.672  0.00  0.00     0.040 H 
ATOM     68  C51 ROC d           2.072  12.203  10.041  0.00  0.00    -0.065 C 
ATOM     69  H31 ROC d           3.636  11.167  10.992  0.00  0.00     0.033 H 
ATOM     70  H32 ROC d           2.012  10.417  11.152  0.00  0.00     0.033 H 
ATOM     71  C61 ROC d           0.841  11.951   9.186  0.00  0.00    -0.065 C 
ATOM     72  H33 ROC d           2.800  12.785   9.458  0.00  0.00     0.033 H 
ATOM     73  H34 ROC d           1.776  12.773  10.934  0.00  0.00     0.033 H 
ATOM     74  C71 ROC d           1.122  10.997   8.022  0.00  0.00    -0.060 C 
ATOM     75  H35 ROC d           0.492  12.911   8.779  0.00  0.00     0.033 H 
ATOM     76  H36 ROC d           0.055  11.514   9.818  0.00  0.00     0.033 H 
ATOM     77  H37 ROC d           1.744  11.527   7.285  0.00  0.00     0.033 H 
ATOM     78  H38 ROC d           0.161  10.724   7.562  0.00  0.00     0.033 H 
ATOM     79  C81 ROC d           0.855   8.732   9.065  0.00  0.00     0.088 C 
ATOM     80  H39 ROC d           2.212   9.259   7.488  0.00  0.00     0.043 H 
ATOM     81  H40 ROC d           0.412   9.210   9.952  0.00  0.00     0.076 H 
ATOM     82  H41 ROC d           0.061   8.498   8.341  0.00  0.00     0.076 H 
ATOM     83  H24 ROC d           1.869   7.043   8.649  0.00  0.00     0.281 HD
BRANCH  59  84
ATOM     84  CC  ROC d           2.334   8.085  11.831  0.00  0.00     0.183 C 
ATOM     85  O3  ROC d           1.077   8.378  12.096  0.00  0.00    -0.175 OA
ATOM     86  N3  ROC d           3.471   8.064  12.635  0.00  0.00    -0.362 N 
ATOM     87  H42 ROC d           4.340   7.752  12.250  0.00  0.00     0.162 HD
BRANCH  86  88
ATOM     88  CD  ROC d           3.416   8.500  14.072  0.00  0.00     0.021 C 
BRANCH  88  89
ATOM     89  C11 ROC d           2.960   9.920  14.051  0.00  0.00    -0.054 C 
ATOM     90  H43 ROC d           2.184  10.046  13.283  0.00  0.00     0.030 H 
ATOM     91  H44 ROC d           3.814  10.575  13.821  0.00  0.00     0.030 H 
ATOM     92  H45 ROC d           2.548  10.188  15.035  0.00  0.00     0.030 H 
ENDBRANCH  88  89
BRANCH  88  93
ATOM     93  C22 ROC d           4.770   8.408  14.716  0.00  0.00    -0.054 C 
ATOM     94  H46 ROC d           4.906   7.403  15.142  0.00  0.00     0.030 H 
ATOM     95  H47 ROC d           4.849   9.159  15.515  0.00  0.00     0.030 H 
ATOM     96  H48 ROC d           5.549   8.593  13.961  0.00  0.00     0.030 H 
ENDBRANCH  88  93
BRANCH  88  97
ATOM     97  C32 ROC d           2.426   7.664  14.860  0.00  0.00    -0.054 C 
ATOM     98  H49 ROC d           2.516   6.609  14.561  0.00  0.00     0.030 H 
ATOM     99  H50 ROC d           1.404   8.016  14.656  0.00  0.00     0.030 H 
ATOM    100  H51 ROC d           2.639   7.761  15.936  0.00  0.00     0.030 H 
ENDBRANCH  88  97
ENDBRANCH  86  88
ENDBRANCH  59  84
ENDBRANCH  55  58
ENDBRANCH   1  55
TORSDOF 17
ENDMDL
MODEL 2
REMARK VINA RESULT:     -10.8      2.301      5.282
REMARK  17 active torsions:
REMARK  status: ('A' for Active; 'I' for Inactive)
REMARK    1  A    between atoms: C_1  and  C2_4 
REMARK    2  A    between atoms: CA_14  and  N_13 
REMARK    3  A    between atoms: C1_15  and  CA_14 
REMARK    4  A    between atoms: CA_14  and  CB_17 
REMARK       I    between atoms: N2_24  and  C1_15 
REMARK    5  A    between atoms: CB_17  and  CG_18 
REMARK    6  A    between atoms: C9_21  and  O2_22 
REMARK    7  A    between atoms: CA1_23  and  C9_21 
REMARK    8  A    between atoms: C9_21  and  CM_33 
REMARK    9  A    between atoms: CA1_23  and  N2_24 
REMARK   10  A    between atoms: CA1_23  and  CB1_25 
REMARK   11  A    between atoms: CB1_25  and  CG1_26 
REMARK   12  A    between atoms: CM_33  and  N11_32 
REMARK   13  A    between atoms: C21_34  and  CC_35 
REMARK       I    between atoms: CC_35  and  N3_45 
REMARK   14  A    between atoms: N3_45  and  CD_46 
REMARK   15  A    between atoms: CD_46  and  C11_47 
REMARK   16  A    between atoms: CD_46  and  C22_48 
REMARK   17  A    between atoms: CD_46  and  C32_49 
ROOT
ATOM      1  C9  ROC d           0.705   5.532   9.333  0.00  0.00     0.078 C 
ATOM      2  H13 ROC d           0.347   6.048   8.430  0.00  0.00     0.088 H 
ENDROOT
BRANCH   1   3
ATOM      3  O2  ROC d           1.646   4.558   8.992  0.00  0.00    -0.392 OA
ATOM      4  H14 ROC d           1.477   4.253   8.108  0.00  0.00     0.210 HD
ENDBRANCH   1   3
BRANCH   1   5
ATOM      5  CA1 ROC d          -0.468   4.834  10.038  0.00  0.00     0.041 C 
ATOM      6  H15 ROC d          -1.059   5.628  10.518  0.00  0.00     0.076 H 
BRANCH   5   7
ATOM      7  N2  ROC d          -1.347   4.191   9.035  0.00  0.00    -0.363 N 
ATOM      8  C1  ROC d          -2.017   5.024   8.152  0.00  0.00     0.175 C 
ATOM      9  O1  ROC d          -1.977   6.334   7.893  0.00  0.00    -0.175 OA
ATOM     10  H16 ROC d          -1.454   3.198   8.996  0.00  0.00     0.162 HD
BRANCH   8  11
ATOM     11  CA  ROC d          -3.009   4.253   7.279  0.00  0.00     0.083 C 
ATOM     12  H8  ROC d          -2.453   3.892   6.401  0.00  0.00     0.086 H 
BRANCH  11  13
ATOM     13  N   ROC d          -3.504   3.100   7.988  0.00  0.00    -0.354 N 
ATOM     14  C   ROC d          -3.943   2.073   7.215  0.00  0.00     0.204 C 
ATOM     15  O   ROC d          -3.940   1.791   5.916  0.00  0.00    -0.170 OA
ATOM     16  H7  ROC d          -3.522   3.058   8.988  0.00  0.00     0.162 HD
BRANCH  14  17
ATOM     17  C2  ROC d          -4.641   1.011   8.070  0.00  0.00     0.111 A 
ATOM     18  N1  ROC d          -5.194   1.388   9.268  0.00  0.00    -0.244 NA
ATOM     19  C8A ROC d          -5.821   0.457  10.080  0.00  0.00     0.068 A 
ATOM     20  C8  ROC d          -6.363   0.865  11.281  0.00  0.00    -0.054 A 
ATOM     21  C4A ROC d          -5.895  -0.876   9.677  0.00  0.00    -0.007 A 
ATOM     22  C7  ROC d          -7.000  -0.084  12.115  0.00  0.00    -0.081 A 
ATOM     23  H6  ROC d          -6.300   1.904  11.583  0.00  0.00     0.087 H 
ATOM     24  C6  ROC d          -7.079  -1.403  11.718  0.00  0.00    -0.082 A 
ATOM     25  H5  ROC d          -7.425   0.225  13.064  0.00  0.00     0.083 H 
ATOM     26  C5  ROC d          -6.532  -1.811  10.508  0.00  0.00    -0.071 A 
ATOM     27  H4  ROC d          -7.571  -2.128  12.357  0.00  0.00     0.083 H 
ATOM     28  H3  ROC d          -6.598  -2.849  10.205  0.00  0.00     0.084 H 
ATOM     29  C4  ROC d          -5.343  -1.264   8.467  0.00  0.00    -0.068 A 
ATOM     30  C3  ROC d          -4.711  -0.326   7.660  0.00  0.00    -0.050 A 
ATOM     31  H2  ROC d          -5.404  -2.298   8.150  0.00  0.00     0.085 H 
ATOM     32  H1  ROC d          -4.275  -0.629   6.716  0.00  0.00     0.087 H 
ENDBRANCH  14  17
ENDBRANCH  11  13
BRANCH  11  33
ATOM     33  CB  ROC d          -4.172   5.106   6.753  0.00  0.00     0.023 C 
ATOM     34  H9  ROC d          -4.293   5.983   7.407  0.00  0.00     0.049 H 
ATOM     35  H10 ROC d          -5.093   4.503   6.774  0.00  0.00     0.049 H 
BRANCH  33  36
ATOM     36  CG  ROC d          -3.928   5.593   5.306  0.00  0.00     0.151 C 
ATOM     37  OD1 ROC d          -3.884   4.577   4.407  0.00  0.00    -0.178 OA
ATOM     38  ND2 ROC d          -3.808   6.951   5.282  0.00  0.00    -0.381 N 
ATOM     39  H11 ROC d          -3.646   7.424   4.416  0.00  0.00     0.158 HD
ATOM     40  H12 ROC d          -3.881   7.474   6.131  0.00  0.00     0.158 HD
ENDBRANCH  33  36
ENDBRANCH  11  33
ENDBRANCH   8  11
ENDBRANCH   5   7
BRANCH   5  41
ATOM     41  CB1 ROC d          -0.063   3.879  11.157  0.00  0.00    -0.020 C 
ATOM     42  H17 ROC d          -0.268   4.354  12.127  0.00  0.00     0.043 H 
ATOM     43  H18 ROC d           1.013   3.663  11.074  0.00  0.00     0.043 H 
BRANCH  41  44
ATOM     44  CG1 ROC d          -0.851   2.552  11.070  0.00  0.00    -0.056 A 
ATOM     45  CD1 ROC d          -2.027   2.368  11.771  0.00  0.00    -0.077 A 
ATOM     46  CE1 ROC d          -2.725   1.142  11.680  0.00  0.00    -0.082 A 
ATOM     47  H19 ROC d          -2.417   3.166  12.394  0.00  0.00     0.084 H 
ATOM     48  CZ  ROC d          -2.235   0.114  10.883  0.00  0.00    -0.083 A 
ATOM     49  H21 ROC d          -3.647   1.002  12.234  0.00  0.00     0.083 H 
ATOM     50  CE2 ROC d          -1.058   0.294  10.182  0.00  0.00    -0.082 A 
ATOM     51  H23 ROC d          -2.773  -0.824  10.812  0.00  0.00     0.083 H 
ATOM     52  CD2 ROC d          -0.362   1.514  10.275  0.00  0.00    -0.077 A 
ATOM     53  H22 ROC d          -0.671  -0.504   9.559  0.00  0.00     0.083 H 
ATOM     54  H20 ROC d           0.563   1.649   9.726  0.00  0.00     0.084 H 
ENDBRANCH  41  44
ENDBRANCH   5  41
ENDBRANCH   1   5
BRANCH   1  55
ATOM     55  CM  ROC d           1.347   6.520  10.264  0.00  0.00     0.110 C 
ATOM     56  H25 ROC d           2.177   6.017  10.782  0.00  0.00     0.080 H 
ATOM     57  H26 ROC d           0.594   6.839  11.000  0.00  0.00     0.080 H 
BRANCH  55  58
ATOM     58  N11 ROC d           1.882   7.727   9.594  0.00  0.00    -0.057 N 
ATOM     59  C21 ROC d           2.919   8.444  10.389  0.00  0.00     0.167 C 
ATOM     60  C31 ROC d           3.350   9.697   9.649  0.00  0.00    -0.027 C 
ATOM     61  H27 ROC d           3.788   7.771  10.434  0.00  0.00     0.098 H 
ATOM     62  C3A ROC d           2.252  10.616   9.174  0.00  0.00    -0.047 C 
ATOM     63  H28 ROC d           3.925   9.381   8.766  0.00  0.00     0.037 H 
ATOM     64  H29 ROC d           4.000  10.275  10.322  0.00  0.00     0.037 H 
ATOM     65  C41 ROC d           1.664  11.437  10.341  0.00  0.00    -0.061 C 
ATOM     66  C7A ROC d           1.211   9.843   8.422  0.00  0.00    -0.027 C 
ATOM     67  H30 ROC d           2.699  11.332   8.469  0.00  0.00     0.040 H 
ATOM     68  C51 ROC d           0.549  12.319   9.934  0.00  0.00    -0.065 C 
ATOM     69  H31 ROC d           2.463  12.059  10.767  0.00  0.00     0.033 H 
ATOM     70  H32 ROC d           1.294  10.739  11.107  0.00  0.00     0.033 H 
ATOM     71  C61 ROC d          -0.535  11.540   9.209  0.00  0.00    -0.065 C 
ATOM     72  H33 ROC d           0.937  13.101   9.264  0.00  0.00     0.033 H 
ATOM     73  H34 ROC d           0.116  12.786  10.830  0.00  0.00     0.033 H 
ATOM     74  C71 ROC d           0.019  10.697   8.057  0.00  0.00    -0.060 C 
ATOM     75  H35 ROC d          -1.270  12.252   8.804  0.00  0.00     0.033 H 
ATOM     76  H36 ROC d          -1.031  10.872   9.928  0.00  0.00     0.033 H 
ATOM     77  H37 ROC d           0.319  11.378   7.246  0.00  0.00     0.033 H 
ATOM     78  H38 ROC d          -0.783  10.034   7.701  0.00  0.00     0.033 H 
ATOM     79  C81 ROC d           0.761   8.592   9.199  0.00  0.00     0.088 C 
ATOM     80  H39 ROC d           1.673   9.503   7.483  0.00  0.00     0.043 H 
ATOM     81  H40 ROC d           0.230   8.915  10.107  0.00  0.00     0.076 H 
ATOM     82  H41 ROC d           0.077   8.011   8.562  0.00  0.00     0.076 H 
ATOM     83  H24 ROC d           2.334   7.419   8.747  0.00  0.00     0.281 HD
BRANCH  59  84
ATOM     84  CC  ROC d           2.574   8.781  11.832  0.00  0.00     0.183 C 
ATOM     85  O3  ROC d           1.299   8.965  12.105  0.00  0.00    -0.175 OA
ATOM     86  N3  ROC d           3.711   8.832  12.635  0.00  0.00    -0.362 N 
ATOM     87  H42 ROC d           4.601   8.600  12.241  0.00  0.00     0.162 HD
BRANCH  86  88
ATOM     88  CD  ROC d           3.626   9.229  14.081  0.00  0.00     0.021 C 
BRANCH  88  89
ATOM     89  C11 ROC d           3.285  10.682  14.087  0.00  0.00    -0.054 C 
ATOM     90  H43 ROC d           2.677  10.911  14.974  0.00  0.00     0.030 H 
ATOM     91  H44 ROC d           2.717  10.929  13.178  0.00  0.00     0.030 H 
ATOM     92  H45 ROC d           4.211  11.275  14.113  0.00  0.00     0.030 H 
ENDBRANCH  88  89
BRANCH  88  93
ATOM     93  C22 ROC d           4.938   9.010  14.779  0.00  0.00    -0.054 C 
ATOM     94  H46 ROC d           5.716   8.780  14.035  0.00  0.00     0.030 H 
ATOM     95  H47 ROC d           4.844   8.169  15.482  0.00  0.00     0.030 H 
ATOM     96  H48 ROC d           5.217   9.919  15.331  0.00  0.00     0.030 H 
ENDBRANCH  88  93
BRANCH  88  97
ATOM     97  C32 ROC d           2.538   8.453  14.798  0.00  0.00    -0.054 C 
ATOM     98  H49 ROC d           1.974   7.853  14.069  0.00  0.00     0.030 H 
ATOM     99  H50 ROC d           1.857   9.155  15.300  0.00  0.00     0.030 H 
ATOM    100  H51 ROC d           2.995   7.788  15.547  0.00  0.00     0.030 H 
ENDBRANCH  88  97
ENDBRANCH  86  88
ENDBRANCH  59  84
ENDBRANCH  55  58
ENDBRANCH   1  55
TORSDOF 17
ENDMDL
MODEL 3
REMARK VINA RESULT:     -10.8      1.271      3.312
REMARK  17 active torsions:
REMARK  status: ('A' for Active; 'I' for Inactive)
REMARK    1  A    between atoms: C_1  and  C2_4 
REMARK    2  A    between atoms: CA_14  and  N_13 
REMARK    3  A    between atoms: C1_15  and  CA_14 
REMARK    4  A    between atoms: CA_14  and  CB_17 
REMARK       I    between atoms: N2_24  and  C1_15 
REMARK    5  A    between atoms: CB_17  and  CG_18 
REMARK    6  A    between atoms: C9_21  and  O2_22 
REMARK    7  A    between atoms: CA1_23  and  C9_21 
REMARK    8  A    between atoms: C9_21  and  CM_33 
REMARK    9  A    between atoms: CA1_23  and  N2_24 
REMARK   10  A    between atoms: CA1_23  and  CB1_25 
REMARK   11  A    between atoms: CB1_25  and  CG1_26 
REMARK   12  A    between atoms: CM_33  and  N11_32 
REMARK   13  A    between atoms: C21_34  and  CC_35 
REMARK       I    between atoms: CC_35  and  N3_45 
REMARK   14  A    between atoms: N3_45  and  CD_46 
REMARK   15  A    between atoms: CD_46  and  C11_47 
REMARK   16  A    between atoms: CD_46  and  C22_48 
REMARK   17  A    between atoms: CD_46  and  C32_49 
ROOT
ATOM      1  C9  ROC d           0.035   6.269  10.039  0.00  0.00     0.078 C 
ATOM      2  H13 ROC d          -0.595   7.118  10.341  0.00  0.00     0.088 H 
ENDROOT
BRANCH   1   3
ATOM      3  O2  ROC d           0.494   6.449   8.732  0.00  0.00    -0.392 OA
ATOM      4  H14 ROC d          -0.233   6.358   8.128  0.00  0.00     0.210 HD
ENDBRANCH   1   3
BRANCH   1   5
ATOM      5  CA1 ROC d          -0.781   4.968  10.082  0.00  0.00     0.041 C 
ATOM      6  H15 ROC d          -1.447   5.048  10.955  0.00  0.00     0.076 H 
BRANCH   5   7
ATOM      7  N2  ROC d          -1.649   4.880   8.886  0.00  0.00    -0.363 N 
ATOM      8  C1  ROC d          -2.951   5.342   9.011  0.00  0.00     0.175 C 
ATOM      9  O1  ROC d          -3.623   5.989   9.968  0.00  0.00    -0.175 OA
ATOM     10  H16 ROC d          -1.312   4.502   8.024  0.00  0.00     0.162 HD
BRANCH   8  11
ATOM     11  CA  ROC d          -3.785   5.047   7.763  0.00  0.00     0.083 C 
ATOM     12  H8  ROC d          -4.662   4.470   8.090  0.00  0.00     0.086 H 
BRANCH  11  13
ATOM     13  N   ROC d          -4.262   6.278   7.182  0.00  0.00    -0.354 N 
ATOM     14  C   ROC d          -3.307   7.193   6.871  0.00  0.00     0.204 C 
ATOM     15  O   ROC d          -1.979   7.217   6.860  0.00  0.00    -0.170 OA
ATOM     16  H7  ROC d          -5.234   6.446   7.017  0.00  0.00     0.162 HD
BRANCH  14  17
ATOM     17  C2  ROC d          -3.947   8.527   6.474  0.00  0.00     0.111 A 
ATOM     18  N1  ROC d          -5.025   8.515   5.627  0.00  0.00    -0.244 NA
ATOM     19  C8A ROC d          -5.625   9.700   5.229  0.00  0.00     0.068 A 
ATOM     20  C8  ROC d          -6.704   9.656   4.372  0.00  0.00    -0.054 A 
ATOM     21  C4A ROC d          -5.131  10.917   5.697  0.00  0.00    -0.007 A 
ATOM     22  C7  ROC d          -7.316  10.864   3.961  0.00  0.00    -0.081 A 
ATOM     23  H6  ROC d          -7.080   8.704   4.016  0.00  0.00     0.087 H 
ATOM     24  C6  ROC d          -6.833  12.070   4.425  0.00  0.00    -0.082 A 
ATOM     25  H5  ROC d          -8.163  10.841   3.284  0.00  0.00     0.083 H 
ATOM     26  C5  ROC d          -5.745  12.111   5.288  0.00  0.00    -0.071 A 
ATOM     27  H4  ROC d          -7.306  12.995   4.112  0.00  0.00     0.083 H 
ATOM     28  H3  ROC d          -5.372  13.063   5.646  0.00  0.00     0.084 H 
ATOM     29  C4  ROC d          -4.045  10.937   6.557  0.00  0.00    -0.068 A 
ATOM     30  C3  ROC d          -3.446   9.747   6.947  0.00  0.00    -0.050 A 
ATOM     31  H2  ROC d          -3.662  11.883   6.925  0.00  0.00     0.085 H 
ATOM     32  H1  ROC d          -2.593   9.762   7.615  0.00  0.00     0.087 H 
ENDBRANCH  14  17
ENDBRANCH  11  13
BRANCH  11  33
ATOM     33  CB  ROC d          -3.057   4.198   6.711  0.00  0.00     0.023 C 
ATOM     34  H9  ROC d          -2.693   3.276   7.190  0.00  0.00     0.049 H 
ATOM     35  H10 ROC d          -2.202   4.771   6.322  0.00  0.00     0.049 H 
BRANCH  33  36
ATOM     36  CG  ROC d          -3.981   3.816   5.532  0.00  0.00     0.151 C 
ATOM     37  OD1 ROC d          -3.839   4.638   4.462  0.00  0.00    -0.178 OA
ATOM     38  ND2 ROC d          -4.733   2.726   5.859  0.00  0.00    -0.381 N 
ATOM     39  H11 ROC d          -5.385   2.352   5.200  0.00  0.00     0.158 HD
ATOM     40  H12 ROC d          -4.633   2.302   6.759  0.00  0.00     0.158 HD
ENDBRANCH  33  36
ENDBRANCH  11  33
ENDBRANCH   8  11
ENDBRANCH   5   7
BRANCH   5  41
ATOM     41  CB1 ROC d           0.045   3.703  10.298  0.00  0.00    -0.020 C 
ATOM     42  H17 ROC d           0.781   3.887  11.095  0.00  0.00     0.043 H 
ATOM     43  H18 ROC d           0.569   3.453   9.364  0.00  0.00     0.043 H 
BRANCH  41  44
ATOM     44  CG1 ROC d          -0.853   2.514  10.708  0.00  0.00    -0.056 A 
ATOM     45  CD1 ROC d          -1.958   2.694  11.518  0.00  0.00    -0.077 A 
ATOM     46  CE1 ROC d          -2.759   1.588  11.885  0.00  0.00    -0.082 A 
ATOM     47  H19 ROC d          -2.211   3.686  11.875  0.00  0.00     0.084 H 
ATOM     48  CZ  ROC d          -2.442   0.313  11.430  0.00  0.00    -0.083 A 
ATOM     49  H21 ROC d          -3.623   1.734  12.522  0.00  0.00     0.083 H 
ATOM     50  CE2 ROC d          -1.337   0.129  10.620  0.00  0.00    -0.082 A 
ATOM     51  H23 ROC d          -3.059  -0.533  11.709  0.00  0.00     0.083 H 
ATOM     52  CD2 ROC d          -0.538   1.231  10.259  0.00  0.00    -0.077 A 
ATOM     53  H22 ROC d          -1.086  -0.862  10.264  0.00  0.00     0.083 H 
ATOM     54  H20 ROC d           0.329   1.080   9.627  0.00  0.00     0.084 H 
ENDBRANCH  41  44
ENDBRANCH   5  41
ENDBRANCH   1   5
BRANCH   1  55
ATOM     55  CM  ROC d           1.218   6.162  10.957  0.00  0.00     0.110 C 
ATOM     56  H25 ROC d           2.120   6.442  10.392  0.00  0.00     0.080 H 
ATOM     57  H26 ROC d           1.304   5.116  11.288  0.00  0.00     0.080 H 
BRANCH  55  58
ATOM     58  N11 ROC d           1.135   7.023  12.158  0.00  0.00    -0.057 N 
ATOM     59  C21 ROC d           0.862   8.456  11.850  0.00  0.00     0.167 C 
ATOM     60  C31 ROC d           0.866   9.262  13.137  0.00  0.00    -0.027 C 
ATOM     61  H27 ROC d          -0.158   8.491  11.441  0.00  0.00     0.098 H 
ATOM     62  C3A ROC d           2.058   9.085  14.045  0.00  0.00    -0.047 C 
ATOM     63  H28 ROC d          -0.032   8.981  13.708  0.00  0.00     0.037 H 
ATOM     64  H29 ROC d           0.810  10.326  12.864  0.00  0.00     0.037 H 
ATOM     65  C41 ROC d           3.292   9.836  13.503  0.00  0.00    -0.061 C 
ATOM     66  C7A ROC d           2.321   7.629  14.287  0.00  0.00    -0.027 C 
ATOM     67  H30 ROC d           1.806   9.536  15.016  0.00  0.00     0.040 H 
ATOM     68  C51 ROC d           4.501   9.654  14.334  0.00  0.00    -0.065 C 
ATOM     69  H31 ROC d           3.056  10.909  13.461  0.00  0.00     0.033 H 
ATOM     70  H32 ROC d           3.507   9.467  12.489  0.00  0.00     0.033 H 
ATOM     71  C61 ROC d           4.806   8.181  14.550  0.00  0.00    -0.065 C 
ATOM     72  H33 ROC d           4.340  10.133  15.311  0.00  0.00     0.033 H 
ATOM     73  H34 ROC d           5.357  10.126  13.830  0.00  0.00     0.033 H 
ATOM     74  C71 ROC d           3.594   7.402  15.068  0.00  0.00    -0.060 C 
ATOM     75  H35 ROC d           5.621   8.093  15.283  0.00  0.00     0.033 H 
ATOM     76  H36 ROC d           5.125   7.742  13.594  0.00  0.00     0.033 H 
ATOM     77  H37 ROC d           3.414   7.700  16.112  0.00  0.00     0.033 H 
ATOM     78  H38 ROC d           3.833   6.329  15.029  0.00  0.00     0.033 H 
ATOM     79  C81 ROC d           2.345   6.830  12.970  0.00  0.00     0.088 C 
ATOM     80  H39 ROC d           1.487   7.244  14.893  0.00  0.00     0.043 H 
ATOM     81  H40 ROC d           3.218   7.152  12.381  0.00  0.00     0.076 H 
ATOM     82  H41 ROC d           2.439   5.761  13.210  0.00  0.00     0.076 H 
ATOM     83  H24 ROC d           0.354   6.696  12.704  0.00  0.00     0.281 HD
BRANCH  59  84
ATOM     84  CC  ROC d           1.754   9.123  10.813  0.00  0.00     0.183 C 
ATOM     85  O3  ROC d           2.938   8.579  10.617  0.00  0.00    -0.175 OA
ATOM     86  N3  ROC d           1.133  10.228  10.234  0.00  0.00    -0.362 N 
ATOM     87  H42 ROC d           0.190  10.448  10.484  0.00  0.00     0.162 HD
BRANCH  86  88
ATOM     88  CD  ROC d           1.855  11.094   9.242  0.00  0.00     0.021 C 
BRANCH  88  89
ATOM     89  C11 ROC d           0.936  12.232   8.946  0.00  0.00    -0.054 C 
ATOM     90  H43 ROC d           0.209  12.337   9.764  0.00  0.00     0.030 H 
ATOM     91  H44 ROC d           0.404  12.036   8.004  0.00  0.00     0.030 H 
ATOM     92  H45 ROC d           1.519  13.159   8.852  0.00  0.00     0.030 H 
ENDBRANCH  88  89
BRANCH  88  93
ATOM     93  C22 ROC d           2.152  10.336   7.979  0.00  0.00    -0.054 C 
ATOM     94  H46 ROC d           1.216   9.932   7.565  0.00  0.00     0.030 H 
ATOM     95  H47 ROC d           2.841   9.508   8.202  0.00  0.00     0.030 H 
ATOM     96  H48 ROC d           2.616  11.011   7.246  0.00  0.00     0.030 H 
ENDBRANCH  88  93
BRANCH  88  97
ATOM     97  C32 ROC d           3.150  11.630   9.823  0.00  0.00    -0.054 C 
ATOM     98  H49 ROC d           3.990  11.009   9.481  0.00  0.00     0.030 H 
ATOM     99  H50 ROC d           3.098  11.603  10.921  0.00  0.00     0.030 H 
ATOM    100  H51 ROC d           3.300  12.668   9.489  0.00  0.00     0.030 H 
ENDBRANCH  88  97
ENDBRANCH  86  88
ENDBRANCH  59  84
ENDBRANCH  55  58
ENDBRANCH   1  55
TORSDOF 17
ENDMDL
MODEL 4
REMARK VINA RESULT:     -10.4      2.180      5.820
REMARK  17 active torsions:
REMARK  status: ('A' for Active; 'I' for Inactive)
REMARK    1  A    between atoms: C_1  and  C2_4 
REMARK    2  A    between atoms: CA_14  and  N_13 
REMARK    3  A    between atoms: C1_15  and  CA_14 
REMARK    4  A    between atoms: CA_14  and  CB_17 
REMARK       I    between atoms: N2_24  and  C1_15 
REMARK    5  A    between atoms: CB_17  and  CG_18 
REMARK    6  A    between atoms: C9_21  and  O2_22 
REMARK    7  A    between atoms: CA1_23  and  C9_21 
REMARK    8  A    between atoms: C9_21  and  CM_33 
REMARK    9  A    between atoms: CA1_23  and  N2_24 
REMARK   10  A    between atoms: CA1_23  and  CB1_25 
REMARK   11  A    between atoms: CB1_25  and  CG1_26 
REMARK   12  A    between atoms: CM_33  and  N11_32 
REMARK   13  A    between atoms: C21_34  and  CC_35 
REMARK       I    between atoms: CC_35  and  N3_45 
REMARK   14  A    between atoms: N3_45  and  CD_46 
REMARK   15  A    between atoms: CD_46  and  C11_47 
REMARK   16  A    between atoms: CD_46  and  C22_48 
REMARK   17  A    between atoms: CD_46  and  C32_49 
ROOT
ATOM      1  C9  ROC d           0.215   6.068  10.028  0.00  0.00     0.078 C 
ATOM      2  H13 ROC d          -0.348   6.997  10.200  0.00  0.00     0.088 H 
ENDROOT
BRANCH   1   3
ATOM      3  O2  ROC d           0.756   6.062   8.741  0.00  0.00    -0.392 OA
ATOM      4  H14 ROC d           0.977   5.172   8.495  0.00  0.00     0.210 HD
ENDBRANCH   1   3
BRANCH   1   5
ATOM      5  CA1 ROC d          -0.721   4.856  10.156  0.00  0.00     0.041 C 
ATOM      6  H15 ROC d          -1.450   5.107  10.941  0.00  0.00     0.076 H 
BRANCH   5   7
ATOM      7  N2  ROC d          -1.486   4.677   8.901  0.00  0.00    -0.363 N 
ATOM      8  C1  ROC d          -2.690   5.355   8.790  0.00  0.00     0.175 C 
ATOM      9  O1  ROC d          -3.315   6.274   9.532  0.00  0.00    -0.175 OA
ATOM     10  H16 ROC d          -1.149   4.090   8.164  0.00  0.00     0.162 HD
BRANCH   8  11
ATOM     11  CA  ROC d          -3.454   4.962   7.524  0.00  0.00     0.083 C 
ATOM     12  H8  ROC d          -2.704   4.741   6.750  0.00  0.00     0.086 H 
BRANCH  11  13
ATOM     13  N   ROC d          -4.212   3.757   7.755  0.00  0.00    -0.354 N 
ATOM     14  C   ROC d          -4.102   2.797   6.800  0.00  0.00     0.204 C 
ATOM     15  O   ROC d          -3.363   2.619   5.710  0.00  0.00    -0.170 OA
ATOM     16  H7  ROC d          -4.783   3.636   8.567  0.00  0.00     0.162 HD
BRANCH  14  17
ATOM     17  C2  ROC d          -5.114   1.673   7.044  0.00  0.00     0.111 A 
ATOM     18  N1  ROC d          -5.481   1.385   8.334  0.00  0.00    -0.244 NA
ATOM     19  C8A ROC d          -6.382   0.366   8.601  0.00  0.00     0.068 A 
ATOM     20  C8  ROC d          -6.728   0.097   9.909  0.00  0.00    -0.054 A 
ATOM     21  C4A ROC d          -6.924  -0.373   7.550  0.00  0.00    -0.007 A 
ATOM     22  C7  ROC d          -7.644  -0.946  10.186  0.00  0.00    -0.081 A 
ATOM     23  H6  ROC d          -6.301   0.678  10.717  0.00  0.00     0.087 H 
ATOM     24  C6  ROC d          -8.185  -1.677   9.148  0.00  0.00    -0.082 A 
ATOM     25  H5  ROC d          -7.919  -1.170  11.210  0.00  0.00     0.083 H 
ATOM     26  C5  ROC d          -7.835  -1.402   7.832  0.00  0.00    -0.071 A 
ATOM     27  H4  ROC d          -8.891  -2.472   9.362  0.00  0.00     0.083 H 
ATOM     28  H3  ROC d          -8.265  -1.982   7.024  0.00  0.00     0.084 H 
ATOM     29  C4  ROC d          -6.561  -0.085   6.244  0.00  0.00    -0.068 A 
ATOM     30  C3  ROC d          -5.654   0.934   5.984  0.00  0.00    -0.050 A 
ATOM     31  H2  ROC d          -6.985  -0.654   5.426  0.00  0.00     0.085 H 
ATOM     32  H1  ROC d          -5.366   1.157   4.964  0.00  0.00     0.087 H 
ENDBRANCH  14  17
ENDBRANCH  11  13
BRANCH  11  33
ATOM     33  CB  ROC d          -4.357   6.072   6.968  0.00  0.00     0.023 C 
ATOM     34  H9  ROC d          -4.350   6.920   7.671  0.00  0.00     0.049 H 
ATOM     35  H10 ROC d          -5.382   5.683   6.874  0.00  0.00     0.049 H 
BRANCH  33  36
ATOM     36  CG  ROC d          -3.882   6.569   5.583  0.00  0.00     0.151 C 
ATOM     37  OD1 ROC d          -3.460   7.858   5.601  0.00  0.00    -0.178 OA
ATOM     38  ND2 ROC d          -4.007   5.573   4.660  0.00  0.00    -0.381 N 
ATOM     39  H11 ROC d          -3.741   5.736   3.710  0.00  0.00     0.158 HD
ATOM     40  H12 ROC d          -4.367   4.681   4.932  0.00  0.00     0.158 HD
ENDBRANCH  33  36
ENDBRANCH  11  33
ENDBRANCH   8  11
ENDBRANCH   5   7
BRANCH   5  41
ATOM     41  CB1 ROC d          -0.040   3.569  10.613  0.00  0.00    -0.020 C 
ATOM     42  H17 ROC d           0.521   3.768  11.538  0.00  0.00     0.043 H 
ATOM     43  H18 ROC d           0.654   3.232   9.828  0.00  0.00     0.043 H 
BRANCH  41  44
ATOM     44  CG1 ROC d          -1.076   2.455  10.882  0.00  0.00    -0.056 A 
ATOM     45  CD1 ROC d          -2.240   2.710  11.581  0.00  0.00    -0.077 A 
ATOM     46  CE1 ROC d          -3.169   1.672  11.821  0.00  0.00    -0.082 A 
ATOM     47  H19 ROC d          -2.443   3.711  11.948  0.00  0.00     0.084 H 
ATOM     48  CZ  ROC d          -2.918   0.387  11.353  0.00  0.00    -0.083 A 
ATOM     49  H21 ROC d          -4.080   1.877  12.371  0.00  0.00     0.083 H 
ATOM     50  CE2 ROC d          -1.755   0.127  10.654  0.00  0.00    -0.082 A 
ATOM     51  H23 ROC d          -3.633  -0.407  11.535  0.00  0.00     0.083 H 
ATOM     52  CD2 ROC d          -0.829   1.161  10.419  0.00  0.00    -0.077 A 
ATOM     53  H22 ROC d          -1.555  -0.873  10.288  0.00  0.00     0.083 H 
ATOM     54  H20 ROC d           0.084   0.951   9.874  0.00  0.00     0.084 H 
ENDBRANCH  41  44
ENDBRANCH   5  41
ENDBRANCH   1   5
BRANCH   1  55
ATOM     55  CM  ROC d           1.333   5.958  11.024  0.00  0.00     0.110 C 
ATOM     56  H25 ROC d           2.277   6.195  10.511  0.00  0.00     0.080 H 
ATOM     57  H26 ROC d           1.366   4.922  11.393  0.00  0.00     0.080 H 
BRANCH  55  58
ATOM     58  N11 ROC d           1.199   6.861  12.189  0.00  0.00    -0.057 N 
ATOM     59  C21 ROC d           0.862   8.267  11.823  0.00  0.00     0.167 C 
ATOM     60  C31 ROC d           0.816   9.121  13.077  0.00  0.00    -0.027 C 
ATOM     61  H27 ROC d          -0.156   8.237  11.406  0.00  0.00     0.098 H 
ATOM     62  C3A ROC d           2.007   9.037  13.999  0.00  0.00    -0.047 C 
ATOM     63  H28 ROC d          -0.073   8.821  13.652  0.00  0.00     0.037 H 
ATOM     64  H29 ROC d           0.712  10.170  12.762  0.00  0.00     0.037 H 
ATOM     65  C41 ROC d           3.209   9.824  13.436  0.00  0.00    -0.061 C 
ATOM     66  C7A ROC d           2.336   7.606  14.300  0.00  0.00    -0.027 C 
ATOM     67  H30 ROC d           1.725   9.513  14.950  0.00  0.00     0.040 H 
ATOM     68  C51 ROC d           4.418   9.732  14.283  0.00  0.00    -0.065 C 
ATOM     69  H31 ROC d           2.923  10.882  13.350  0.00  0.00     0.033 H 
ATOM     70  H32 ROC d           3.450   9.426  12.439  0.00  0.00     0.033 H 
ATOM     71  C61 ROC d           4.790   8.285  14.559  0.00  0.00    -0.065 C 
ATOM     72  H33 ROC d           4.226  10.241  15.238  0.00  0.00     0.033 H 
ATOM     73  H34 ROC d           5.255  10.224  13.766  0.00  0.00     0.033 H 
ATOM     74  C71 ROC d           3.612   7.470  15.099  0.00  0.00    -0.060 C 
ATOM     75  H35 ROC d           5.602   8.264  15.300  0.00  0.00     0.033 H 
ATOM     76  H36 ROC d           5.137   7.824  13.623  0.00  0.00     0.033 H 
ATOM     77  H37 ROC d           3.409   7.799  16.129  0.00  0.00     0.033 H 
ATOM     78  H38 ROC d           3.902   6.409  15.104  0.00  0.00     0.033 H 
ATOM     79  C81 ROC d           2.410   6.758  13.016  0.00  0.00     0.088 C 
ATOM     80  H39 ROC d           1.517   7.205  14.916  0.00  0.00     0.043 H 
ATOM     81  H40 ROC d           3.271   7.097  12.421  0.00  0.00     0.076 H 
ATOM     82  H41 ROC d           2.552   5.705  13.300  0.00  0.00     0.076 H 
ATOM     83  H24 ROC d           0.429   6.519  12.743  0.00  0.00     0.281 HD
BRANCH  59  84
ATOM     84  CC  ROC d           1.730   8.934  10.767  0.00  0.00     0.183 C 
ATOM     85  O3  ROC d           2.898   8.374  10.525  0.00  0.00    -0.175 OA
ATOM     86  N3  ROC d           1.108  10.056  10.223  0.00  0.00    -0.362 N 
ATOM     87  H42 ROC d           0.177  10.287  10.506  0.00  0.00     0.162 HD
BRANCH  86  88
ATOM     88  CD  ROC d           1.811  10.925   9.220  0.00  0.00     0.021 C 
BRANCH  88  89
ATOM     89  C11 ROC d           2.186  10.026   8.090  0.00  0.00    -0.054 C 
ATOM     90  H43 ROC d           2.547  10.630   7.245  0.00  0.00     0.030 H 
ATOM     91  H44 ROC d           1.306   9.445   7.776  0.00  0.00     0.030 H 
ATOM     92  H45 ROC d           2.981   9.339   8.415  0.00  0.00     0.030 H 
ENDBRANCH  88  89
BRANCH  88  93
ATOM     93  C22 ROC d           3.047  11.541   9.813  0.00  0.00    -0.054 C 
ATOM     94  H46 ROC d           2.787  12.498  10.290  0.00  0.00     0.030 H 
ATOM     95  H47 ROC d           3.787  11.717   9.018  0.00  0.00     0.030 H 
ATOM     96  H48 ROC d           3.472  10.860  10.564  0.00  0.00     0.030 H 
ENDBRANCH  88  93
BRANCH  88  97
ATOM     97  C32 ROC d           0.897  12.022   8.709  0.00  0.00    -0.054 C 
ATOM     98  H49 ROC d          -0.120  11.622   8.583  0.00  0.00     0.030 H 
ATOM     99  H50 ROC d           1.269  12.389   7.742  0.00  0.00     0.030 H 
ATOM    100  H51 ROC d           0.878  12.851   9.433  0.00  0.00     0.030 H 
ENDBRANCH  88  97
ENDBRANCH  86  88
ENDBRANCH  59  84
ENDBRANCH  55  58
ENDBRANCH   1  55
TORSDOF 17
ENDMDL
MODEL 5
REMARK VINA RESULT:      -9.8      2.024      5.736
REMARK  17 active torsions:
REMARK  status: ('A' for Active; 'I' for Inactive)
REMARK    1  A    between atoms: C_1  and  C2_4 
REMARK    2  A    between atoms: CA_14  and  N_13 
REMARK    3  A    between atoms: C1_15  and  CA_14 
REMARK    4  A    between atoms: CA_14  and  CB_17 
REMARK       I    between atoms: N2_24  and  C1_15 
REMARK    5  A    between atoms: CB_17  and  CG_18 
REMARK    6  A    between atoms: C9_21  and  O2_22 
REMARK    7  A    between atoms: CA1_23  and  C9_21 
REMARK    8  A    between atoms: C9_21  and  CM_33 
REMARK    9  A    between atoms: CA1_23  and  N2_24 
REMARK   10  A    between atoms: CA1_23  and  CB1_25 
REMARK   11  A    between atoms: CB1_25  and  CG1_26 
REMARK   12  A    between atoms: CM_33  and  N11_32 
REMARK   13  A    between atoms: C21_34  and  CC_35 
REMARK       I    between atoms: CC_35  and  N3_45 
REMARK   14  A    between atoms: N3_45  and  CD_46 
REMARK   15  A    between atoms: CD_46  and  C11_47 
REMARK   16  A    between atoms: CD_46  and  C22_48 
REMARK   17  A    between atoms: CD_46  and  C32_49 
ROOT
ATOM      1  C9  ROC d          -0.102   6.911   9.694  0.00  0.00     0.078 C 
ATOM      2  H13 ROC d          -0.663   7.784  10.059  0.00  0.00     0.088 H 
ENDROOT
BRANCH   1   3
ATOM      3  O2  ROC d           0.510   7.205   8.474  0.00  0.00    -0.392 OA
ATOM      4  H14 ROC d           1.430   7.393   8.620  0.00  0.00     0.210 HD
ENDBRANCH   1   3
BRANCH   1   5
ATOM      5  CA1 ROC d          -1.057   5.728   9.474  0.00  0.00     0.041 C 
ATOM      6  H15 ROC d          -1.923   5.901  10.130  0.00  0.00     0.076 H 
BRANCH   5   7
ATOM      7  N2  ROC d          -1.562   5.741   8.082  0.00  0.00    -0.363 N 
ATOM      8  C1  ROC d          -2.853   6.205   7.880  0.00  0.00     0.175 C 
ATOM      9  O1  ROC d          -3.770   6.782   8.662  0.00  0.00    -0.175 OA
ATOM     10  H16 ROC d          -0.996   5.428   7.320  0.00  0.00     0.162 HD
BRANCH   8  11
ATOM     11  CA  ROC d          -3.308   6.017   6.432  0.00  0.00     0.083 C 
ATOM     12  H8  ROC d          -2.414   6.112   5.798  0.00  0.00     0.086 H 
BRANCH  11  13
ATOM     13  N   ROC d          -3.837   4.689   6.245  0.00  0.00    -0.354 N 
ATOM     14  C   ROC d          -5.114   4.496   6.668  0.00  0.00     0.204 C 
ATOM     15  O   ROC d          -6.089   5.270   7.133  0.00  0.00    -0.170 OA
ATOM     16  H7  ROC d          -3.299   3.955   5.830  0.00  0.00     0.162 HD
BRANCH  14  17
ATOM     17  C2  ROC d          -5.481   3.010   6.621  0.00  0.00     0.111 A 
ATOM     18  N1  ROC d          -5.073   2.197   7.648  0.00  0.00    -0.244 NA
ATOM     19  C8A ROC d          -5.370   0.843   7.638  0.00  0.00     0.068 A 
ATOM     20  C8  ROC d          -4.942   0.051   8.682  0.00  0.00    -0.054 A 
ATOM     21  C4A ROC d          -6.093   0.301   6.576  0.00  0.00    -0.007 A 
ATOM     22  C7  ROC d          -5.239  -1.333   8.673  0.00  0.00    -0.081 A 
ATOM     23  H6  ROC d          -4.381   0.484   9.502  0.00  0.00     0.087 H 
ATOM     24  C6  ROC d          -5.958  -1.873   7.626  0.00  0.00    -0.082 A 
ATOM     25  H5  ROC d          -4.903  -1.967   9.486  0.00  0.00     0.083 H 
ATOM     26  C5  ROC d          -6.388  -1.071   6.576  0.00  0.00    -0.071 A 
ATOM     27  H4  ROC d          -6.189  -2.933   7.623  0.00  0.00     0.083 H 
ATOM     28  H3  ROC d          -6.951  -1.505   5.758  0.00  0.00     0.084 H 
ATOM     29  C4  ROC d          -6.513   1.116   5.538  0.00  0.00    -0.068 A 
ATOM     30  C3  ROC d          -6.207   2.471   5.552  0.00  0.00    -0.050 A 
ATOM     31  H2  ROC d          -7.079   0.697   4.714  0.00  0.00     0.085 H 
ATOM     32  H1  ROC d          -6.530   3.109   4.738  0.00  0.00     0.087 H 
ENDBRANCH  14  17
ENDBRANCH  11  13
BRANCH  11  33
ATOM     33  CB  ROC d          -4.313   7.073   5.951  0.00  0.00     0.023 C 
ATOM     34  H9  ROC d          -5.140   7.132   6.675  0.00  0.00     0.049 H 
ATOM     35  H10 ROC d          -4.706   6.769   4.970  0.00  0.00     0.049 H 
BRANCH  33  36
ATOM     36  CG  ROC d          -3.667   8.472   5.818  0.00  0.00     0.151 C 
ATOM     37  OD1 ROC d          -2.389   8.421   5.364  0.00  0.00    -0.178 OA
ATOM     38  ND2 ROC d          -4.552   9.436   6.200  0.00  0.00    -0.381 N 
ATOM     39  H11 ROC d          -4.285  10.399   6.171  0.00  0.00     0.158 HD
ATOM     40  H12 ROC d          -5.468   9.179   6.509  0.00  0.00     0.158 HD
ENDBRANCH  33  36
ENDBRANCH  11  33
ENDBRANCH   8  11
ENDBRANCH   5   7
BRANCH   5  41
ATOM     41  CB1 ROC d          -0.493   4.368   9.877  0.00  0.00    -0.020 C 
ATOM     42  H17 ROC d           0.350   4.519  10.568  0.00  0.00     0.043 H 
ATOM     43  H18 ROC d          -0.139   3.845   8.976  0.00  0.00     0.043 H 
BRANCH  41  44
ATOM     44  CG1 ROC d          -1.566   3.503  10.574  0.00  0.00    -0.056 A 
ATOM     45  CD1 ROC d          -1.220   2.389  11.316  0.00  0.00    -0.077 A 
ATOM     46  CE1 ROC d          -2.222   1.610  11.938  0.00  0.00    -0.082 A 
ATOM     47  H19 ROC d          -0.177   2.112  11.422  0.00  0.00     0.084 H 
ATOM     48  CZ  ROC d          -3.561   1.959  11.809  0.00  0.00    -0.083 A 
ATOM     49  H21 ROC d          -1.945   0.737  12.518  0.00  0.00     0.083 H 
ATOM     50  CE2 ROC d          -3.911   3.070  11.067  0.00  0.00    -0.082 A 
ATOM     51  H23 ROC d          -4.328   1.361  12.290  0.00  0.00     0.083 H 
ATOM     52  CD2 ROC d          -2.913   3.844  10.445  0.00  0.00    -0.077 A 
ATOM     53  H22 ROC d          -4.954   3.346  10.963  0.00  0.00     0.083 H 
ATOM     54  H20 ROC d          -3.193   4.713   9.860  0.00  0.00     0.084 H 
ENDBRANCH  41  44
ENDBRANCH   5  41
ENDBRANCH   1   5
BRANCH   1  55
ATOM     55  CM  ROC d           0.957   6.535  10.690  0.00  0.00     0.110 C 
ATOM     56  H25 ROC d           1.941   6.690  10.222  0.00  0.00     0.080 H 
ATOM     57  H26 ROC d           0.834   5.471  10.940  0.00  0.00     0.080 H 
BRANCH  55  58
ATOM     58  N11 ROC d           0.913   7.315  11.947  0.00  0.00    -0.057 N 
ATOM     59  C21 ROC d           0.723   8.779  11.739  0.00  0.00     0.167 C 
ATOM     60  C31 ROC d           0.761   9.493  13.078  0.00  0.00    -0.027 C 
ATOM     61  H27 ROC d          -0.291   8.900  11.328  0.00  0.00     0.098 H 
ATOM     62  C3A ROC d           1.934   9.186  13.977  0.00  0.00    -0.047 C 
ATOM     63  H28 ROC d          -0.156   9.224  13.624  0.00  0.00     0.037 H 
ATOM     64  H29 ROC d           0.766  10.574  12.879  0.00  0.00     0.037 H 
ATOM     65  C41 ROC d           3.212   9.902  13.493  0.00  0.00    -0.061 C 
ATOM     66  C7A ROC d           2.112   7.705  14.118  0.00  0.00    -0.027 C 
ATOM     67  H30 ROC d           1.699   9.583  14.976  0.00  0.00     0.040 H 
ATOM     68  C51 ROC d           4.402   9.595  14.315  0.00  0.00    -0.065 C 
ATOM     69  H31 ROC d           3.037  10.987  13.525  0.00  0.00     0.033 H 
ATOM     70  H32 ROC d           3.415   9.593  12.457  0.00  0.00     0.033 H 
ATOM     71  C61 ROC d           4.622   8.096  14.430  0.00  0.00    -0.065 C 
ATOM     72  H33 ROC d           4.260  10.014  15.322  0.00  0.00     0.033 H 
ATOM     73  H34 ROC d           5.287  10.052  13.849  0.00  0.00     0.033 H 
ATOM     74  C71 ROC d           3.364   7.352  14.887  0.00  0.00    -0.060 C 
ATOM     75  H35 ROC d           5.426   7.912  15.158  0.00  0.00     0.033 H 
ATOM     76  H36 ROC d           4.924   7.707  13.447  0.00  0.00     0.033 H 
ATOM     77  H37 ROC d           3.193   7.587  15.949  0.00  0.00     0.033 H 
ATOM     78  H38 ROC d           3.544   6.273  14.775  0.00  0.00     0.033 H 
ATOM     79  C81 ROC d           2.103   6.999  12.749  0.00  0.00     0.088 C 
ATOM     80  H39 ROC d           1.254   7.326  14.693  0.00  0.00     0.043 H 
ATOM     81  H40 ROC d           2.997   7.311  12.188  0.00  0.00     0.076 H 
ATOM     82  H41 ROC d           2.135   5.912  12.915  0.00  0.00     0.076 H 
ATOM     83  H24 ROC d           0.110   6.995  12.466  0.00  0.00     0.281 HD
BRANCH  59  84
ATOM     84  CC  ROC d           1.659   9.465  10.754  0.00  0.00     0.183 C 
ATOM     85  O3  ROC d           2.816   8.874  10.532  0.00  0.00    -0.175 OA
ATOM     86  N3  ROC d           1.101  10.635  10.243  0.00  0.00    -0.362 N 
ATOM     87  H42 ROC d           0.168  10.886  10.499  0.00  0.00     0.162 HD
BRANCH  86  88
ATOM     88  CD  ROC d           1.877  11.525   9.315  0.00  0.00     0.021 C 
BRANCH  88  89
ATOM     89  C11 ROC d           1.023  12.727   9.090  0.00  0.00    -0.054 C 
ATOM     90  H43 ROC d           0.730  13.155  10.059  0.00  0.00     0.030 H 
ATOM     91  H44 ROC d           0.122  12.436   8.529  0.00  0.00     0.030 H 
ATOM     92  H45 ROC d           1.586  13.475   8.514  0.00  0.00     0.030 H 
ENDBRANCH  88  89
BRANCH  88  93
ATOM     93  C22 ROC d           2.146  10.837   8.006  0.00  0.00    -0.054 C 
ATOM     94  H46 ROC d           1.234  10.322   7.669  0.00  0.00     0.030 H 
ATOM     95  H47 ROC d           2.954  10.103   8.137  0.00  0.00     0.030 H 
ATOM     96  H48 ROC d           2.445  11.582   7.255  0.00  0.00     0.030 H 
ENDBRANCH  88  93
BRANCH  88  97
ATOM     97  C32 ROC d           3.193  11.952   9.938  0.00  0.00    -0.054 C 
ATOM     98  H49 ROC d           3.002  12.694  10.727  0.00  0.00     0.030 H 
ATOM     99  H50 ROC d           3.838  12.395   9.166  0.00  0.00     0.030 H 
ATOM    100  H51 ROC d           3.694  11.074  10.374  0.00  0.00     0.030 H 
ENDBRANCH  88  97
ENDBRANCH  86  88
ENDBRANCH  59  84
ENDBRANCH  55  58
ENDBRANCH   1  55
TORSDOF 17
ENDMDL
MODEL 6
REMARK VINA RESULT:      -9.4      2.646      5.521
REMARK  17 active torsions:
REMARK  status: ('A' for Active; 'I' for Inactive)
REMARK    1  A    between atoms: C_1  and  C2_4 
REMARK    2  A    between atoms: CA_14  and  N_13 
REMARK    3  A    between atoms: C1_15  and  CA_14 
REMARK    4  A    between atoms: CA_14  and  CB_17 
REMARK       I    between atoms: N2_24  and  C1_15 
REMARK    5  A    between atoms: CB_17  and  CG_18 
REMARK    6  A    between atoms: C9_21  and  O2_22 
REMARK    7  A    between atoms: CA1_23  and  C9_21 
REMARK    8  A    between atoms: C9_21  and  CM_33 
REMARK    9  A    between atoms: CA1_23  and  N2_24 
REMARK   10  A    between atoms: CA1_23  and  CB1_25 
REMARK   11  A    between atoms: CB1_25  and  CG1_26 
REMARK   12  A    between atoms: CM_33  and  N11_32 
REMARK   13  A    between atoms: C21_34  and  CC_35 
REMARK       I    between atoms: CC_35  and  N3_45 
REMARK   14  A    between atoms: N3_45  and  CD_46 
REMARK   15  A    between atoms: CD_46  and  C11_47 
REMARK   16  A    between atoms: CD_46  and  C22_48 
REMARK   17  A    between atoms: CD_46  and  C32_49 
ROOT
ATOM      1  C9  ROC d          -1.137   7.999   8.035  0.00  0.00     0.078 C 
ATOM      2  H13 ROC d          -1.613   8.902   8.445  0.00  0.00     0.088 H 
ENDROOT
BRANCH   1   3
ATOM      3  O2  ROC d          -1.482   7.840   6.691  0.00  0.00    -0.392 OA
ATOM      4  H14 ROC d          -0.737   8.065   6.146  0.00  0.00     0.210 HD
ENDBRANCH   1   3
BRANCH   1   5
ATOM      5  CA1 ROC d          -1.620   6.758   8.800  0.00  0.00     0.041 C 
ATOM      6  H15 ROC d          -2.446   7.092   9.446  0.00  0.00     0.076 H 
BRANCH   5   7
ATOM      7  N2  ROC d          -2.190   5.772   7.852  0.00  0.00    -0.363 N 
ATOM      8  C1  ROC d          -3.515   5.942   7.480  0.00  0.00     0.175 C 
ATOM      9  O1  ROC d          -4.428   6.895   7.690  0.00  0.00    -0.175 OA
ATOM     10  H16 ROC d          -1.642   5.016   7.496  0.00  0.00     0.162 HD
BRANCH   8  11
ATOM     11  CA  ROC d          -4.025   4.776   6.632  0.00  0.00     0.083 C 
ATOM     12  H8  ROC d          -3.197   4.467   5.977  0.00  0.00     0.086 H 
BRANCH  11  13
ATOM     13  N   ROC d          -4.357   3.655   7.475  0.00  0.00    -0.354 N 
ATOM     14  C   ROC d          -3.990   2.433   7.007  0.00  0.00     0.204 C 
ATOM     15  O   ROC d          -3.278   1.982   5.979  0.00  0.00    -0.170 OA
ATOM     16  H7  ROC d          -4.827   3.769   8.351  0.00  0.00     0.162 HD
BRANCH  14  17
ATOM     17  C2  ROC d          -4.588   1.321   7.873  0.00  0.00     0.111 A 
ATOM     18  N1  ROC d          -5.187   1.658   9.060  0.00  0.00    -0.244 NA
ATOM     19  C8A ROC d          -5.726   0.681   9.882  0.00  0.00     0.068 A 
ATOM     20  C8  ROC d          -6.318   1.051  11.071  0.00  0.00    -0.054 A 
ATOM     21  C4A ROC d          -5.664  -0.658   9.499  0.00  0.00    -0.007 A 
ATOM     22  C7  ROC d          -6.866   0.057  11.915  0.00  0.00    -0.081 A 
ATOM     23  H6  ROC d          -6.362   2.096  11.357  0.00  0.00     0.087 H 
ATOM     24  C6  ROC d          -6.810  -1.270  11.539  0.00  0.00    -0.082 A 
ATOM     25  H5  ROC d          -7.329   0.336  12.855  0.00  0.00     0.083 H 
ATOM     26  C5  ROC d          -6.213  -1.639  10.339  0.00  0.00    -0.071 A 
ATOM     27  H4  ROC d          -7.234  -2.030  12.184  0.00  0.00     0.083 H 
ATOM     28  H3  ROC d          -6.173  -2.683  10.053  0.00  0.00     0.084 H 
ATOM     29  C4  ROC d          -5.064  -1.007   8.300  0.00  0.00    -0.068 A 
ATOM     30  C3  ROC d          -4.521  -0.024   7.484  0.00  0.00    -0.050 A 
ATOM     31  H2  ROC d          -5.019  -2.047   7.999  0.00  0.00     0.085 H 
ATOM     32  H1  ROC d          -4.047  -0.295   6.548  0.00  0.00     0.087 H 
ENDBRANCH  14  17
ENDBRANCH  11  13
BRANCH  11  33
ATOM     33  CB  ROC d          -5.206   5.137   5.720  0.00  0.00     0.023 C 
ATOM     34  H9  ROC d          -5.025   4.713   4.720  0.00  0.00     0.049 H 
ATOM     35  H10 ROC d          -5.276   6.232   5.647  0.00  0.00     0.049 H 
BRANCH  33  36
ATOM     36  CG  ROC d          -6.546   4.586   6.260  0.00  0.00     0.151 C 
ATOM     37  OD1 ROC d          -6.877   3.384   5.725  0.00  0.00    -0.178 OA
ATOM     38  ND2 ROC d          -7.084   5.460   7.158  0.00  0.00    -0.381 N 
ATOM     39  H11 ROC d          -7.956   5.248   7.601  0.00  0.00     0.158 HD
ATOM     40  H12 ROC d          -6.608   6.312   7.373  0.00  0.00     0.158 HD
ENDBRANCH  33  36
ENDBRANCH  11  33
ENDBRANCH   8  11
ENDBRANCH   5   7
BRANCH   5  41
ATOM     41  CB1 ROC d          -0.583   6.138   9.732  0.00  0.00    -0.020 C 
ATOM     42  H17 ROC d          -0.448   6.793  10.605  0.00  0.00     0.043 H 
ATOM     43  H18 ROC d           0.372   6.042   9.194  0.00  0.00     0.043 H 
BRANCH  41  44
ATOM     44  CG1 ROC d          -1.031   4.741  10.216  0.00  0.00    -0.056 A 
ATOM     45  CD1 ROC d          -2.355   4.474  10.514  0.00  0.00    -0.077 A 
ATOM     46  CE1 ROC d          -2.738   3.189  10.962  0.00  0.00    -0.082 A 
ATOM     47  H19 ROC d          -3.101   5.253  10.404  0.00  0.00     0.084 H 
ATOM     48  CZ  ROC d          -1.787   2.185  11.105  0.00  0.00    -0.083 A 
ATOM     49  H21 ROC d          -3.776   2.986  11.196  0.00  0.00     0.083 H 
ATOM     50  CE2 ROC d          -0.463   2.448  10.810  0.00  0.00    -0.082 A 
ATOM     51  H23 ROC d          -2.084   1.200  11.446  0.00  0.00     0.083 H 
ATOM     52  CD2 ROC d          -0.082   3.729  10.366  0.00  0.00    -0.077 A 
ATOM     53  H22 ROC d           0.281   1.669  10.920  0.00  0.00     0.083 H 
ATOM     54  H20 ROC d           0.959   3.931  10.140  0.00  0.00     0.084 H 
ENDBRANCH  41  44
ENDBRANCH   5  41
ENDBRANCH   1   5
BRANCH   1  55
ATOM     55  CM  ROC d           0.355   8.117   8.142  0.00  0.00     0.110 C 
ATOM     56  H25 ROC d           0.806   7.572   7.299  0.00  0.00     0.080 H 
ATOM     57  H26 ROC d           0.671   7.653   9.089  0.00  0.00     0.080 H 
BRANCH  55  58
ATOM     58  N11 ROC d           0.858   9.509   8.117  0.00  0.00    -0.057 N 
ATOM     59  C21 ROC d           2.308   9.629   8.443  0.00  0.00     0.167 C 
ATOM     60  C31 ROC d           2.706  11.094   8.457  0.00  0.00    -0.027 C 
ATOM     61  H27 ROC d           2.848   9.148   7.613  0.00  0.00     0.098 H 
ATOM     62  C3A ROC d           1.851  12.021   9.286  0.00  0.00    -0.047 C 
ATOM     63  H28 ROC d           2.680  11.456   7.419  0.00  0.00     0.037 H 
ATOM     64  H29 ROC d           3.734  11.156   8.842  0.00  0.00     0.037 H 
ATOM     65  C41 ROC d           2.150  11.864  10.791  0.00  0.00    -0.061 C 
ATOM     66  C7A ROC d           0.401  11.831   8.957  0.00  0.00    -0.027 C 
ATOM     67  H30 ROC d           2.115  13.052   9.010  0.00  0.00     0.040 H 
ATOM     68  C51 ROC d           1.302  12.719  11.650  0.00  0.00    -0.065 C 
ATOM     69  H31 ROC d           3.203  12.129  10.967  0.00  0.00     0.033 H 
ATOM     70  H32 ROC d           1.984  10.814  11.073  0.00  0.00     0.033 H 
ATOM     71  C61 ROC d          -0.173  12.503  11.358  0.00  0.00    -0.065 C 
ATOM     72  H33 ROC d           1.553  13.773  11.465  0.00  0.00     0.033 H 
ATOM     73  H34 ROC d           1.498  12.474  12.704  0.00  0.00     0.033 H 
ATOM     74  C71 ROC d          -0.501  12.630   9.868  0.00  0.00    -0.060 C 
ATOM     75  H35 ROC d          -0.756  13.253  11.913  0.00  0.00     0.033 H 
ATOM     76  H36 ROC d          -0.456  11.496  11.697  0.00  0.00     0.033 H 
ATOM     77  H37 ROC d          -0.419  13.691   9.587  0.00  0.00     0.033 H 
ATOM     78  H38 ROC d          -1.535  12.289   9.713  0.00  0.00     0.033 H 
ATOM     79  C81 ROC d           0.005  10.342   8.976  0.00  0.00     0.088 C 
ATOM     80  H39 ROC d           0.248  12.201   7.932  0.00  0.00     0.043 H 
ATOM     81  H40 ROC d           0.082   9.972  10.010  0.00  0.00     0.076 H 
ATOM     82  H41 ROC d          -1.035  10.252   8.631  0.00  0.00     0.076 H 
ATOM     83  H24 ROC d           0.750   9.846   7.173  0.00  0.00     0.281 HD
BRANCH  59  84
ATOM     84  CC  ROC d           2.791   8.943   9.712  0.00  0.00     0.183 C 
ATOM     85  O3  ROC d           4.004   8.430   9.680  0.00  0.00    -0.175 OA
ATOM     86  N3  ROC d           1.828   8.985  10.718  0.00  0.00    -0.362 N 
ATOM     87  H42 ROC d           0.975   9.482  10.560  0.00  0.00     0.162 HD
BRANCH  86  88
ATOM     88  CD  ROC d           2.049   8.298  12.035  0.00  0.00     0.021 C 
BRANCH  88  89
ATOM     89  C11 ROC d           0.853   8.614  12.868  0.00  0.00    -0.054 C 
ATOM     90  H43 ROC d           1.051   8.338  13.914  0.00  0.00     0.030 H 
ATOM     91  H44 ROC d          -0.013   8.047  12.496  0.00  0.00     0.030 H 
ATOM     92  H45 ROC d           0.638   9.691  12.808  0.00  0.00     0.030 H 
ENDBRANCH  88  89
BRANCH  88  93
ATOM     93  C22 ROC d           3.290   8.811  12.709  0.00  0.00    -0.054 C 
ATOM     94  H46 ROC d           3.136   9.856  13.016  0.00  0.00     0.030 H 
ATOM     95  H47 ROC d           4.137   8.756  12.010  0.00  0.00     0.030 H 
ATOM     96  H48 ROC d           3.507   8.197  13.596  0.00  0.00     0.030 H 
ENDBRANCH  88  93
BRANCH  88  97
ATOM     97  C32 ROC d           2.157   6.796  11.858  0.00  0.00    -0.054 C 
ATOM     98  H49 ROC d           3.218   6.506  11.820  0.00  0.00     0.030 H 
ATOM     99  H50 ROC d           1.663   6.500  10.921  0.00  0.00     0.030 H 
ATOM    100  H51 ROC d           1.669   6.290  12.705  0.00  0.00     0.030 H 
ENDBRANCH  88  97
ENDBRANCH  86  88
ENDBRANCH  59  84
ENDBRANCH  55  58
ENDBRANCH   1  55
TORSDOF 17
ENDMDL
MODEL 7
REMARK VINA RESULT:      -9.3      2.357     10.069
REMARK  17 active torsions:
REMARK  status: ('A' for Active; 'I' for Inactive)
REMARK    1  A    between atoms: C_1  and  C2_4 
REMARK    2  A    between atoms: CA_14  and  N_13 
REMARK    3  A    between atoms: C1_15  and  CA_14 
REMARK    4  A    between atoms: CA_14  and  CB_17 
REMARK       I    between atoms: N2_24  and  C1_15 
REMARK    5  A    between atoms: CB_17  and  CG_18 
REMARK    6  A    between atoms: C9_21  and  O2_22 
REMARK    7  A    between atoms: CA1_23  and  C9_21 
REMARK    8  A    between atoms: C9_21  and  CM_33 
REMARK    9  A    between atoms: CA1_23  and  N2_24 
REMARK   10  A    between atoms: CA1_23  and  CB1_25 
REMARK   11  A    between atoms: CB1_25  and  CG1_26 
REMARK   12  A    between atoms: CM_33  and  N11_32 
REMARK   13  A    between atoms: C21_34  and  CC_35 
REMARK       I    between atoms: CC_35  and  N3_45 
REMARK   14  A    between atoms: N3_45  and  CD_46 
REMARK   15  A    between atoms: CD_46  and  C11_47 
REMARK   16  A    between atoms: CD_46  and  C22_48 
REMARK   17  A    between atoms: CD_46  and  C32_49 
ROOT
ATOM      1  C9  ROC d          -3.711   3.308   6.833  0.00  0.00     0.078 C 
ATOM      2  H13 ROC d          -2.797   2.733   7.045  0.00  0.00     0.088 H 
ENDROOT
BRANCH   1   3
ATOM      3  O2  ROC d          -4.149   3.056   5.531  0.00  0.00    -0.392 OA
ATOM      4  H14 ROC d          -4.946   2.540   5.561  0.00  0.00     0.210 HD
ENDBRANCH   1   3
BRANCH   1   5
ATOM      5  CA1 ROC d          -3.424   4.812   6.956  0.00  0.00     0.041 C 
ATOM      6  H15 ROC d          -4.124   5.201   7.711  0.00  0.00     0.076 H 
BRANCH   5   7
ATOM      7  N2  ROC d          -2.058   5.022   7.488  0.00  0.00    -0.363 N 
ATOM      8  C1  ROC d          -1.941   5.728   8.675  0.00  0.00     0.175 C 
ATOM      9  O1  ROC d          -2.814   6.198   9.571  0.00  0.00    -0.175 OA
ATOM     10  H16 ROC d          -1.254   4.669   7.010  0.00  0.00     0.162 HD
BRANCH   8  11
ATOM     11  CA  ROC d          -0.480   6.014   9.029  0.00  0.00     0.083 C 
ATOM     12  H8  ROC d           0.103   5.905   8.103  0.00  0.00     0.086 H 
BRANCH  11  13
ATOM     13  N   ROC d          -0.335   7.375   9.481  0.00  0.00    -0.354 N 
ATOM     14  C   ROC d          -0.023   8.286   8.523  0.00  0.00     0.204 C 
ATOM     15  O   ROC d           0.085   8.275   7.198  0.00  0.00    -0.170 OA
ATOM     16  H7  ROC d          -0.457   7.633  10.440  0.00  0.00     0.162 HD
BRANCH  14  17
ATOM     17  C2  ROC d           0.319   9.639   9.154  0.00  0.00     0.111 A 
ATOM     18  N1  ROC d           1.221   9.676  10.187  0.00  0.00    -0.244 NA
ATOM     19  C8A ROC d           1.547  10.877  10.797  0.00  0.00     0.068 A 
ATOM     20  C8  ROC d           2.453  10.882  11.837  0.00  0.00    -0.054 A 
ATOM     21  C4A ROC d           0.958  12.061  10.356  0.00  0.00    -0.007 A 
ATOM     22  C7  ROC d           2.786  12.105  12.465  0.00  0.00    -0.081 A 
ATOM     23  H6  ROC d           2.906   9.955  12.170  0.00  0.00     0.087 H 
ATOM     24  C6  ROC d           2.207  13.280  12.029  0.00  0.00    -0.082 A 
ATOM     25  H5  ROC d           3.493  12.120  13.286  0.00  0.00     0.083 H 
ATOM     26  C5  ROC d           1.295  13.271  10.980  0.00  0.00    -0.071 A 
ATOM     27  H4  ROC d           2.467  14.217  12.508  0.00  0.00     0.083 H 
ATOM     28  H3  ROC d           0.845  14.199  10.646  0.00  0.00     0.084 H 
ATOM     29  C4  ROC d           0.049  12.033   9.310  0.00  0.00    -0.068 A 
ATOM     30  C3  ROC d          -0.277  10.825   8.707  0.00  0.00    -0.050 A 
ATOM     31  H2  ROC d          -0.406  12.953   8.962  0.00  0.00     0.085 H 
ATOM     32  H1  ROC d          -0.991  10.801   7.891  0.00  0.00     0.087 H 
ENDBRANCH  14  17
ENDBRANCH  11  13
BRANCH  11  33
ATOM     33  CB  ROC d           0.117   5.037  10.052  0.00  0.00     0.023 C 
ATOM     34  H9  ROC d           0.326   4.081   9.549  0.00  0.00     0.049 H 
ATOM     35  H10 ROC d          -0.615   4.875  10.858  0.00  0.00     0.049 H 
BRANCH  33  36
ATOM     36  CG  ROC d           1.429   5.573  10.670  0.00  0.00     0.151 C 
ATOM     37  OD1 ROC d           1.216   6.434  11.696  0.00  0.00    -0.178 OA
ATOM     38  ND2 ROC d           2.505   5.044  10.018  0.00  0.00    -0.381 N 
ATOM     39  H11 ROC d           3.431   5.293  10.300  0.00  0.00     0.158 HD
ATOM     40  H12 ROC d           2.366   4.408   9.259  0.00  0.00     0.158 HD
ENDBRANCH  33  36
ENDBRANCH  11  33
ENDBRANCH   8  11
ENDBRANCH   5   7
BRANCH   5  41
ATOM     41  CB1 ROC d          -3.687   5.618   5.687  0.00  0.00    -0.020 C 
ATOM     42  H17 ROC d          -4.609   5.251   5.213  0.00  0.00     0.043 H 
ATOM     43  H18 ROC d          -2.841   5.485   4.997  0.00  0.00     0.043 H 
BRANCH  41  44
ATOM     44  CG1 ROC d          -3.848   7.121   6.004  0.00  0.00    -0.056 A 
ATOM     45  CD1 ROC d          -2.937   8.054   5.545  0.00  0.00    -0.077 A 
ATOM     46  CE1 ROC d          -3.103   9.423   5.856  0.00  0.00    -0.082 A 
ATOM     47  H19 ROC d          -2.092   7.735   4.945  0.00  0.00     0.084 H 
ATOM     48  CZ  ROC d          -4.184   9.841   6.622  0.00  0.00    -0.083 A 
ATOM     49  H21 ROC d          -2.385  10.150   5.494  0.00  0.00     0.083 H 
ATOM     50  CE2 ROC d          -5.096   8.911   7.085  0.00  0.00    -0.082 A 
ATOM     51  H23 ROC d          -4.312  10.892   6.857  0.00  0.00     0.083 H 
ATOM     52  CD2 ROC d          -4.928   7.548   6.778  0.00  0.00    -0.077 A 
ATOM     53  H22 ROC d          -5.941   9.232   7.683  0.00  0.00     0.083 H 
ATOM     54  H20 ROC d          -5.645   6.822   7.146  0.00  0.00     0.084 H 
ENDBRANCH  41  44
ENDBRANCH   5  41
ENDBRANCH   1   5
BRANCH   1  55
ATOM     55  CM  ROC d          -4.795   2.913   7.794  0.00  0.00     0.110 C 
ATOM     56  H25 ROC d          -5.645   2.525   7.215  0.00  0.00     0.080 H 
ATOM     57  H26 ROC d          -5.108   3.811   8.348  0.00  0.00     0.080 H 
BRANCH  55  58
ATOM     58  N11 ROC d          -4.391   1.880   8.775  0.00  0.00    -0.057 N 
ATOM     59  C21 ROC d          -4.162   0.537   8.170  0.00  0.00     0.167 C 
ATOM     60  C31 ROC d          -3.821  -0.461   9.263  0.00  0.00    -0.027 C 
ATOM     61  H27 ROC d          -3.275   0.639   7.528  0.00  0.00     0.098 H 
ATOM     62  C3A ROC d          -4.755  -0.513  10.448  0.00  0.00    -0.047 C 
ATOM     63  H28 ROC d          -2.818  -0.212   9.640  0.00  0.00     0.037 H 
ATOM     64  H29 ROC d          -3.805  -1.461   8.807  0.00  0.00     0.037 H 
ATOM     65  C41 ROC d          -6.062  -1.253  10.099  0.00  0.00    -0.061 C 
ATOM     66  C7A ROC d          -4.990   0.864  10.991  0.00  0.00    -0.027 C 
ATOM     67  H30 ROC d          -4.256  -1.094  11.238  0.00  0.00     0.040 H 
ATOM     68  C51 ROC d          -7.031  -1.290  11.216  0.00  0.00    -0.065 C 
ATOM     69  H31 ROC d          -5.814  -2.287   9.819  0.00  0.00     0.033 H 
ATOM     70  H32 ROC d          -6.534  -0.745   9.245  0.00  0.00     0.033 H 
ATOM     71  C61 ROC d          -7.315   0.105  11.747  0.00  0.00    -0.065 C 
ATOM     72  H33 ROC d          -6.618  -1.905  12.028  0.00  0.00     0.033 H 
ATOM     73  H34 ROC d          -7.972  -1.735  10.860  0.00  0.00     0.033 H 
ATOM     74  C71 ROC d          -6.035   0.875  12.083  0.00  0.00    -0.060 C 
ATOM     75  H35 ROC d          -7.924   0.019  12.658  0.00  0.00     0.033 H 
ATOM     76  H36 ROC d          -7.874   0.666  10.984  0.00  0.00     0.033 H 
ATOM     77  H37 ROC d          -5.592   0.429  12.986  0.00  0.00     0.033 H 
ATOM     78  H38 ROC d          -6.307   1.921  12.286  0.00  0.00     0.033 H 
ATOM     79  C81 ROC d          -5.365   1.857   9.875  0.00  0.00     0.088 C 
ATOM     80  H39 ROC d          -4.044   1.206  11.435  0.00  0.00     0.043 H 
ATOM     81  H40 ROC d          -6.348   1.573   9.467  0.00  0.00     0.076 H 
ATOM     82  H41 ROC d          -5.427   2.866  10.310  0.00  0.00     0.076 H 
ATOM     83  H24 ROC d          -3.508   2.171   9.164  0.00  0.00     0.281 HD
BRANCH  59  84
ATOM     84  CC  ROC d          -5.264  -0.018   7.281  0.00  0.00     0.183 C 
ATOM     85  O3  ROC d          -5.165  -1.288   6.942  0.00  0.00    -0.175 OA
ATOM     86  N3  ROC d          -6.217   0.951   6.975  0.00  0.00    -0.362 N 
ATOM     87  H42 ROC d          -6.141   1.860   7.385  0.00  0.00     0.162 HD
BRANCH  86  88
ATOM     88  CD  ROC d          -7.355   0.656   6.041  0.00  0.00     0.021 C 
BRANCH  88  89
ATOM     89  C11 ROC d          -8.185   1.895   6.002  0.00  0.00    -0.054 C 
ATOM     90  H43 ROC d          -8.889   1.892   6.846  0.00  0.00     0.030 H 
ATOM     91  H44 ROC d          -8.746   1.930   5.056  0.00  0.00     0.030 H 
ATOM     92  H45 ROC d          -7.531   2.777   6.072  0.00  0.00     0.030 H 
ENDBRANCH  88  89
BRANCH  88  93
ATOM     93  C22 ROC d          -8.180  -0.495   6.544  0.00  0.00    -0.054 C 
ATOM     94  H46 ROC d          -8.936  -0.762   5.791  0.00  0.00     0.030 H 
ATOM     95  H47 ROC d          -8.682  -0.206   7.480  0.00  0.00     0.030 H 
ATOM     96  H48 ROC d          -7.528  -1.360   6.731  0.00  0.00     0.030 H 
ENDBRANCH  88  93
BRANCH  88  97
ATOM     97  C32 ROC d          -6.851   0.342   4.646  0.00  0.00    -0.054 C 
ATOM     98  H49 ROC d          -6.428   1.252   4.195  0.00  0.00     0.030 H 
ATOM     99  H50 ROC d          -7.685  -0.020   4.027  0.00  0.00     0.030 H 
ATOM    100  H51 ROC d          -6.074  -0.435   4.703  0.00  0.00     0.030 H 
ENDBRANCH  88  97
ENDBRANCH  86  88
ENDBRANCH  59  84
ENDBRANCH  55  58
ENDBRANCH   1  55
TORSDOF 17
ENDMDL
MODEL 8
REMARK VINA RESULT:      -9.2      2.280      9.452
REMARK  17 active torsions:
REMARK  status: ('A' for Active; 'I' for Inactive)
REMARK    1  A    between atoms: C_1  and  C2_4 
REMARK    2  A    between atoms: CA_14  and  N_13 
REMARK    3  A    between atoms: C1_15  and  CA_14 
REMARK    4  A    between atoms: CA_14  and  CB_17 
REMARK       I    between atoms: N2_24  and  C1_15 
REMARK    5  A    between atoms: CB_17  and  CG_18 
REMARK    6  A    between atoms: C9_21  and  O2_22 
REMARK    7  A    between atoms: CA1_23  and  C9_21 
REMARK    8  A    between atoms: C9_21  and  CM_33 
REMARK    9  A    between atoms: CA1_23  and  N2_24 
REMARK   10  A    between atoms: CA1_23  and  CB1_25 
REMARK   11  A    between atoms: CB1_25  and  CG1_26 
REMARK   12  A    between atoms: CM_33  and  N11_32 
REMARK   13  A    between atoms: C21_34  and  CC_35 
REMARK       I    between atoms: CC_35  and  N3_45 
REMARK   14  A    between atoms: N3_45  and  CD_46 
REMARK   15  A    between atoms: CD_46  and  C11_47 
REMARK   16  A    between atoms: CD_46  and  C22_48 
REMARK   17  A    between atoms: CD_46  and  C32_49 
ROOT
ATOM      1  C9  ROC d          -4.320   4.307   5.593  0.00  0.00     0.078 C 
ATOM      2  H13 ROC d          -3.807   4.109   4.640  0.00  0.00     0.088 H 
ENDROOT
BRANCH   1   3
ATOM      3  O2  ROC d          -5.698   4.403   5.388  0.00  0.00    -0.392 OA
ATOM      4  H14 ROC d          -5.931   5.310   5.231  0.00  0.00     0.210 HD
ENDBRANCH   1   3
BRANCH   1   5
ATOM      5  CA1 ROC d          -3.833   5.639   6.183  0.00  0.00     0.041 C 
ATOM      6  H15 ROC d          -4.607   5.966   6.893  0.00  0.00     0.076 H 
BRANCH   5   7
ATOM      7  N2  ROC d          -2.597   5.419   6.969  0.00  0.00    -0.363 N 
ATOM      8  C1  ROC d          -2.556   5.947   8.250  0.00  0.00     0.175 C 
ATOM      9  O1  ROC d          -3.452   6.546   9.041  0.00  0.00    -0.175 OA
ATOM     10  H16 ROC d          -1.823   4.910   6.591  0.00  0.00     0.162 HD
BRANCH   8  11
ATOM     11  CA  ROC d          -1.175   5.791   8.890  0.00  0.00     0.083 C 
ATOM     12  H8  ROC d          -0.499   5.414   8.109  0.00  0.00     0.086 H 
BRANCH  11  13
ATOM     13  N   ROC d          -0.677   7.075   9.318  0.00  0.00    -0.354 N 
ATOM     14  C   ROC d          -0.463   7.984   8.331  0.00  0.00     0.204 C 
ATOM     15  O   ROC d          -0.702   8.046   7.026  0.00  0.00    -0.170 OA
ATOM     16  H7  ROC d          -0.502   7.283  10.280  0.00  0.00     0.162 HD
BRANCH  14  17
ATOM     17  C2  ROC d           0.267   9.214   8.880  0.00  0.00     0.111 A 
ATOM     18  N1  ROC d           0.823   9.148  10.131  0.00  0.00    -0.244 NA
ATOM     19  C8A ROC d           1.478  10.243  10.672  0.00  0.00     0.068 A 
ATOM     20  C8  ROC d           2.023  10.147  11.936  0.00  0.00    -0.054 A 
ATOM     21  C4A ROC d           1.578  11.424   9.937  0.00  0.00    -0.007 A 
ATOM     22  C7  ROC d           2.690  11.264  12.493  0.00  0.00    -0.081 A 
ATOM     23  H6  ROC d           1.941   9.224  12.497  0.00  0.00     0.087 H 
ATOM     24  C6  ROC d           2.793  12.433  11.767  0.00  0.00    -0.082 A 
ATOM     25  H5  ROC d           3.117  11.202  13.487  0.00  0.00     0.083 H 
ATOM     26  C5  ROC d           2.243  12.526  10.494  0.00  0.00    -0.071 A 
ATOM     27  H4  ROC d           3.308  13.287  12.194  0.00  0.00     0.083 H 
ATOM     28  H3  ROC d           2.329  13.449   9.933  0.00  0.00     0.084 H 
ATOM     29  C4  ROC d           1.022  11.497   8.670  0.00  0.00    -0.068 A 
ATOM     30  C3  ROC d           0.362  10.398   8.137  0.00  0.00    -0.050 A 
ATOM     31  H2  ROC d           1.102  12.413   8.096  0.00  0.00     0.085 H 
ATOM     32  H1  ROC d          -0.078  10.456   7.148  0.00  0.00     0.087 H 
ENDBRANCH  14  17
ENDBRANCH  11  13
BRANCH  11  33
ATOM     33  CB  ROC d          -1.134   4.781  10.046  0.00  0.00     0.023 C 
ATOM     34  H9  ROC d          -1.712   3.890   9.759  0.00  0.00     0.049 H 
ATOM     35  H10 ROC d          -1.586   5.242  10.936  0.00  0.00     0.049 H 
BRANCH  33  36
ATOM     36  CG  ROC d           0.311   4.349  10.387  0.00  0.00     0.151 C 
ATOM     37  OD1 ROC d           1.108   5.393  10.728  0.00  0.00    -0.178 OA
ATOM     38  ND2 ROC d           0.440   2.997  10.256  0.00  0.00    -0.381 N 
ATOM     39  H11 ROC d           1.318   2.558  10.442  0.00  0.00     0.158 HD
ATOM     40  H12 ROC d          -0.345   2.446   9.973  0.00  0.00     0.158 HD
ENDBRANCH  33  36
ENDBRANCH  11  33
ENDBRANCH   8  11
ENDBRANCH   5   7
BRANCH   5  41
ATOM     41  CB1 ROC d          -3.686   6.771   5.171  0.00  0.00    -0.020 C 
ATOM     42  H17 ROC d          -4.238   6.509   4.256  0.00  0.00     0.043 H 
ATOM     43  H18 ROC d          -2.620   6.903   4.931  0.00  0.00     0.043 H 
BRANCH  41  44
ATOM     44  CG1 ROC d          -4.244   8.098   5.732  0.00  0.00    -0.056 A 
ATOM     45  CD1 ROC d          -3.597   9.299   5.512  0.00  0.00    -0.077 A 
ATOM     46  CE1 ROC d          -4.125  10.499   6.044  0.00  0.00    -0.082 A 
ATOM     47  H19 ROC d          -2.683   9.323   4.930  0.00  0.00     0.084 H 
ATOM     48  CZ  ROC d          -5.298  10.478   6.789  0.00  0.00    -0.083 A 
ATOM     49  H21 ROC d          -3.613  11.438   5.869  0.00  0.00     0.083 H 
ATOM     50  CE2 ROC d          -5.946   9.278   7.013  0.00  0.00    -0.082 A 
ATOM     51  H23 ROC d          -5.702  11.399   7.193  0.00  0.00     0.083 H 
ATOM     52  CD2 ROC d          -5.419   8.084   6.486  0.00  0.00    -0.077 A 
ATOM     53  H22 ROC d          -6.861   9.257   7.594  0.00  0.00     0.083 H 
ATOM     54  H20 ROC d          -5.929   7.145   6.668  0.00  0.00     0.084 H 
ENDBRANCH  41  44
ENDBRANCH   5  41
ENDBRANCH   1   5
BRANCH   1  55
ATOM     55  CM  ROC d          -4.050   3.190   6.558  0.00  0.00     0.110 C 
ATOM     56  H25 ROC d          -3.465   3.594   7.398  0.00  0.00     0.080 H 
ATOM     57  H26 ROC d          -3.462   2.419   6.038  0.00  0.00     0.080 H 
BRANCH  55  58
ATOM     58  N11 ROC d          -5.268   2.553   7.106  0.00  0.00    -0.057 N 
ATOM     59  C21 ROC d          -5.160   2.193   8.549  0.00  0.00     0.167 C 
ATOM     60  C31 ROC d          -6.429   1.487   8.993  0.00  0.00    -0.027 C 
ATOM     61  H27 ROC d          -5.102   3.145   9.097  0.00  0.00     0.098 H 
ATOM     62  C3A ROC d          -6.894   0.329   8.144  0.00  0.00    -0.047 C 
ATOM     63  H28 ROC d          -7.236   2.234   9.010  0.00  0.00     0.037 H 
ATOM     64  H29 ROC d          -6.259   1.107  10.011  0.00  0.00     0.037 H 
ATOM     65  C41 ROC d          -6.037  -0.929   8.394  0.00  0.00    -0.061 C 
ATOM     66  C7A ROC d          -6.942   0.726   6.700  0.00  0.00    -0.027 C 
ATOM     67  H30 ROC d          -7.922   0.086   8.450  0.00  0.00     0.040 H 
ATOM     68  C51 ROC d          -6.424  -2.079   7.549  0.00  0.00    -0.065 C 
ATOM     69  H31 ROC d          -6.143  -1.220   9.448  0.00  0.00     0.033 H 
ATOM     70  H32 ROC d          -4.985  -0.682   8.186  0.00  0.00     0.033 H 
ATOM     71  C61 ROC d          -6.433  -1.704   6.076  0.00  0.00    -0.065 C 
ATOM     72  H33 ROC d          -7.430  -2.414   7.839  0.00  0.00     0.033 H 
ATOM     73  H34 ROC d          -5.705  -2.897   7.705  0.00  0.00     0.033 H 
ATOM     74  C71 ROC d          -7.258  -0.445   5.797  0.00  0.00    -0.060 C 
ATOM     75  H35 ROC d          -6.859  -2.539   5.502  0.00  0.00     0.033 H 
ATOM     76  H36 ROC d          -5.398  -1.526   5.751  0.00  0.00     0.033 H 
ATOM     77  H37 ROC d          -8.322  -0.696   5.922  0.00  0.00     0.033 H 
ATOM     78  H38 ROC d          -7.074  -0.136   4.758  0.00  0.00     0.033 H 
ATOM     79  C81 ROC d          -5.636   1.412   6.255  0.00  0.00     0.088 C 
ATOM     80  H39 ROC d          -7.756   1.458   6.589  0.00  0.00     0.043 H 
ATOM     81  H40 ROC d          -4.822   0.672   6.289  0.00  0.00     0.076 H 
ATOM     82  H41 ROC d          -5.763   1.771   5.223  0.00  0.00     0.076 H 
ATOM     83  H24 ROC d          -6.013   3.229   7.037  0.00  0.00     0.281 HD
BRANCH  59  84
ATOM     84  CC  ROC d          -3.939   1.389   8.971  0.00  0.00     0.183 C 
ATOM     85  O3  ROC d          -3.288   0.760   8.014  0.00  0.00    -0.175 OA
ATOM     86  N3  ROC d          -3.719   1.470  10.344  0.00  0.00    -0.362 N 
ATOM     87  H42 ROC d          -4.305   2.058  10.902  0.00  0.00     0.162 HD
BRANCH  86  88
ATOM     88  CD  ROC d          -2.618   0.689  11.003  0.00  0.00     0.021 C 
BRANCH  88  89
ATOM     89  C11 ROC d          -3.187  -0.660  11.290  0.00  0.00    -0.054 C 
ATOM     90  H43 ROC d          -2.778  -1.390  10.577  0.00  0.00     0.030 H 
ATOM     91  H44 ROC d          -4.282  -0.624  11.191  0.00  0.00     0.030 H 
ATOM     92  H45 ROC d          -2.922  -0.960  12.314  0.00  0.00     0.030 H 
ENDBRANCH  88  89
BRANCH  88  93
ATOM     93  C22 ROC d          -2.186   1.343  12.285  0.00  0.00    -0.054 C 
ATOM     94  H46 ROC d          -2.977   1.230  13.040  0.00  0.00     0.030 H 
ATOM     95  H47 ROC d          -1.999   2.413  12.106  0.00  0.00     0.030 H 
ATOM     96  H48 ROC d          -1.263   0.867  12.647  0.00  0.00     0.030 H 
ENDBRANCH  88  93
BRANCH  88  97
ATOM     97  C32 ROC d          -1.422   0.546  10.082  0.00  0.00    -0.054 C 
ATOM     98  H49 ROC d          -0.995  -0.462  10.189  0.00  0.00     0.030 H 
ATOM     99  H50 ROC d          -0.662   1.295  10.348  0.00  0.00     0.030 H 
ATOM    100  H51 ROC d          -1.740   0.701   9.040  0.00  0.00     0.030 H 
ENDBRANCH  88  97
ENDBRANCH  86  88
ENDBRANCH  59  84
ENDBRANCH  55  58
ENDBRANCH   1  55
TORSDOF 17
ENDMDL
MODEL 9
REMARK VINA RESULT:      -8.8      2.138      9.954
REMARK  17 active torsions:
REMARK  status: ('A' for Active; 'I' for Inactive)
REMARK    1  A    between atoms: C_1  and  C2_4 
REMARK    2  A    between atoms: CA_14  and  N_13 
REMARK    3  A    between atoms: C1_15  and  CA_14 
REMARK    4  A    between atoms: CA_14  and  CB_17 
REMARK       I    between atoms: N2_24  and  C1_15 
REMARK    5  A    between atoms: CB_17  and  CG_18 
REMARK    6  A    between atoms: C9_21  and  O2_22 
REMARK    7  A    between atoms: CA1_23  and  C9_21 
REMARK    8  A    between atoms: C9_21  and  CM_33 
REMARK    9  A    between atoms: CA1_23  and  N2_24 
REMARK   10  A    between atoms: CA1_23  and  CB1_25 
REMARK   11  A    between atoms: CB1_25  and  CG1_26 
REMARK   12  A    between atoms: CM_33  and  N11_32 
REMARK   13  A    between atoms: C21_34  and  CC_35 
REMARK       I    between atoms: CC_35  and  N3_45 
REMARK   14  A    between atoms: N3_45  and  CD_46 
REMARK   15  A    between atoms: CD_46  and  C11_47 
REMARK   16  A    between atoms: CD_46  and  C22_48 
REMARK   17  A    between atoms: CD_46  and  C32_49 
ROOT
ATOM      1  C9  ROC d          -4.114   6.029   5.612  0.00  0.00     0.078 C 
ATOM      2  H13 ROC d          -3.637   5.823   4.643  0.00  0.00     0.088 H 
ENDROOT
BRANCH   1   3
ATOM      3  O2  ROC d          -5.420   6.484   5.422  0.00  0.00    -0.392 OA
ATOM      4  H14 ROC d          -5.784   6.082   4.642  0.00  0.00     0.210 HD
ENDBRANCH   1   3
BRANCH   1   5
ATOM      5  CA1 ROC d          -3.334   7.122   6.359  0.00  0.00     0.041 C 
ATOM      6  H15 ROC d          -4.015   7.524   7.123  0.00  0.00     0.076 H 
BRANCH   5   7
ATOM      7  N2  ROC d          -2.188   6.520   7.079  0.00  0.00    -0.363 N 
ATOM      8  C1  ROC d          -2.313   6.365   8.451  0.00  0.00     0.175 C 
ATOM      9  O1  ROC d          -3.313   6.530   9.322  0.00  0.00    -0.175 OA
ATOM     10  H16 ROC d          -1.360   6.237   6.596  0.00  0.00     0.162 HD
BRANCH   8  11
ATOM     11  CA  ROC d          -1.009   5.885   9.093  0.00  0.00     0.083 C 
ATOM     12  H8  ROC d          -0.306   5.673   8.275  0.00  0.00     0.086 H 
BRANCH  11  13
ATOM     13  N   ROC d          -0.438   6.932   9.902  0.00  0.00    -0.354 N 
ATOM     14  C   ROC d           0.254   7.888   9.229  0.00  0.00     0.204 C 
ATOM     15  O   ROC d           0.466   8.188   7.952  0.00  0.00    -0.170 OA
ATOM     16  H7  ROC d          -0.546   6.955  10.897  0.00  0.00     0.162 HD
BRANCH  14  17
ATOM     17  C2  ROC d           0.990   8.811  10.205  0.00  0.00     0.111 A 
ATOM     18  N1  ROC d           1.786   8.249  11.171  0.00  0.00    -0.244 NA
ATOM     19  C8A ROC d           2.458   9.046  12.084  0.00  0.00     0.068 A 
ATOM     20  C8  ROC d           3.247   8.452  13.047  0.00  0.00    -0.054 A 
ATOM     21  C4A ROC d           2.328  10.433  12.021  0.00  0.00    -0.007 A 
ATOM     22  C7  ROC d           3.931   9.262  13.984  0.00  0.00    -0.081 A 
ATOM     23  H6  ROC d           3.342   7.373  13.085  0.00  0.00     0.087 H 
ATOM     24  C6  ROC d           3.808  10.635  13.922  0.00  0.00    -0.082 A 
ATOM     25  H5  ROC d           4.550   8.805  14.748  0.00  0.00     0.083 H 
ATOM     26  C5  ROC d           3.013  11.230  12.951  0.00  0.00    -0.071 A 
ATOM     27  H4  ROC d           4.336  11.255  14.638  0.00  0.00     0.083 H 
ATOM     28  H3  ROC d           2.921  12.309  12.911  0.00  0.00     0.084 H 
ATOM     29  C4  ROC d           1.529  11.008  11.046  0.00  0.00    -0.068 A 
ATOM     30  C3  ROC d           0.855  10.203  10.137  0.00  0.00    -0.050 A 
ATOM     31  H2  ROC d           1.431  12.086  10.992  0.00  0.00     0.085 H 
ATOM     32  H1  ROC d           0.226  10.652   9.377  0.00  0.00     0.087 H 
ENDBRANCH  14  17
ENDBRANCH  11  13
BRANCH  11  33
ATOM     33  CB  ROC d          -1.153   4.590   9.906  0.00  0.00     0.023 C 
ATOM     34  H9  ROC d          -1.854   3.920   9.385  0.00  0.00     0.049 H 
ATOM     35  H10 ROC d          -1.554   4.838  10.900  0.00  0.00     0.049 H 
BRANCH  33  36
ATOM     36  CG  ROC d           0.199   3.860  10.080  0.00  0.00     0.151 C 
ATOM     37  OD1 ROC d           1.223   4.491   9.453  0.00  0.00    -0.178 OA
ATOM     38  ND2 ROC d           0.030   2.734  10.832  0.00  0.00    -0.381 N 
ATOM     39  H11 ROC d           0.814   2.149  11.036  0.00  0.00     0.158 HD
ATOM     40  H12 ROC d          -0.877   2.495  11.177  0.00  0.00     0.158 HD
ENDBRANCH  33  36
ENDBRANCH  11  33
ENDBRANCH   8  11
ENDBRANCH   5   7
BRANCH   5  41
ATOM     41  CB1 ROC d          -2.920   8.312   5.498  0.00  0.00    -0.020 C 
ATOM     42  H17 ROC d          -3.319   8.176   4.481  0.00  0.00     0.043 H 
ATOM     43  H18 ROC d          -1.822   8.361   5.457  0.00  0.00     0.043 H 
BRANCH  41  44
ATOM     44  CG1 ROC d          -3.463   9.637   6.079  0.00  0.00    -0.056 A 
ATOM     45  CD1 ROC d          -2.763  10.340   7.041  0.00  0.00    -0.077 A 
ATOM     46  CE1 ROC d          -3.285  11.546   7.562  0.00  0.00    -0.082 A 
ATOM     47  H19 ROC d          -1.809   9.966   7.397  0.00  0.00     0.084 H 
ATOM     48  CZ  ROC d          -4.505  12.033   7.109  0.00  0.00    -0.083 A 
ATOM     49  H21 ROC d          -2.733  12.092   8.317  0.00  0.00     0.083 H 
ATOM     50  CE2 ROC d          -5.209  11.333   6.148  0.00  0.00    -0.082 A 
ATOM     51  H23 ROC d          -4.903  12.960   7.507  0.00  0.00     0.083 H 
ATOM     52  CD2 ROC d          -4.690  10.130   5.633  0.00  0.00    -0.077 A 
ATOM     53  H22 ROC d          -6.161  11.708   5.792  0.00  0.00     0.083 H 
ATOM     54  H20 ROC d          -5.248   9.582   4.882  0.00  0.00     0.084 H 
ENDBRANCH  41  44
ENDBRANCH   5  41
ENDBRANCH   1   5
BRANCH   1  55
ATOM     55  CM  ROC d          -4.153   4.775   6.437  0.00  0.00     0.110 C 
ATOM     56  H25 ROC d          -3.775   5.012   7.443  0.00  0.00     0.080 H 
ATOM     57  H26 ROC d          -3.496   4.031   5.963  0.00  0.00     0.080 H 
BRANCH  55  58
ATOM     58  N11 ROC d          -5.502   4.182   6.576  0.00  0.00    -0.057 N 
ATOM     59  C21 ROC d          -5.636   3.265   7.744  0.00  0.00     0.167 C 
ATOM     60  C31 ROC d          -7.028   2.659   7.757  0.00  0.00    -0.027 C 
ATOM     61  H27 ROC d          -5.542   3.896   8.640  0.00  0.00     0.098 H 
ATOM     62  C3A ROC d          -7.505   2.028   6.472  0.00  0.00    -0.047 C 
ATOM     63  H28 ROC d          -7.737   3.458   8.019  0.00  0.00     0.037 H 
ATOM     64  H29 ROC d          -7.046   1.883   8.536  0.00  0.00     0.037 H 
ATOM     65  C41 ROC d          -6.845   0.653   6.243  0.00  0.00    -0.061 C 
ATOM     66  C7A ROC d          -7.307   2.968   5.322  0.00  0.00    -0.027 C 
ATOM     67  H30 ROC d          -8.587   1.855   6.568  0.00  0.00     0.040 H 
ATOM     68  C51 ROC d          -7.245   0.014   4.971  0.00  0.00    -0.065 C 
ATOM     69  H31 ROC d          -7.130  -0.013   7.071  0.00  0.00     0.033 H 
ATOM     70  H32 ROC d          -5.753   0.786   6.238  0.00  0.00     0.033 H 
ATOM     71  C61 ROC d          -7.008   0.940   3.790  0.00  0.00    -0.065 C 
ATOM     72  H33 ROC d          -8.314  -0.239   5.018  0.00  0.00     0.033 H 
ATOM     73  H34 ROC d          -6.657  -0.904   4.830  0.00  0.00     0.033 H 
ATOM     74  C71 ROC d          -7.633   2.323   3.995  0.00  0.00    -0.060 C 
ATOM     75  H35 ROC d          -7.446   0.484   2.890  0.00  0.00     0.033 H 
ATOM     76  H36 ROC d          -5.924   1.061   3.648  0.00  0.00     0.033 H 
ATOM     77  H37 ROC d          -8.726   2.221   3.921  0.00  0.00     0.033 H 
ATOM     78  H38 ROC d          -7.272   2.985   3.194  0.00  0.00     0.033 H 
ATOM     79  C81 ROC d          -5.881   3.551   5.304  0.00  0.00     0.088 C 
ATOM     80  H39 ROC d          -8.007   3.807   5.461  0.00  0.00     0.043 H 
ATOM     81  H40 ROC d          -5.172   2.736   5.091  0.00  0.00     0.076 H 
ATOM     82  H41 ROC d          -5.822   4.306   4.506  0.00  0.00     0.076 H 
ATOM     83  H24 ROC d          -6.145   4.942   6.736  0.00  0.00     0.281 HD
BRANCH  59  84
ATOM     84  CC  ROC d          -4.588   2.171   7.889  0.00  0.00     0.183 C 
ATOM     85  O3  ROC d          -3.709   2.065   6.913  0.00  0.00    -0.175 OA
ATOM     86  N3  ROC d          -4.751   1.455   9.072  0.00  0.00    -0.362 N 
ATOM     87  H42 ROC d          -5.459   1.734   9.721  0.00  0.00     0.162 HD
BRANCH  86  88
ATOM     88  CD  ROC d          -3.883   0.272   9.391  0.00  0.00     0.021 C 
BRANCH  88  89
ATOM     89  C11 ROC d          -2.492   0.800   9.498  0.00  0.00    -0.054 C 
ATOM     90  H43 ROC d          -2.322   1.182  10.515  0.00  0.00     0.030 H 
ATOM     91  H44 ROC d          -2.353   1.616   8.772  0.00  0.00     0.030 H 
ATOM     92  H45 ROC d          -1.776  -0.006   9.284  0.00  0.00     0.030 H 
ENDBRANCH  88  89
BRANCH  88  93
ATOM     93  C22 ROC d          -3.955  -0.759   8.300  0.00  0.00    -0.054 C 
ATOM     94  H46 ROC d          -3.322  -1.619   8.565  0.00  0.00     0.030 H 
ATOM     95  H47 ROC d          -3.600  -0.320   7.356  0.00  0.00     0.030 H 
ATOM     96  H48 ROC d          -4.995  -1.094   8.179  0.00  0.00     0.030 H 
ENDBRANCH  88  93
BRANCH  88  97
ATOM     97  C32 ROC d          -4.284  -0.362  10.709  0.00  0.00    -0.054 C 
ATOM     98  H49 ROC d          -4.420   0.423  11.468  0.00  0.00     0.030 H 
ATOM     99  H50 ROC d          -3.496  -1.055  11.038  0.00  0.00     0.030 H 
ATOM    100  H51 ROC d          -5.227  -0.914  10.579  0.00  0.00     0.030 H 
ENDBRANCH  88  97
ENDBRANCH  86  88
ENDBRANCH  59  84
ENDBRANCH  55  58
ENDBRANCH   1  55
TORSDOF 17
ENDMDL
MODEL 10
REMARK VINA RESULT:      -8.6      2.172      9.560
REMARK  17 active torsions:
REMARK  status: ('A' for Active; 'I' for Inactive)
REMARK    1  A    between atoms: C_1  and  C2_4 
REMARK    2  A    between atoms: CA_14  and  N_13 
REMARK    3  A    between atoms: C1_15  and  CA_14 
REMARK    4  A    between atoms: CA_14  and  CB_17 
REMARK       I    between atoms: N2_24  and  C1_15 
REMARK    5  A    between atoms: CB_17  and  CG_18 
REMARK    6  A    between atoms: C9_21  and  O2_22 
REMARK    7  A    between atoms: CA1_23  and  C9_21 
REMARK    8  A    between atoms: C9_21  and  CM_33 
REMARK    9  A    between atoms: CA1_23  and  N2_24 
REMARK   10  A    between atoms: CA1_23  and  CB1_25 
REMARK   11  A    between atoms: CB1_25  and  CG1_26 
REMARK   12  A    between atoms: CM_33  and  N11_32 
REMARK   13  A    between atoms: C21_34  and  CC_35 
REMARK       I    between atoms: CC_35  and  N3_45 
REMARK   14  A    between atoms: N3_45  and  CD_46 
REMARK   15  A    between atoms: CD_46  and  C11_47 
REMARK   16  A    between atoms: CD_46  and  C22_48 
REMARK   17  A    between atoms: CD_46  and  C32_49 
ROOT
ATOM      1  C9  ROC d          -4.246   3.752   6.107  0.00  0.00     0.078 C 
ATOM      2  H13 ROC d          -3.438   3.222   5.583  0.00  0.00     0.088 H 
ENDROOT
BRANCH   1   3
ATOM      3  O2  ROC d          -5.368   3.860   5.281  0.00  0.00    -0.392 OA
ATOM      4  H14 ROC d          -5.902   3.080   5.372  0.00  0.00     0.210 HD
ENDBRANCH   1   3
BRANCH   1   5
ATOM      5  CA1 ROC d          -3.790   5.171   6.477  0.00  0.00     0.041 C 
ATOM      6  H15 ROC d          -4.529   5.558   7.195  0.00  0.00     0.076 H 
BRANCH   5   7
ATOM      7  N2  ROC d          -2.491   5.113   7.187  0.00  0.00    -0.363 N 
ATOM      8  C1  ROC d          -2.438   5.663   8.458  0.00  0.00     0.175 C 
ATOM      9  O1  ROC d          -3.350   6.162   9.298  0.00  0.00    -0.175 OA
ATOM     10  H16 ROC d          -1.686   4.694   6.766  0.00  0.00     0.162 HD
BRANCH   8  11
ATOM     11  CA  ROC d          -1.013   5.683   9.014  0.00  0.00     0.083 C 
ATOM     12  H8  ROC d          -0.423   4.974   8.415  0.00  0.00     0.086 H 
BRANCH  11  13
ATOM     13  N   ROC d          -0.431   6.991   8.843  0.00  0.00    -0.354 N 
ATOM     14  C   ROC d           0.799   7.168   9.392  0.00  0.00     0.204 C 
ATOM     15  O   ROC d           1.699   6.387   9.981  0.00  0.00    -0.170 OA
ATOM     16  H7  ROC d          -0.903   7.723   8.350  0.00  0.00     0.162 HD
BRANCH  14  17
ATOM     17  C2  ROC d           1.209   8.642   9.338  0.00  0.00     0.111 A 
ATOM     18  N1  ROC d           1.636   9.251  10.490  0.00  0.00    -0.244 NA
ATOM     19  C8A ROC d           2.002  10.588  10.489  0.00  0.00     0.068 A 
ATOM     20  C8  ROC d           2.423  11.174  11.664  0.00  0.00    -0.054 A 
ATOM     21  C4A ROC d           1.939  11.323   9.305  0.00  0.00    -0.007 A 
ATOM     22  C7  ROC d           2.793  12.539  11.668  0.00  0.00    -0.081 A 
ATOM     23  H6  ROC d           2.470  10.592  12.578  0.00  0.00     0.087 H 
ATOM     24  C6  ROC d           2.735  13.269  10.498  0.00  0.00    -0.082 A 
ATOM     25  H5  ROC d           3.121  13.011  12.587  0.00  0.00     0.083 H 
ATOM     26  C5  ROC d           2.311  12.676   9.315  0.00  0.00    -0.071 A 
ATOM     27  H4  ROC d           3.023  14.314  10.502  0.00  0.00     0.083 H 
ATOM     28  H3  ROC d           2.268  13.257   8.402  0.00  0.00     0.084 H 
ATOM     29  C4  ROC d           1.512  10.714   8.136  0.00  0.00    -0.068 A 
ATOM     30  C3  ROC d           1.142   9.375   8.146  0.00  0.00    -0.050 A 
ATOM     31  H2  ROC d           1.466  11.282   7.214  0.00  0.00     0.085 H 
ATOM     32  H1  ROC d           0.803   8.899   7.233  0.00  0.00     0.087 H 
ENDBRANCH  14  17
ENDBRANCH  11  13
BRANCH  11  33
ATOM     33  CB  ROC d          -0.906   5.230  10.477  0.00  0.00     0.023 C 
ATOM     34  H9  ROC d          -1.745   5.660  11.044  0.00  0.00     0.049 H 
ATOM     35  H10 ROC d           0.044   5.596  10.894  0.00  0.00     0.049 H 
BRANCH  33  36
ATOM     36  CG  ROC d          -0.950   3.690  10.613  0.00  0.00     0.151 C 
ATOM     37  OD1 ROC d          -2.113   3.240  11.147  0.00  0.00    -0.178 OA
ATOM     38  ND2 ROC d           0.215   3.146  10.158  0.00  0.00    -0.381 N 
ATOM     39  H11 ROC d           0.345   2.155  10.178  0.00  0.00     0.158 HD
ATOM     40  H12 ROC d           0.939   3.738   9.806  0.00  0.00     0.158 HD
ENDBRANCH  33  36
ENDBRANCH  11  33
ENDBRANCH   8  11
ENDBRANCH   5   7
BRANCH   5  41
ATOM     41  CB1 ROC d          -3.775   6.160   5.315  0.00  0.00    -0.020 C 
ATOM     42  H17 ROC d          -4.610   5.930   4.637  0.00  0.00     0.043 H 
ATOM     43  H18 ROC d          -2.824   6.063   4.772  0.00  0.00     0.043 H 
BRANCH  41  44
ATOM     44  CG1 ROC d          -3.922   7.614   5.818  0.00  0.00    -0.056 A 
ATOM     45  CD1 ROC d          -5.025   8.014   6.548  0.00  0.00    -0.077 A 
ATOM     46  CE1 ROC d          -5.139   9.352   6.991  0.00  0.00    -0.082 A 
ATOM     47  H19 ROC d          -5.807   7.299   6.783  0.00  0.00     0.084 H 
ATOM     48  CZ  ROC d          -4.141  10.273   6.697  0.00  0.00    -0.083 A 
ATOM     49  H21 ROC d          -6.007   9.660   7.561  0.00  0.00     0.083 H 
ATOM     50  CE2 ROC d          -3.037   9.878   5.966  0.00  0.00    -0.082 A 
ATOM     51  H23 ROC d          -4.229  11.298   7.040  0.00  0.00     0.083 H 
ATOM     52  CD2 ROC d          -2.926   8.546   5.523  0.00  0.00    -0.077 A 
ATOM     53  H22 ROC d          -2.257  10.593   5.734  0.00  0.00     0.083 H 
ATOM     54  H20 ROC d          -2.060   8.242   4.946  0.00  0.00     0.084 H 
ENDBRANCH  41  44
ENDBRANCH   5  41
ENDBRANCH   1   5
BRANCH   1  55
ATOM     55  CM  ROC d          -4.629   2.998   7.347  0.00  0.00     0.110 C 
ATOM     56  H25 ROC d          -5.723   2.880   7.356  0.00  0.00     0.080 H 
ATOM     57  H26 ROC d          -4.317   3.589   8.221  0.00  0.00     0.080 H 
BRANCH  55  58
ATOM     58  N11 ROC d          -4.017   1.654   7.454  0.00  0.00    -0.057 N 
ATOM     59  C21 ROC d          -4.982   0.537   7.240  0.00  0.00     0.167 C 
ATOM     60  C31 ROC d          -4.274  -0.791   7.438  0.00  0.00    -0.027 C 
ATOM     61  H27 ROC d          -5.286   0.595   6.185  0.00  0.00     0.098 H 
ATOM     62  C3A ROC d          -3.479  -0.952   8.711  0.00  0.00    -0.047 C 
ATOM     63  H28 ROC d          -3.582  -0.929   6.594  0.00  0.00     0.037 H 
ATOM     64  H29 ROC d          -5.038  -1.582   7.420  0.00  0.00     0.037 H 
ATOM     65  C41 ROC d          -4.403  -1.198   9.922  0.00  0.00    -0.061 C 
ATOM     66  C7A ROC d          -2.559   0.215   8.906  0.00  0.00    -0.027 C 
ATOM     67  H30 ROC d          -2.849  -1.847   8.598  0.00  0.00     0.040 H 
ATOM     68  C51 ROC d          -3.673  -1.315  11.202  0.00  0.00    -0.065 C 
ATOM     69  H31 ROC d          -4.960  -2.130   9.752  0.00  0.00     0.033 H 
ATOM     70  H32 ROC d          -5.108  -0.357   9.999  0.00  0.00     0.033 H 
ATOM     71  C61 ROC d          -2.770  -0.116  11.435  0.00  0.00    -0.065 C 
ATOM     72  H33 ROC d          -3.058  -2.227  11.182  0.00  0.00     0.033 H 
ATOM     73  H34 ROC d          -4.400  -1.381  12.025  0.00  0.00     0.033 H 
ATOM     74  C71 ROC d          -1.854   0.169  10.241  0.00  0.00    -0.060 C 
ATOM     75  H35 ROC d          -2.146  -0.310  12.320  0.00  0.00     0.033 H 
ATOM     76  H36 ROC d          -3.397   0.769  11.616  0.00  0.00     0.033 H 
ATOM     77  H37 ROC d          -1.089  -0.622  10.199  0.00  0.00     0.033 H 
ATOM     78  H38 ROC d          -1.367   1.141  10.406  0.00  0.00     0.033 H 
ATOM     79  C81 ROC d          -3.299   1.555   8.733  0.00  0.00     0.088 C 
ATOM     80  H39 ROC d          -1.788   0.157   8.123  0.00  0.00     0.043 H 
ATOM     81  H40 ROC d          -4.025   1.664   9.553  0.00  0.00     0.076 H 
ATOM     82  H41 ROC d          -2.563   2.371   8.785  0.00  0.00     0.076 H 
ATOM     83  H24 ROC d          -3.331   1.582   6.719  0.00  0.00     0.281 HD
BRANCH  59  84
ATOM     84  CC  ROC d          -6.269   0.570   8.051  0.00  0.00     0.183 C 
ATOM     85  O3  ROC d          -7.393   0.420   7.379  0.00  0.00    -0.175 OA
ATOM     86  N3  ROC d          -6.018   0.756   9.408  0.00  0.00    -0.362 N 
ATOM     87  H42 ROC d          -5.073   0.791   9.733  0.00  0.00     0.162 HD
BRANCH  86  88
ATOM     88  CD  ROC d          -7.142   0.904  10.394  0.00  0.00     0.021 C 
BRANCH  88  89
ATOM     89  C11 ROC d          -6.509   1.336  11.674  0.00  0.00    -0.054 C 
ATOM     90  H43 ROC d          -6.964   2.280  12.007  0.00  0.00     0.030 H 
ATOM     91  H44 ROC d          -5.430   1.482  11.519  0.00  0.00     0.030 H 
ATOM     92  H45 ROC d          -6.668   0.563  12.440  0.00  0.00     0.030 H 
ENDBRANCH  88  89
BRANCH  88  93
ATOM     93  C22 ROC d          -7.860  -0.401  10.594  0.00  0.00    -0.054 C 
ATOM     94  H46 ROC d          -8.425  -0.368  11.537  0.00  0.00     0.030 H 
ATOM     95  H47 ROC d          -7.127  -1.220  10.634  0.00  0.00     0.030 H 
ATOM     96  H48 ROC d          -8.553  -0.570   9.757  0.00  0.00     0.030 H 
ENDBRANCH  88  93
BRANCH  88  97
ATOM     97  C32 ROC d          -8.132   1.959   9.940  0.00  0.00    -0.054 C 
ATOM     98  H49 ROC d          -8.130   2.015   8.841  0.00  0.00     0.030 H 
ATOM     99  H50 ROC d          -7.845   2.936  10.357  0.00  0.00     0.030 H 
ATOM    100  H51 ROC d          -9.140   1.692  10.292  0.00  0.00     0.030 H 
ENDBRANCH  88  97
ENDBRANCH  86  88
ENDBRANCH  59  84
ENDBRANCH  55  58
ENDBRANCH   1  55
TORSDOF 17
ENDMDL
