MODEL 1
REMARK VINA RESULT:      -8.7      0.000      0.000
REMARK  17 active torsions:
REMARK  status: ('A' for Active; 'I' for Inactive)
REMARK    1  A    between atoms: C_1  and  OA_3 
REMARK       I    between atoms: N_11  and  C_1 
REMARK    2  A    between atoms: OA_3  and  CB_4 
REMARK    3  A    between atoms: CB_4  and  CG_5 
REMARK    4  A    between atoms: CA_12  and  N_11 
REMARK    5  A    between atoms: P_13  and  CA_12 
REMARK    6  A    between atoms: CA_12  and  CB_16 
REMARK    7  A    between atoms: P_13  and  N_23 
REMARK    8  A    between atoms: CB_16  and  CG_17 
REMARK    9  A    between atoms: N_23  and  CA_24 
REMARK   10  A    between atoms: CA_24  and  CB_27 
REMARK   11  A    between atoms: CA_24  and  C_25 
REMARK       I    between atoms: C_25  and  N_31 
REMARK   12  A    between atoms: CB_27  and  CG_28 
REMARK   13  A    between atoms: CG_28  and  CD1_29 
REMARK   14  A    between atoms: CG_28  and  CD2_30 
REMARK   15  A    between atoms: N_31  and  CA_32 
REMARK   16  A    between atoms: CA_32  and  CB_35 
REMARK   17  A    between atoms: CA_32  and  C_33 
ROOT
ATOM      1  CA  MOL d          50.664  18.454  -6.805  0.00  0.00     0.112 C 
ATOM      2  H9  MOL d          49.765  18.925  -6.382  0.00  0.00     0.092 H 
ENDROOT
BRANCH   1   3
ATOM      3  N   MOL d          50.865  18.789  -8.243  0.00  0.00    -0.321 N 
ATOM      4  C   MOL d          50.508  19.983  -8.741  0.00  0.00     0.361 C 
ATOM      5  O   MOL d          49.904  20.913  -8.105  0.00  0.00    -0.238 OA
ATOM      6  H8  MOL d          51.276  18.110  -8.850  0.00  0.00     0.165 HD
BRANCH   4   7
ATOM      7  OA  MOL d          50.960  20.039 -10.042  0.00  0.00    -0.299 OA
BRANCH   7   8
ATOM      8  CB  MOL d          50.040  19.976 -11.145  0.00  0.00     0.054 C 
ATOM      9  H1  MOL d          49.015  20.217 -10.827  0.00  0.00     0.082 H 
ATOM     10  H2  MOL d          50.052  18.984 -11.621  0.00  0.00     0.082 H 
BRANCH   8  11
ATOM     11  CG  MOL d          50.586  21.019 -12.053  0.00  0.00    -0.034 A 
ATOM     12  CD1 MOL d          51.528  22.018 -11.783  0.00  0.00    -0.075 A 
ATOM     13  CE1 MOL d          52.010  22.930 -12.758  0.00  0.00    -0.082 A 
ATOM     14  H3  MOL d          51.912  22.099 -10.772  0.00  0.00     0.084 H 
ATOM     15  CZ  MOL d          51.631  22.885 -14.031  0.00  0.00    -0.083 A 
ATOM     16  H5  MOL d          52.716  23.694 -12.452  0.00  0.00     0.083 H 
ATOM     17  CE2 MOL d          50.723  21.919 -14.204  0.00  0.00    -0.082 A 
ATOM     18  H7  MOL d          52.003  23.536 -14.814  0.00  0.00     0.083 H 
ATOM     19  CD2 MOL d          50.173  20.962 -13.327  0.00  0.00    -0.075 A 
ATOM     20  H6  MOL d          50.334  21.861 -15.214  0.00  0.00     0.083 H 
ATOM     21  H4  MOL d          49.456  20.222 -13.664  0.00  0.00     0.084 H 
ENDBRANCH   8  11
ENDBRANCH   7   8
ENDBRANCH   4   7
ENDBRANCH   1   3
BRANCH   1  22
ATOM     22  P   MOL d          52.033  18.954  -6.027  0.00  0.00     0.229 P 
ATOM     23  OP1 MOL d          53.319  18.236  -6.587  0.00  0.00    -0.650 OA
ATOM     24  OP2 MOL d          52.182  20.533  -6.013  0.00  0.00    -0.650 OA
BRANCH  22  25
ATOM     25  N   MOL d          51.629  18.448  -4.242  0.00  0.00    -0.334 N 
ATOM     26  H17 MOL d          50.692  18.303  -3.925  0.00  0.00     0.164 HD
BRANCH  25  27
ATOM     27  CA  MOL d          52.794  18.285  -3.361  0.00  0.00     0.091 C 
ATOM     28  H18 MOL d          53.547  19.011  -3.702  0.00  0.00     0.087 H 
BRANCH  27  29
ATOM     29  CB  MOL d          52.469  18.582  -1.892  0.00  0.00    -0.035 C 
ATOM     30  H19 MOL d          51.852  17.762  -1.499  0.00  0.00     0.037 H 
ATOM     31  H20 MOL d          51.902  19.523  -1.844  0.00  0.00     0.037 H 
BRANCH  29  32
ATOM     32  CG  MOL d          53.696  18.718  -1.020  0.00  0.00    -0.059 C 
ATOM     33  H21 MOL d          54.470  17.984  -1.287  0.00  0.00     0.038 H 
BRANCH  32  34
ATOM     34  CD1 MOL d          54.286  20.134  -1.141  0.00  0.00    -0.073 C 
ATOM     35  H22 MOL d          54.587  20.318  -2.183  0.00  0.00     0.028 H 
ATOM     36  H23 MOL d          55.164  20.223  -0.485  0.00  0.00     0.028 H 
ATOM     37  H24 MOL d          53.529  20.874  -0.842  0.00  0.00     0.028 H 
ENDBRANCH  32  34
BRANCH  32  38
ATOM     38  CD2 MOL d          53.093  18.400   0.332  0.00  0.00    -0.073 C 
ATOM     39  H25 MOL d          52.104  17.939   0.192  0.00  0.00     0.028 H 
ATOM     40  H26 MOL d          52.985  19.328   0.913  0.00  0.00     0.028 H 
ATOM     41  H27 MOL d          53.751  17.703   0.872  0.00  0.00     0.028 H 
ENDBRANCH  32  38
ENDBRANCH  29  32
ENDBRANCH  27  29
BRANCH  27  42
ATOM     42  C   MOL d          53.443  16.891  -3.382  0.00  0.00     0.241 C 
ATOM     43  O   MOL d          54.636  16.740  -3.671  0.00  0.00    -0.271 OA
ATOM     44  N   MOL d          52.671  15.893  -3.001  0.00  0.00    -0.345 N 
ATOM     45  H28 MOL d          51.722  16.108  -2.770  0.00  0.00     0.163 HD
BRANCH  44  46
ATOM     46  CA  MOL d          53.094  14.482  -2.887  0.00  0.00     0.093 C 
ATOM     47  H29 MOL d          54.163  14.445  -2.635  0.00  0.00     0.089 H 
BRANCH  46  48
ATOM     48  CB  MOL d          52.296  13.832  -1.771  0.00  0.00    -0.048 C 
ATOM     49  H30 MOL d          52.205  12.754  -1.966  0.00  0.00     0.030 H 
ATOM     50  H31 MOL d          51.294  14.283  -1.726  0.00  0.00     0.030 H 
ATOM     51  H32 MOL d          52.812  13.989  -0.812  0.00  0.00     0.030 H 
ENDBRANCH  46  48
BRANCH  46  52
ATOM     52  C   MOL d          52.873  13.734  -4.226  0.00  0.00     0.196 C 
ATOM     53  O   MOL d          53.846  13.383  -4.925  0.00  0.00    -0.646 OA
ATOM     54  OXT MOL d          51.744  13.325  -4.682  0.00  0.00    -0.646 OA
ENDBRANCH  46  52
ENDBRANCH  44  46
ENDBRANCH  27  42
ENDBRANCH  25  27
ENDBRANCH  22  25
ENDBRANCH   1  22
BRANCH   1  55
ATOM     55  CB  MOL d          50.572  16.965  -6.787  0.00  0.00    -0.011 C 
ATOM     56  H10 MOL d          50.693  16.588  -5.761  0.00  0.00     0.044 H 
ATOM     57  H11 MOL d          51.347  16.526  -7.432  0.00  0.00     0.044 H 
BRANCH  55  58
ATOM     58  CG  MOL d          49.193  16.625  -7.314  0.00  0.00    -0.056 A 
ATOM     59  CD1 MOL d          49.141  15.883  -8.501  0.00  0.00    -0.077 A 
ATOM     60  CE1 MOL d          47.908  15.507  -9.049  0.00  0.00    -0.082 A 
ATOM     61  H12 MOL d          50.061  15.599  -9.000  0.00  0.00     0.084 H 
ATOM     62  CZ  MOL d          46.747  15.880  -8.382  0.00  0.00    -0.083 A 
ATOM     63  H14 MOL d          47.861  14.939  -9.970  0.00  0.00     0.083 H 
ATOM     64  CE2 MOL d          46.812  16.611  -7.161  0.00  0.00    -0.082 A 
ATOM     65  H16 MOL d          45.782  15.611  -8.796  0.00  0.00     0.083 H 
ATOM     66  CD2 MOL d          48.057  16.969  -6.625  0.00  0.00    -0.077 A 
ATOM     67  H15 MOL d          45.900  16.892  -6.647  0.00  0.00     0.083 H 
ATOM     68  H13 MOL d          48.121  17.506  -5.685  0.00  0.00     0.084 H 
ENDBRANCH  55  58
ENDBRANCH   1  55
TORSDOF 17
ENDMDL
MODEL 2
REMARK VINA RESULT:      -7.8      2.373      9.407
REMARK  17 active torsions:
REMARK  status: ('A' for Active; 'I' for Inactive)
REMARK    1  A    between atoms: C_1  and  OA_3 
REMARK       I    between atoms: N_11  and  C_1 
REMARK    2  A    between atoms: OA_3  and  CB_4 
REMARK    3  A    between atoms: CB_4  and  CG_5 
REMARK    4  A    between atoms: CA_12  and  N_11 
REMARK    5  A    between atoms: P_13  and  CA_12 
REMARK    6  A    between atoms: CA_12  and  CB_16 
REMARK    7  A    between atoms: P_13  and  N_23 
REMARK    8  A    between atoms: CB_16  and  CG_17 
REMARK    9  A    between atoms: N_23  and  CA_24 
REMARK   10  A    between atoms: CA_24  and  CB_27 
REMARK   11  A    between atoms: CA_24  and  C_25 
REMARK       I    between atoms: C_25  and  N_31 
REMARK   12  A    between atoms: CB_27  and  CG_28 
REMARK   13  A    between atoms: CG_28  and  CD1_29 
REMARK   14  A    between atoms: CG_28  and  CD2_30 
REMARK   15  A    between atoms: N_31  and  CA_32 
REMARK   16  A    between atoms: CA_32  and  CB_35 
REMARK   17  A    between atoms: CA_32  and  C_33 
ROOT
ATOM      1  CA  MOL d          50.412  18.818  -8.014  0.00  0.00     0.112 C 
ATOM      2  H9  MOL d          51.043  18.111  -8.572  0.00  0.00     0.092 H 
ENDROOT
BRANCH   1   3
ATOM      3  N   MOL d          50.963  19.143  -6.669  0.00  0.00    -0.321 N 
ATOM      4  C   MOL d          51.552  18.208  -5.908  0.00  0.00     0.361 C 
ATOM      5  O   MOL d          51.641  16.962  -6.182  0.00  0.00    -0.238 OA
ATOM      6  H8  MOL d          50.893  20.079  -6.326  0.00  0.00     0.165 HD
BRANCH   4   7
ATOM      7  OA  MOL d          52.087  18.846  -4.809  0.00  0.00    -0.299 OA
BRANCH   7   8
ATOM      8  CB  MOL d          53.471  18.676  -4.460  0.00  0.00     0.054 C 
ATOM      9  H1  MOL d          54.086  19.503  -4.845  0.00  0.00     0.082 H 
ATOM     10  H2  MOL d          53.865  17.720  -4.836  0.00  0.00     0.082 H 
BRANCH   8  11
ATOM     11  CG  MOL d          53.410  18.691  -2.974  0.00  0.00    -0.034 A 
ATOM     12  CD1 MOL d          54.383  19.101  -2.057  0.00  0.00    -0.075 A 
ATOM     13  CE1 MOL d          54.184  19.114  -0.651  0.00  0.00    -0.082 A 
ATOM     14  H3  MOL d          55.344  19.427  -2.441  0.00  0.00     0.084 H 
ATOM     15  CZ  MOL d          53.030  18.772  -0.087  0.00  0.00    -0.083 A 
ATOM     16  H5  MOL d          55.006  19.416  -0.011  0.00  0.00     0.083 H 
ATOM     17  CE2 MOL d          52.162  18.379  -1.025  0.00  0.00    -0.082 A 
ATOM     18  H7  MOL d          52.824  18.805   0.976  0.00  0.00     0.083 H 
ATOM     19  CD2 MOL d          52.241  18.323  -2.431  0.00  0.00    -0.075 A 
ATOM     20  H6  MOL d          51.213  18.039  -0.626  0.00  0.00     0.083 H 
ATOM     21  H4  MOL d          51.403  18.000  -3.040  0.00  0.00     0.084 H 
ENDBRANCH   8  11
ENDBRANCH   7   8
ENDBRANCH   4   7
ENDBRANCH   1   3
BRANCH   1  22
ATOM     22  P   MOL d          50.271  20.260  -8.808  0.00  0.00     0.229 P 
ATOM     23  OP1 MOL d          50.172  21.472  -7.805  0.00  0.00    -0.650 OA
ATOM     24  OP2 MOL d          51.406  20.470  -9.895  0.00  0.00    -0.650 OA
BRANCH  22  25
ATOM     25  N   MOL d          48.662  19.975  -9.775  0.00  0.00    -0.334 N 
ATOM     26  H17 MOL d          47.760  20.102  -9.364  0.00  0.00     0.164 HD
BRANCH  25  27
ATOM     27  CA  MOL d          48.840  19.555 -11.172  0.00  0.00     0.091 C 
ATOM     28  H18 MOL d          49.806  19.031 -11.220  0.00  0.00     0.087 H 
BRANCH  27  29
ATOM     29  CB  MOL d          47.745  18.589 -11.642  0.00  0.00    -0.035 C 
ATOM     30  H19 MOL d          47.258  19.020 -12.529  0.00  0.00     0.037 H 
ATOM     31  H20 MOL d          47.006  18.480 -10.835  0.00  0.00     0.037 H 
BRANCH  29  32
ATOM     32  CG  MOL d          48.266  17.218 -12.002  0.00  0.00    -0.059 C 
ATOM     33  H21 MOL d          49.119  16.926 -11.372  0.00  0.00     0.038 H 
BRANCH  32  34
ATOM     34  CD1 MOL d          47.152  16.165 -11.855  0.00  0.00    -0.073 C 
ATOM     35  H22 MOL d          46.312  16.425 -12.515  0.00  0.00     0.028 H 
ATOM     36  H23 MOL d          46.806  16.142 -10.811  0.00  0.00     0.028 H 
ATOM     37  H24 MOL d          47.544  15.175 -12.133  0.00  0.00     0.028 H 
ENDBRANCH  32  34
BRANCH  32  38
ATOM     38  CD2 MOL d          48.709  17.471 -13.427  0.00  0.00    -0.073 C 
ATOM     39  H25 MOL d          49.806  17.531 -13.465  0.00  0.00     0.028 H 
ATOM     40  H26 MOL d          48.278  18.419 -13.782  0.00  0.00     0.028 H 
ATOM     41  H27 MOL d          48.363  16.648 -14.070  0.00  0.00     0.028 H 
ENDBRANCH  32  38
ENDBRANCH  29  32
ENDBRANCH  27  29
BRANCH  27  42
ATOM     42  C   MOL d          48.875  20.696 -12.202  0.00  0.00     0.241 C 
ATOM     43  O   MOL d          47.834  21.204 -12.636  0.00  0.00    -0.271 OA
ATOM     44  N   MOL d          50.073  21.139 -12.527  0.00  0.00    -0.345 N 
ATOM     45  H28 MOL d          50.860  20.679 -12.117  0.00  0.00     0.163 HD
BRANCH  44  46
ATOM     46  CA  MOL d          50.347  22.260 -13.449  0.00  0.00     0.093 C 
ATOM     47  H29 MOL d          49.929  22.025 -14.438  0.00  0.00     0.089 H 
BRANCH  46  48
ATOM     48  CB  MOL d          49.667  23.504 -12.906  0.00  0.00    -0.048 C 
ATOM     49  H30 MOL d          48.580  23.344 -12.877  0.00  0.00     0.030 H 
ATOM     50  H31 MOL d          49.896  24.361 -13.556  0.00  0.00     0.030 H 
ATOM     51  H32 MOL d          50.035  23.709 -11.889  0.00  0.00     0.030 H 
ENDBRANCH  46  48
BRANCH  46  52
ATOM     52  C   MOL d          51.872  22.490 -13.595  0.00  0.00     0.196 C 
ATOM     53  O   MOL d          52.415  22.453 -14.719  0.00  0.00    -0.646 OA
ATOM     54  OXT MOL d          52.676  22.827 -12.652  0.00  0.00    -0.646 OA
ENDBRANCH  46  52
ENDBRANCH  44  46
ENDBRANCH  27  42
ENDBRANCH  25  27
ENDBRANCH  22  25
ENDBRANCH   1  22
BRANCH   1  55
ATOM     55  CB  MOL d          49.062  18.250  -7.728  0.00  0.00    -0.011 C 
ATOM     56  H10 MOL d          48.281  18.863  -8.202  0.00  0.00     0.044 H 
ATOM     57  H11 MOL d          48.887  18.208  -6.643  0.00  0.00     0.044 H 
BRANCH  55  58
ATOM     58  CG  MOL d          49.064  16.853  -8.315  0.00  0.00    -0.056 A 
ATOM     59  CD1 MOL d          50.180  16.497  -9.083  0.00  0.00    -0.077 A 
ATOM     60  CE1 MOL d          50.275  15.218  -9.645  0.00  0.00    -0.082 A 
ATOM     61  H12 MOL d          50.976  17.216  -9.243  0.00  0.00     0.084 H 
ATOM     62  CZ  MOL d          49.242  14.316  -9.416  0.00  0.00    -0.083 A 
ATOM     63  H14 MOL d          51.133  14.938 -10.246  0.00  0.00     0.083 H 
ATOM     64  CE2 MOL d          48.124  14.680  -8.611  0.00  0.00    -0.082 A 
ATOM     65  H16 MOL d          49.288  13.325  -9.853  0.00  0.00     0.083 H 
ATOM     66  CD2 MOL d          48.054  15.963  -8.048  0.00  0.00    -0.077 A 
ATOM     67  H15 MOL d          47.327  13.966  -8.435  0.00  0.00     0.083 H 
ATOM     68  H13 MOL d          47.220  16.245  -7.416  0.00  0.00     0.084 H 
ENDBRANCH  55  58
ENDBRANCH   1  55
TORSDOF 17
ENDMDL
MODEL 3
REMARK VINA RESULT:      -6.9      2.788      9.258
REMARK  17 active torsions:
REMARK  status: ('A' for Active; 'I' for Inactive)
REMARK    1  A    between atoms: C_1  and  OA_3 
REMARK       I    between atoms: N_11  and  C_1 
REMARK    2  A    between atoms: OA_3  and  CB_4 
REMARK    3  A    between atoms: CB_4  and  CG_5 
REMARK    4  A    between atoms: CA_12  and  N_11 
REMARK    5  A    between atoms: P_13  and  CA_12 
REMARK    6  A    between atoms: CA_12  and  CB_16 
REMARK    7  A    between atoms: P_13  and  N_23 
REMARK    8  A    between atoms: CB_16  and  CG_17 
REMARK    9  A    between atoms: N_23  and  CA_24 
REMARK   10  A    between atoms: CA_24  and  CB_27 
REMARK   11  A    between atoms: CA_24  and  C_25 
REMARK       I    between atoms: C_25  and  N_31 
REMARK   12  A    between atoms: CB_27  and  CG_28 
REMARK   13  A    between atoms: CG_28  and  CD1_29 
REMARK   14  A    between atoms: CG_28  and  CD2_30 
REMARK   15  A    between atoms: N_31  and  CA_32 
REMARK   16  A    between atoms: CA_32  and  CB_35 
REMARK   17  A    between atoms: CA_32  and  C_33 
ROOT
ATOM      1  CA  MOL d          50.246  18.511  -7.756  0.00  0.00     0.112 C 
ATOM      2  H9  MOL d          50.686  17.590  -8.167  0.00  0.00     0.092 H 
ENDROOT
BRANCH   1   3
ATOM      3  N   MOL d          50.881  18.929  -6.475  0.00  0.00    -0.321 N 
ATOM      4  C   MOL d          51.566  18.060  -5.716  0.00  0.00     0.361 C 
ATOM      5  O   MOL d          51.691  16.807  -5.934  0.00  0.00    -0.238 OA
ATOM      6  H8  MOL d          50.794  19.878  -6.173  0.00  0.00     0.165 HD
BRANCH   4   7
ATOM      7  OA  MOL d          52.152  18.776  -4.694  0.00  0.00    -0.299 OA
BRANCH   7   8
ATOM      8  CB  MOL d          53.526  18.557  -4.334  0.00  0.00     0.054 C 
ATOM      9  H1  MOL d          54.174  19.357  -4.722  0.00  0.00     0.082 H 
ATOM     10  H2  MOL d          53.886  17.584  -4.700  0.00  0.00     0.082 H 
BRANCH   8  11
ATOM     11  CG  MOL d          53.456  18.586  -2.849  0.00  0.00    -0.034 A 
ATOM     12  CD1 MOL d          52.535  17.968  -1.997  0.00  0.00    -0.075 A 
ATOM     13  CE1 MOL d          52.607  18.031  -0.580  0.00  0.00    -0.082 A 
ATOM     14  H3  MOL d          51.720  17.409  -2.444  0.00  0.00     0.084 H 
ATOM     15  CZ  MOL d          53.589  18.656   0.060  0.00  0.00    -0.083 A 
ATOM     16  H5  MOL d          51.829  17.549   0.002  0.00  0.00     0.083 H 
ATOM     17  CE2 MOL d          54.416  19.231  -0.819  0.00  0.00    -0.082 A 
ATOM     18  H7  MOL d          53.703  18.694   1.137  0.00  0.00     0.083 H 
ATOM     19  CD2 MOL d          54.449  19.240  -2.228  0.00  0.00    -0.075 A 
ATOM     20  H6  MOL d          55.215  19.801  -0.359  0.00  0.00     0.083 H 
ATOM     21  H4  MOL d          55.234  19.746  -2.780  0.00  0.00     0.084 H 
ENDBRANCH   8  11
ENDBRANCH   7   8
ENDBRANCH   4   7
ENDBRANCH   1   3
BRANCH   1  22
ATOM     22  P   MOL d          50.433  19.785  -8.791  0.00  0.00     0.229 P 
ATOM     23  OP1 MOL d          49.583  21.034  -8.341  0.00  0.00    -0.650 OA
ATOM     24  OP2 MOL d          51.956  20.151  -9.038  0.00  0.00    -0.650 OA
BRANCH  22  25
ATOM     25  N   MOL d          49.807  19.019 -10.412  0.00  0.00    -0.334 N 
ATOM     26  H17 MOL d          49.981  18.065 -10.655  0.00  0.00     0.164 HD
BRANCH  25  27
ATOM     27  CA  MOL d          49.049  19.929 -11.281  0.00  0.00     0.091 C 
ATOM     28  H18 MOL d          48.797  20.808 -10.669  0.00  0.00     0.087 H 
BRANCH  27  29
ATOM     29  CB  MOL d          49.863  20.404 -12.491  0.00  0.00    -0.035 C 
ATOM     30  H19 MOL d          49.860  19.606 -13.248  0.00  0.00     0.037 H 
ATOM     31  H20 MOL d          50.896  20.595 -12.164  0.00  0.00     0.037 H 
BRANCH  29  32
ATOM     32  CG  MOL d          49.322  21.665 -13.124  0.00  0.00    -0.059 C 
ATOM     33  H21 MOL d          48.227  21.728 -13.037  0.00  0.00     0.038 H 
BRANCH  32  34
ATOM     34  CD1 MOL d          49.947  22.908 -12.464  0.00  0.00    -0.073 C 
ATOM     35  H22 MOL d          49.353  23.193 -11.584  0.00  0.00     0.028 H 
ATOM     36  H23 MOL d          49.959  23.738 -13.184  0.00  0.00     0.028 H 
ATOM     37  H24 MOL d          50.977  22.678 -12.152  0.00  0.00     0.028 H 
ENDBRANCH  32  34
BRANCH  32  38
ATOM     38  CD2 MOL d          49.739  21.437 -14.561  0.00  0.00    -0.073 C 
ATOM     39  H25 MOL d          50.701  21.937 -14.747  0.00  0.00     0.028 H 
ATOM     40  H26 MOL d          48.975  21.852 -15.235  0.00  0.00     0.028 H 
ATOM     41  H27 MOL d          49.844  20.358 -14.745  0.00  0.00     0.028 H 
ENDBRANCH  32  38
ENDBRANCH  29  32
ENDBRANCH  27  29
BRANCH  27  42
ATOM     42  C   MOL d          47.738  19.359 -11.845  0.00  0.00     0.241 C 
ATOM     43  O   MOL d          46.644  19.867 -11.572  0.00  0.00    -0.271 OA
ATOM     44  N   MOL d          47.865  18.354 -12.689  0.00  0.00    -0.345 N 
ATOM     45  H28 MOL d          48.789  18.015 -12.864  0.00  0.00     0.163 HD
BRANCH  44  46
ATOM     46  CA  MOL d          46.753  17.687 -13.396  0.00  0.00     0.093 C 
ATOM     47  H29 MOL d          45.840  17.765 -12.788  0.00  0.00     0.089 H 
BRANCH  46  48
ATOM     48  CB  MOL d          46.532  18.399 -14.719  0.00  0.00    -0.048 C 
ATOM     49  H30 MOL d          47.494  18.773 -15.099  0.00  0.00     0.030 H 
ATOM     50  H31 MOL d          45.843  19.243 -14.571  0.00  0.00     0.030 H 
ATOM     51  H32 MOL d          46.098  17.696 -15.446  0.00  0.00     0.030 H 
ENDBRANCH  46  48
BRANCH  46  52
ATOM     52  C   MOL d          47.070  16.189 -13.627  0.00  0.00     0.196 C 
ATOM     53  O   MOL d          46.804  15.644 -14.719  0.00  0.00    -0.646 OA
ATOM     54  OXT MOL d          47.698  15.418 -12.814  0.00  0.00    -0.646 OA
ENDBRANCH  46  52
ENDBRANCH  44  46
ENDBRANCH  27  42
ENDBRANCH  25  27
ENDBRANCH  22  25
ENDBRANCH   1  22
BRANCH   1  55
ATOM     55  CB  MOL d          48.806  18.332  -7.409  0.00  0.00    -0.011 C 
ATOM     56  H10 MOL d          48.222  19.202  -7.742  0.00  0.00     0.044 H 
ATOM     57  H11 MOL d          48.688  18.204  -6.324  0.00  0.00     0.044 H 
BRANCH  55  58
ATOM     58  CG  MOL d          48.353  17.084  -8.139  0.00  0.00    -0.056 A 
ATOM     59  CD1 MOL d          49.203  15.972  -8.067  0.00  0.00    -0.077 A 
ATOM     60  CE1 MOL d          48.852  14.770  -8.695  0.00  0.00    -0.082 A 
ATOM     61  H12 MOL d          50.138  16.042  -7.523  0.00  0.00     0.084 H 
ATOM     62  CZ  MOL d          47.644  14.709  -9.379  0.00  0.00    -0.083 A 
ATOM     63  H14 MOL d          49.508  13.909  -8.649  0.00  0.00     0.083 H 
ATOM     64  CE2 MOL d          46.775  15.838  -9.423  0.00  0.00    -0.082 A 
ATOM     65  H16 MOL d          47.359  13.793  -9.883  0.00  0.00     0.083 H 
ATOM     66  CD2 MOL d          47.140  17.028  -8.779  0.00  0.00    -0.077 A 
ATOM     67  H15 MOL d          45.832  15.776  -9.955  0.00  0.00     0.083 H 
ATOM     68  H13 MOL d          46.479  17.887  -8.786  0.00  0.00     0.084 H 
ENDBRANCH  55  58
ENDBRANCH   1  55
TORSDOF 17
ENDMDL
MODEL 4
REMARK VINA RESULT:      -6.8      2.196      6.212
REMARK  17 active torsions:
REMARK  status: ('A' for Active; 'I' for Inactive)
REMARK    1  A    between atoms: C_1  and  OA_3 
REMARK       I    between atoms: N_11  and  C_1 
REMARK    2  A    between atoms: OA_3  and  CB_4 
REMARK    3  A    between atoms: CB_4  and  CG_5 
REMARK    4  A    between atoms: CA_12  and  N_11 
REMARK    5  A    between atoms: P_13  and  CA_12 
REMARK    6  A    between atoms: CA_12  and  CB_16 
REMARK    7  A    between atoms: P_13  and  N_23 
REMARK    8  A    between atoms: CB_16  and  CG_17 
REMARK    9  A    between atoms: N_23  and  CA_24 
REMARK   10  A    between atoms: CA_24  and  CB_27 
REMARK   11  A    between atoms: CA_24  and  C_25 
REMARK       I    between atoms: C_25  and  N_31 
REMARK   12  A    between atoms: CB_27  and  CG_28 
REMARK   13  A    between atoms: CG_28  and  CD1_29 
REMARK   14  A    between atoms: CG_28  and  CD2_30 
REMARK   15  A    between atoms: N_31  and  CA_32 
REMARK   16  A    between atoms: CA_32  and  CB_35 
REMARK   17  A    between atoms: CA_32  and  C_33 
ROOT
ATOM      1  CA  MOL d          52.708  18.108  -3.409  0.00  0.00     0.112 C 
ATOM      2  H9  MOL d          53.502  18.852  -3.570  0.00  0.00     0.092 H 
ENDROOT
BRANCH   1   3
ATOM      3  N   MOL d          51.649  18.162  -4.455  0.00  0.00    -0.321 N 
ATOM      4  C   MOL d          51.752  18.978  -5.516  0.00  0.00     0.361 C 
ATOM      5  O   MOL d          52.680  19.833  -5.720  0.00  0.00    -0.238 OA
ATOM      6  H8  MOL d          50.843  17.577  -4.366  0.00  0.00     0.165 HD
BRANCH   4   7
ATOM      7  OA  MOL d          50.706  18.685  -6.365  0.00  0.00    -0.299 OA
BRANCH   7   8
ATOM      8  CB  MOL d          50.913  17.884  -7.540  0.00  0.00     0.054 C 
ATOM      9  H1  MOL d          50.308  16.967  -7.513  0.00  0.00     0.082 H 
ATOM     10  H2  MOL d          51.974  17.620  -7.663  0.00  0.00     0.082 H 
BRANCH   8  11
ATOM     11  CG  MOL d          50.456  18.804  -8.616  0.00  0.00    -0.034 A 
ATOM     12  CD1 MOL d          50.919  20.086  -8.935  0.00  0.00    -0.075 A 
ATOM     13  CE1 MOL d          50.430  20.849 -10.028  0.00  0.00    -0.082 A 
ATOM     14  H3  MOL d          51.694  20.520  -8.313  0.00  0.00     0.084 H 
ATOM     15  CZ  MOL d          49.512  20.388 -10.871  0.00  0.00    -0.083 A 
ATOM     16  H5  MOL d          50.823  21.848 -10.182  0.00  0.00     0.083 H 
ATOM     17  CE2 MOL d          49.112  19.171 -10.490  0.00  0.00    -0.082 A 
ATOM     18  H7  MOL d          49.140  20.922 -11.738  0.00  0.00     0.083 H 
ATOM     19  CD2 MOL d          49.516  18.321  -9.440  0.00  0.00    -0.075 A 
ATOM     20  H6  MOL d          48.324  18.756 -11.110  0.00  0.00     0.083 H 
ATOM     21  H4  MOL d          49.090  17.333  -9.306  0.00  0.00     0.084 H 
ENDBRANCH   8  11
ENDBRANCH   7   8
ENDBRANCH   4   7
ENDBRANCH   1   3
BRANCH   1  22
ATOM     22  P   MOL d          53.305  16.568  -3.447  0.00  0.00     0.229 P 
ATOM     23  OP1 MOL d          54.866  16.551  -3.669  0.00  0.00    -0.650 OA
ATOM     24  OP2 MOL d          52.867  15.714  -2.185  0.00  0.00    -0.650 OA
BRANCH  22  25
ATOM     25  N   MOL d          52.348  15.854  -4.923  0.00  0.00    -0.334 N 
ATOM     26  H17 MOL d          51.737  16.411  -5.486  0.00  0.00     0.164 HD
BRANCH  25  27
ATOM     27  CA  MOL d          52.569  14.424  -5.178  0.00  0.00     0.091 C 
ATOM     28  H18 MOL d          53.630  14.315  -5.450  0.00  0.00     0.087 H 
BRANCH  27  29
ATOM     29  CB  MOL d          52.299  13.556  -3.942  0.00  0.00    -0.035 C 
ATOM     30  H19 MOL d          51.409  12.939  -4.138  0.00  0.00     0.037 H 
ATOM     31  H20 MOL d          52.105  14.218  -3.086  0.00  0.00     0.037 H 
BRANCH  29  32
ATOM     32  CG  MOL d          53.447  12.639  -3.588  0.00  0.00    -0.059 C 
ATOM     33  H21 MOL d          53.302  11.627  -3.994  0.00  0.00     0.038 H 
BRANCH  32  34
ATOM     34  CD1 MOL d          54.773  13.208  -4.124  0.00  0.00    -0.073 C 
ATOM     35  H22 MOL d          54.819  14.287  -3.916  0.00  0.00     0.028 H 
ATOM     36  H23 MOL d          54.831  13.041  -5.209  0.00  0.00     0.028 H 
ATOM     37  H24 MOL d          55.615  12.703  -3.630  0.00  0.00     0.028 H 
ENDBRANCH  32  34
BRANCH  32  38
ATOM     38  CD2 MOL d          53.325  12.639  -2.079  0.00  0.00    -0.073 C 
ATOM     39  H25 MOL d          54.028  11.907  -1.655  0.00  0.00     0.028 H 
ATOM     40  H26 MOL d          52.298  12.368  -1.793  0.00  0.00     0.028 H 
ATOM     41  H27 MOL d          53.561  13.642  -1.693  0.00  0.00     0.028 H 
ENDBRANCH  32  38
ENDBRANCH  29  32
ENDBRANCH  27  29
BRANCH  27  42
ATOM     42  C   MOL d          51.730  13.821  -6.316  0.00  0.00     0.241 C 
ATOM     43  O   MOL d          51.970  12.695  -6.767  0.00  0.00    -0.271 OA
ATOM     44  N   MOL d          50.704  14.545  -6.718  0.00  0.00    -0.345 N 
ATOM     45  H28 MOL d          50.576  15.439  -6.288  0.00  0.00     0.163 HD
BRANCH  44  46
ATOM     46  CA  MOL d          49.730  14.145  -7.753  0.00  0.00     0.093 C 
ATOM     47  H29 MOL d          49.364  13.131  -7.532  0.00  0.00     0.089 H 
BRANCH  46  48
ATOM     48  CB  MOL d          48.563  15.115  -7.714  0.00  0.00    -0.048 C 
ATOM     49  H30 MOL d          48.918  16.102  -7.383  0.00  0.00     0.030 H 
ATOM     50  H31 MOL d          47.802  14.744  -7.011  0.00  0.00     0.030 H 
ATOM     51  H32 MOL d          48.123  15.200  -8.718  0.00  0.00     0.030 H 
ENDBRANCH  46  48
BRANCH  46  52
ATOM     52  C   MOL d          50.390  14.139  -9.155  0.00  0.00     0.196 C 
ATOM     53  O   MOL d          50.208  13.185  -9.939  0.00  0.00    -0.646 OA
ATOM     54  OXT MOL d          51.065  15.102  -9.672  0.00  0.00    -0.646 OA
ENDBRANCH  46  52
ENDBRANCH  44  46
ENDBRANCH  27  42
ENDBRANCH  25  27
ENDBRANCH  22  25
ENDBRANCH   1  22
BRANCH   1  55
ATOM     55  CB  MOL d          51.973  18.348  -2.133  0.00  0.00    -0.011 C 
ATOM     56  H10 MOL d          51.330  17.488  -1.895  0.00  0.00     0.044 H 
ATOM     57  H11 MOL d          51.357  19.255  -2.211  0.00  0.00     0.044 H 
BRANCH  55  58
ATOM     58  CG  MOL d          53.035  18.523  -1.067  0.00  0.00    -0.056 A 
ATOM     59  CD1 MOL d          54.107  19.368  -1.381  0.00  0.00    -0.077 A 
ATOM     60  CE1 MOL d          55.123  19.604  -0.446  0.00  0.00    -0.082 A 
ATOM     61  H12 MOL d          54.151  19.843  -2.355  0.00  0.00     0.084 H 
ATOM     62  CZ  MOL d          55.034  18.987   0.796  0.00  0.00    -0.083 A 
ATOM     63  H14 MOL d          55.958  20.252  -0.686  0.00  0.00     0.083 H 
ATOM     64  CE2 MOL d          53.926  18.150   1.116  0.00  0.00    -0.082 A 
ATOM     65  H16 MOL d          55.816  19.145   1.530  0.00  0.00     0.083 H 
ATOM     66  CD2 MOL d          52.914  17.936   0.168  0.00  0.00    -0.077 A 
ATOM     67  H15 MOL d          53.865  17.679   2.090  0.00  0.00     0.083 H 
ATOM     68  H13 MOL d          52.055  17.319   0.406  0.00  0.00     0.084 H 
ENDBRANCH  55  58
ENDBRANCH   1  55
TORSDOF 17
ENDMDL
MODEL 5
REMARK VINA RESULT:      -6.6      2.021      3.795
REMARK  17 active torsions:
REMARK  status: ('A' for Active; 'I' for Inactive)
REMARK    1  A    between atoms: C_1  and  OA_3 
REMARK       I    between atoms: N_11  and  C_1 
REMARK    2  A    between atoms: OA_3  and  CB_4 
REMARK    3  A    between atoms: CB_4  and  CG_5 
REMARK    4  A    between atoms: CA_12  and  N_11 
REMARK    5  A    between atoms: P_13  and  CA_12 
REMARK    6  A    between atoms: CA_12  and  CB_16 
REMARK    7  A    between atoms: P_13  and  N_23 
REMARK    8  A    between atoms: CB_16  and  CG_17 
REMARK    9  A    between atoms: N_23  and  CA_24 
REMARK   10  A    between atoms: CA_24  and  CB_27 
REMARK   11  A    between atoms: CA_24  and  C_25 
REMARK       I    between atoms: C_25  and  N_31 
REMARK   12  A    between atoms: CB_27  and  CG_28 
REMARK   13  A    between atoms: CG_28  and  CD1_29 
REMARK   14  A    between atoms: CG_28  and  CD2_30 
REMARK   15  A    between atoms: N_31  and  CA_32 
REMARK   16  A    between atoms: CA_32  and  CB_35 
REMARK   17  A    between atoms: CA_32  and  C_33 
ROOT
ATOM      1  CA  MOL d          49.630  17.529  -6.916  0.00  0.00     0.112 C 
ATOM      2  H9  MOL d          49.679  18.052  -5.949  0.00  0.00     0.092 H 
ENDROOT
BRANCH   1   3
ATOM      3  N   MOL d          49.869  18.437  -8.073  0.00  0.00    -0.321 N 
ATOM      4  C   MOL d          50.730  19.463  -7.992  0.00  0.00     0.361 C 
ATOM      5  O   MOL d          51.364  19.833  -6.945  0.00  0.00    -0.238 OA
ATOM      6  H8  MOL d          49.378  18.277  -8.929  0.00  0.00     0.165 HD
BRANCH   4   7
ATOM      7  OA  MOL d          50.843  20.008  -9.253  0.00  0.00    -0.299 OA
BRANCH   7   8
ATOM      8  CB  MOL d          50.550  21.395  -9.486  0.00  0.00     0.054 C 
ATOM      9  H1  MOL d          51.313  22.047  -9.037  0.00  0.00     0.082 H 
ATOM     10  H2  MOL d          49.559  21.667  -9.094  0.00  0.00     0.082 H 
BRANCH   8  11
ATOM     11  CG  MOL d          50.582  21.464 -10.971  0.00  0.00    -0.034 A 
ATOM     12  CD1 MOL d          51.345  22.296 -11.798  0.00  0.00    -0.075 A 
ATOM     13  CE1 MOL d          51.324  22.230 -13.216  0.00  0.00    -0.082 A 
ATOM     14  H3  MOL d          51.990  23.031 -11.330  0.00  0.00     0.084 H 
ATOM     15  CZ  MOL d          50.598  21.337 -13.881  0.00  0.00    -0.083 A 
ATOM     16  H5  MOL d          51.923  22.937 -13.780  0.00  0.00     0.083 H 
ATOM     17  CE2 MOL d          49.889  20.594 -13.025  0.00  0.00    -0.082 A 
ATOM     18  H7  MOL d          50.583  21.227 -14.960  0.00  0.00     0.083 H 
ATOM     19  CD2 MOL d          49.827  20.564 -11.617  0.00  0.00    -0.075 A 
ATOM     20  H6  MOL d          49.236  19.875 -13.507  0.00  0.00     0.083 H 
ATOM     21  H4  MOL d          49.203  19.854 -11.086  0.00  0.00     0.084 H 
ENDBRANCH   8  11
ENDBRANCH   7   8
ENDBRANCH   4   7
ENDBRANCH   1   3
BRANCH   1  22
ATOM     22  P   MOL d          50.777  16.345  -7.023  0.00  0.00     0.229 P 
ATOM     23  OP1 MOL d          50.225  14.950  -6.541  0.00  0.00    -0.650 OA
ATOM     24  OP2 MOL d          51.438  16.267  -8.462  0.00  0.00    -0.650 OA
BRANCH  22  25
ATOM     25  N   MOL d          52.113  17.044  -5.869  0.00  0.00    -0.334 N 
ATOM     26  H17 MOL d          52.650  17.856  -6.098  0.00  0.00     0.164 HD
BRANCH  25  27
ATOM     27  CA  MOL d          52.302  16.304  -4.613  0.00  0.00     0.091 C 
ATOM     28  H18 MOL d          51.328  16.304  -4.101  0.00  0.00     0.087 H 
BRANCH  27  29
ATOM     29  CB  MOL d          52.724  14.848  -4.843  0.00  0.00    -0.035 C 
ATOM     30  H19 MOL d          53.530  14.833  -5.592  0.00  0.00     0.037 H 
ATOM     31  H20 MOL d          51.858  14.289  -5.226  0.00  0.00     0.037 H 
BRANCH  29  32
ATOM     32  CG  MOL d          53.222  14.160  -3.593  0.00  0.00    -0.059 C 
ATOM     33  H21 MOL d          53.598  14.881  -2.852  0.00  0.00     0.038 H 
BRANCH  32  34
ATOM     34  CD1 MOL d          52.094  13.329  -2.953  0.00  0.00    -0.073 C 
ATOM     35  H22 MOL d          51.166  13.920  -2.940  0.00  0.00     0.028 H 
ATOM     36  H23 MOL d          52.374  13.062  -1.924  0.00  0.00     0.028 H 
ATOM     37  H24 MOL d          51.936  12.412  -3.540  0.00  0.00     0.028 H 
ENDBRANCH  32  34
BRANCH  32  38
ATOM     38  CD2 MOL d          54.354  13.342  -4.176  0.00  0.00    -0.073 C 
ATOM     39  H25 MOL d          53.949  12.621  -4.902  0.00  0.00     0.028 H 
ATOM     40  H26 MOL d          54.868  12.799  -3.370  0.00  0.00     0.028 H 
ATOM     41  H27 MOL d          55.067  14.011  -4.681  0.00  0.00     0.028 H 
ENDBRANCH  32  38
ENDBRANCH  29  32
ENDBRANCH  27  29
BRANCH  27  42
ATOM     42  C   MOL d          53.338  16.902  -3.647  0.00  0.00     0.241 C 
ATOM     43  O   MOL d          54.550  16.848  -3.887  0.00  0.00    -0.271 OA
ATOM     44  N   MOL d          52.848  17.533  -2.598  0.00  0.00    -0.345 N 
ATOM     45  H28 MOL d          51.854  17.540  -2.489  0.00  0.00     0.163 HD
BRANCH  44  46
ATOM     46  CA  MOL d          53.647  18.231  -1.571  0.00  0.00     0.093 C 
ATOM     47  H29 MOL d          54.521  17.615  -1.314  0.00  0.00     0.089 H 
BRANCH  46  48
ATOM     48  CB  MOL d          54.122  19.551  -2.149  0.00  0.00    -0.048 C 
ATOM     49  H30 MOL d          53.279  20.063  -2.635  0.00  0.00     0.030 H 
ATOM     50  H31 MOL d          54.913  19.364  -2.891  0.00  0.00     0.030 H 
ATOM     51  H32 MOL d          54.520  20.183  -1.342  0.00  0.00     0.030 H 
ENDBRANCH  46  48
BRANCH  46  52
ATOM     52  C   MOL d          52.809  18.465  -0.289  0.00  0.00     0.196 C 
ATOM     53  O   MOL d          51.720  19.073  -0.345  0.00  0.00    -0.646 OA
ATOM     54  OXT MOL d          53.073  17.997   0.878  0.00  0.00    -0.646 OA
ENDBRANCH  46  52
ENDBRANCH  44  46
ENDBRANCH  27  42
ENDBRANCH  25  27
ENDBRANCH  22  25
ENDBRANCH   1  22
BRANCH   1  55
ATOM     55  CB  MOL d          48.274  16.961  -7.172  0.00  0.00    -0.011 C 
ATOM     56  H10 MOL d          47.516  17.506  -6.591  0.00  0.00     0.044 H 
ATOM     57  H11 MOL d          48.249  15.896  -6.899  0.00  0.00     0.044 H 
BRANCH  55  58
ATOM     58  CG  MOL d          48.023  17.131  -8.656  0.00  0.00    -0.056 A 
ATOM     59  CD1 MOL d          47.318  18.277  -9.046  0.00  0.00    -0.077 A 
ATOM     60  CE1 MOL d          47.060  18.524 -10.400  0.00  0.00    -0.082 A 
ATOM     61  H12 MOL d          46.969  18.976  -8.295  0.00  0.00     0.084 H 
ATOM     62  CZ  MOL d          47.527  17.613 -11.339  0.00  0.00    -0.083 A 
ATOM     63  H14 MOL d          46.510  19.405 -10.708  0.00  0.00     0.083 H 
ATOM     64  CE2 MOL d          48.267  16.464 -10.934  0.00  0.00    -0.082 A 
ATOM     65  H16 MOL d          47.327  17.777 -12.392  0.00  0.00     0.083 H 
ATOM     66  CD2 MOL d          48.523  16.241  -9.573  0.00  0.00    -0.077 A 
ATOM     67  H15 MOL d          48.631  15.763 -11.677  0.00  0.00     0.083 H 
ATOM     68  H13 MOL d          49.103  15.383  -9.253  0.00  0.00     0.084 H 
ENDBRANCH  55  58
ENDBRANCH   1  55
TORSDOF 17
ENDMDL
MODEL 6
REMARK VINA RESULT:      -6.5      2.903      9.692
REMARK  17 active torsions:
REMARK  status: ('A' for Active; 'I' for Inactive)
REMARK    1  A    between atoms: C_1  and  OA_3 
REMARK       I    between atoms: N_11  and  C_1 
REMARK    2  A    between atoms: OA_3  and  CB_4 
REMARK    3  A    between atoms: CB_4  and  CG_5 
REMARK    4  A    between atoms: CA_12  and  N_11 
REMARK    5  A    between atoms: P_13  and  CA_12 
REMARK    6  A    between atoms: CA_12  and  CB_16 
REMARK    7  A    between atoms: P_13  and  N_23 
REMARK    8  A    between atoms: CB_16  and  CG_17 
REMARK    9  A    between atoms: N_23  and  CA_24 
REMARK   10  A    between atoms: CA_24  and  CB_27 
REMARK   11  A    between atoms: CA_24  and  C_25 
REMARK       I    between atoms: C_25  and  N_31 
REMARK   12  A    between atoms: CB_27  and  CG_28 
REMARK   13  A    between atoms: CG_28  and  CD1_29 
REMARK   14  A    between atoms: CG_28  and  CD2_30 
REMARK   15  A    between atoms: N_31  and  CA_32 
REMARK   16  A    between atoms: CA_32  and  CB_35 
REMARK   17  A    between atoms: CA_32  and  C_33 
ROOT
ATOM      1  CA  MOL d          49.134  18.362  -9.271  0.00  0.00     0.112 C 
ATOM      2  H9  MOL d          49.665  17.624  -9.891  0.00  0.00     0.092 H 
ENDROOT
BRANCH   1   3
ATOM      3  N   MOL d          49.650  18.419  -7.875  0.00  0.00    -0.321 N 
ATOM      4  C   MOL d          50.628  17.601  -7.456  0.00  0.00     0.361 C 
ATOM      5  O   MOL d          51.162  16.657  -8.133  0.00  0.00    -0.238 OA
ATOM      6  H8  MOL d          49.260  19.082  -7.237  0.00  0.00     0.165 HD
BRANCH   4   7
ATOM      7  OA  MOL d          50.984  18.000  -6.185  0.00  0.00    -0.299 OA
BRANCH   7   8
ATOM      8  CB  MOL d          52.171  18.780  -5.964  0.00  0.00     0.054 C 
ATOM      9  H1  MOL d          51.927  19.832  -5.755  0.00  0.00     0.082 H 
ATOM     10  H2  MOL d          52.853  18.725  -6.825  0.00  0.00     0.082 H 
BRANCH   8  11
ATOM     11  CG  MOL d          52.752  18.111  -4.770  0.00  0.00    -0.034 A 
ATOM     12  CD1 MOL d          52.855  16.744  -4.488  0.00  0.00    -0.075 A 
ATOM     13  CE1 MOL d          53.483  16.225  -3.325  0.00  0.00    -0.082 A 
ATOM     14  H3  MOL d          52.432  16.042  -5.197  0.00  0.00     0.084 H 
ATOM     15  CZ  MOL d          54.066  17.002  -2.418  0.00  0.00    -0.083 A 
ATOM     16  H5  MOL d          53.488  15.152  -3.171  0.00  0.00     0.083 H 
ATOM     17  CE2 MOL d          53.911  18.288  -2.749  0.00  0.00    -0.082 A 
ATOM     18  H7  MOL d          54.589  16.646  -1.538  0.00  0.00     0.083 H 
ATOM     19  CD2 MOL d          53.317  18.919  -3.861  0.00  0.00    -0.075 A 
ATOM     20  H6  MOL d          54.323  18.979  -2.023  0.00  0.00     0.083 H 
ATOM     21  H4  MOL d          53.316  19.997  -3.975  0.00  0.00     0.084 H 
ENDBRANCH   8  11
ENDBRANCH   7   8
ENDBRANCH   4   7
ENDBRANCH   1   3
BRANCH   1  22
ATOM     22  P   MOL d          49.296  19.890  -9.878  0.00  0.00     0.229 P 
ATOM     23  OP1 MOL d          49.308  20.975  -8.735  0.00  0.00    -0.650 OA
ATOM     24  OP2 MOL d          50.539  20.028 -10.853  0.00  0.00    -0.650 OA
BRANCH  22  25
ATOM     25  N   MOL d          47.752  20.000 -10.977  0.00  0.00    -0.334 N 
ATOM     26  H17 MOL d          46.836  20.139 -10.602  0.00  0.00     0.164 HD
BRANCH  25  27
ATOM     27  CA  MOL d          48.001  19.865 -12.419  0.00  0.00     0.091 C 
ATOM     28  H18 MOL d          48.898  19.237 -12.524  0.00  0.00     0.087 H 
BRANCH  27  29
ATOM     29  CB  MOL d          46.845  19.180 -13.157  0.00  0.00    -0.035 C 
ATOM     30  H19 MOL d          46.252  19.952 -13.669  0.00  0.00     0.037 H 
ATOM     31  H20 MOL d          46.214  18.666 -12.416  0.00  0.00     0.037 H 
BRANCH  29  32
ATOM     32  CG  MOL d          47.300  18.168 -14.182  0.00  0.00    -0.059 C 
ATOM     33  H21 MOL d          47.072  18.494 -15.208  0.00  0.00     0.038 H 
BRANCH  32  34
ATOM     34  CD1 MOL d          48.816  17.925 -14.059  0.00  0.00    -0.073 C 
ATOM     35  H22 MOL d          49.032  17.439 -13.097  0.00  0.00     0.028 H 
ATOM     36  H23 MOL d          49.346  18.887 -14.112  0.00  0.00     0.028 H 
ATOM     37  H24 MOL d          49.151  17.276 -14.882  0.00  0.00     0.028 H 
ENDBRANCH  32  34
BRANCH  32  38
ATOM     38  CD2 MOL d          46.439  16.987 -13.786  0.00  0.00    -0.073 C 
ATOM     39  H25 MOL d          46.862  16.066 -14.212  0.00  0.00     0.028 H 
ATOM     40  H26 MOL d          45.419  17.133 -14.169  0.00  0.00     0.028 H 
ATOM     41  H27 MOL d          46.411  16.906 -12.690  0.00  0.00     0.028 H 
ENDBRANCH  32  38
ENDBRANCH  29  32
ENDBRANCH  27  29
BRANCH  27  42
ATOM     42  C   MOL d          48.263  21.183 -13.166  0.00  0.00     0.241 C 
ATOM     43  O   MOL d          47.333  21.892 -13.569  0.00  0.00    -0.271 OA
ATOM     44  N   MOL d          49.528  21.538 -13.278  0.00  0.00    -0.345 N 
ATOM     45  H28 MOL d          50.215  20.912 -12.910  0.00  0.00     0.163 HD
BRANCH  44  46
ATOM     46  CA  MOL d          50.013  22.786 -13.903  0.00  0.00     0.093 C 
ATOM     47  H29 MOL d          50.083  22.641 -14.990  0.00  0.00     0.089 H 
BRANCH  46  48
ATOM     48  CB  MOL d          49.010  23.888 -13.611  0.00  0.00    -0.048 C 
ATOM     49  H30 MOL d          47.991  23.512 -13.785  0.00  0.00     0.030 H 
ATOM     50  H31 MOL d          49.203  24.744 -14.275  0.00  0.00     0.030 H 
ATOM     51  H32 MOL d          49.110  24.207 -12.563  0.00  0.00     0.030 H 
ENDBRANCH  46  48
BRANCH  46  52
ATOM     52  C   MOL d          51.414  23.163 -13.359  0.00  0.00     0.196 C 
ATOM     53  O   MOL d          52.408  23.165 -14.114  0.00  0.00    -0.646 OA
ATOM     54  OXT MOL d          51.672  23.590 -12.176  0.00  0.00    -0.646 OA
ENDBRANCH  46  52
ENDBRANCH  44  46
ENDBRANCH  27  42
ENDBRANCH  25  27
ENDBRANCH  22  25
ENDBRANCH   1  22
BRANCH   1  55
ATOM     55  CB  MOL d          47.691  18.018  -9.113  0.00  0.00    -0.011 C 
ATOM     56  H10 MOL d          47.062  18.766  -9.618  0.00  0.00     0.044 H 
ATOM     57  H11 MOL d          47.423  17.974  -8.047  0.00  0.00     0.044 H 
BRANCH  55  58
ATOM     58  CG  MOL d          47.512  16.658  -9.757  0.00  0.00    -0.056 A 
ATOM     59  CD1 MOL d          48.399  16.333 -10.791  0.00  0.00    -0.077 A 
ATOM     60  CE1 MOL d          48.320  15.088 -11.428  0.00  0.00    -0.082 A 
ATOM     61  H12 MOL d          49.152  17.049 -11.101  0.00  0.00     0.084 H 
ATOM     62  CZ  MOL d          47.350  14.188 -11.002  0.00  0.00    -0.083 A 
ATOM     63  H14 MOL d          48.999  14.832 -12.233  0.00  0.00     0.083 H 
ATOM     64  CE2 MOL d          46.470  14.519  -9.931  0.00  0.00    -0.082 A 
ATOM     65  H16 MOL d          47.261  13.224 -11.490  0.00  0.00     0.083 H 
ATOM     66  CD2 MOL d          46.573  15.767  -9.300  0.00  0.00    -0.077 A 
ATOM     67  H15 MOL d          45.721  13.807  -9.605  0.00  0.00     0.083 H 
ATOM     68  H13 MOL d          45.925  16.023  -8.470  0.00  0.00     0.084 H 
ENDBRANCH  55  58
ENDBRANCH   1  55
TORSDOF 17
ENDMDL
MODEL 7
REMARK VINA RESULT:      -6.1      2.295      9.235
REMARK  17 active torsions:
REMARK  status: ('A' for Active; 'I' for Inactive)
REMARK    1  A    between atoms: C_1  and  OA_3 
REMARK       I    between atoms: N_11  and  C_1 
REMARK    2  A    between atoms: OA_3  and  CB_4 
REMARK    3  A    between atoms: CB_4  and  CG_5 
REMARK    4  A    between atoms: CA_12  and  N_11 
REMARK    5  A    between atoms: P_13  and  CA_12 
REMARK    6  A    between atoms: CA_12  and  CB_16 
REMARK    7  A    between atoms: P_13  and  N_23 
REMARK    8  A    between atoms: CB_16  and  CG_17 
REMARK    9  A    between atoms: N_23  and  CA_24 
REMARK   10  A    between atoms: CA_24  and  CB_27 
REMARK   11  A    between atoms: CA_24  and  C_25 
REMARK       I    between atoms: C_25  and  N_31 
REMARK   12  A    between atoms: CB_27  and  CG_28 
REMARK   13  A    between atoms: CG_28  and  CD1_29 
REMARK   14  A    between atoms: CG_28  and  CD2_30 
REMARK   15  A    between atoms: N_31  and  CA_32 
REMARK   16  A    between atoms: CA_32  and  CB_35 
REMARK   17  A    between atoms: CA_32  and  C_33 
ROOT
ATOM      1  CA  MOL d          51.189  17.549  -6.784  0.00  0.00     0.112 C 
ATOM      2  H9  MOL d          52.062  17.128  -7.304  0.00  0.00     0.092 H 
ENDROOT
BRANCH   1   3
ATOM      3  N   MOL d          51.501  17.978  -5.392  0.00  0.00    -0.321 N 
ATOM      4  C   MOL d          52.710  18.453  -5.059  0.00  0.00     0.361 C 
ATOM      5  O   MOL d          53.729  18.523  -5.828  0.00  0.00    -0.238 OA
ATOM      6  H8  MOL d          50.792  17.909  -4.690  0.00  0.00     0.165 HD
BRANCH   4   7
ATOM      7  OA  MOL d          52.634  18.901  -3.757  0.00  0.00    -0.299 OA
BRANCH   7   8
ATOM      8  CB  MOL d          51.984  18.116  -2.745  0.00  0.00     0.054 C 
ATOM      9  H1  MOL d          51.891  17.063  -3.052  0.00  0.00     0.082 H 
ATOM     10  H2  MOL d          50.988  18.517  -2.504  0.00  0.00     0.082 H 
BRANCH   8  11
ATOM     11  CG  MOL d          52.921  18.266  -1.599  0.00  0.00    -0.034 A 
ATOM     12  CD1 MOL d          54.145  18.941  -1.544  0.00  0.00    -0.075 A 
ATOM     13  CE1 MOL d          54.929  19.056  -0.366  0.00  0.00    -0.082 A 
ATOM     14  H3  MOL d          54.516  19.403  -2.453  0.00  0.00     0.084 H 
ATOM     15  CZ  MOL d          54.540  18.560   0.804  0.00  0.00    -0.083 A 
ATOM     16  H5  MOL d          55.882  19.569  -0.423  0.00  0.00     0.083 H 
ATOM     17  CE2 MOL d          53.375  17.920   0.666  0.00  0.00    -0.082 A 
ATOM     18  H7  MOL d          55.088  18.659   1.734  0.00  0.00     0.083 H 
ATOM     19  CD2 MOL d          52.513  17.740  -0.435  0.00  0.00    -0.075 A 
ATOM     20  H6  MOL d          53.024  17.448   1.577  0.00  0.00     0.083 H 
ATOM     21  H4  MOL d          51.573  17.207  -0.346  0.00  0.00     0.084 H 
ENDBRANCH   8  11
ENDBRANCH   7   8
ENDBRANCH   4   7
ENDBRANCH   1   3
BRANCH   1  22
ATOM     22  P   MOL d          50.616  18.893  -7.555  0.00  0.00     0.229 P 
ATOM     23  OP1 MOL d          50.471  20.115  -6.569  0.00  0.00    -0.650 OA
ATOM     24  OP2 MOL d          51.458  19.259  -8.847  0.00  0.00    -0.650 OA
BRANCH  22  25
ATOM     25  N   MOL d          48.942  18.254  -8.182  0.00  0.00    -0.334 N 
ATOM     26  H17 MOL d          48.172  18.076  -7.570  0.00  0.00     0.164 HD
BRANCH  25  27
ATOM     27  CA  MOL d          48.860  18.040  -9.634  0.00  0.00     0.091 C 
ATOM     28  H18 MOL d          49.832  17.630  -9.945  0.00  0.00     0.087 H 
BRANCH  27  29
ATOM     29  CB  MOL d          47.767  17.036 -10.022  0.00  0.00    -0.035 C 
ATOM     30  H19 MOL d          47.348  17.335 -10.994  0.00  0.00     0.037 H 
ATOM     31  H20 MOL d          46.977  17.068  -9.257  0.00  0.00     0.037 H 
BRANCH  29  32
ATOM     32  CG  MOL d          48.268  15.615 -10.134  0.00  0.00    -0.059 C 
ATOM     33  H21 MOL d          48.848  15.315  -9.249  0.00  0.00     0.038 H 
BRANCH  32  34
ATOM     34  CD1 MOL d          47.088  14.643 -10.312  0.00  0.00    -0.073 C 
ATOM     35  H22 MOL d          46.443  14.995 -11.131  0.00  0.00     0.028 H 
ATOM     36  H23 MOL d          46.506  14.598  -9.380  0.00  0.00     0.028 H 
ATOM     37  H24 MOL d          47.471  13.640 -10.553  0.00  0.00     0.028 H 
ENDBRANCH  32  34
BRANCH  32  38
ATOM     38  CD2 MOL d          49.163  15.748 -11.347  0.00  0.00    -0.073 C 
ATOM     39  H25 MOL d          49.301  14.760 -11.811  0.00  0.00     0.028 H 
ATOM     40  H26 MOL d          50.141  16.147 -11.040  0.00  0.00     0.028 H 
ATOM     41  H27 MOL d          48.699  16.433 -12.072  0.00  0.00     0.028 H 
ENDBRANCH  32  38
ENDBRANCH  29  32
ENDBRANCH  27  29
BRANCH  27  42
ATOM     42  C   MOL d          48.596  19.303 -10.470  0.00  0.00     0.241 C 
ATOM     43  O   MOL d          47.500  19.876 -10.445  0.00  0.00    -0.271 OA
ATOM     44  N   MOL d          49.627  19.769 -11.146  0.00  0.00    -0.345 N 
ATOM     45  H28 MOL d          50.481  19.251 -11.099  0.00  0.00     0.163 HD
BRANCH  44  46
ATOM     46  CA  MOL d          49.624  20.996 -11.970  0.00  0.00     0.093 C 
ATOM     47  H29 MOL d          48.960  21.740 -11.507  0.00  0.00     0.089 H 
BRANCH  46  48
ATOM     48  CB  MOL d          51.038  21.547 -12.011  0.00  0.00    -0.048 C 
ATOM     49  H30 MOL d          51.664  20.904 -12.647  0.00  0.00     0.030 H 
ATOM     50  H31 MOL d          51.452  21.572 -10.993  0.00  0.00     0.030 H 
ATOM     51  H32 MOL d          51.021  22.567 -12.424  0.00  0.00     0.030 H 
ENDBRANCH  46  48
BRANCH  46  52
ATOM     52  C   MOL d          49.112  20.695 -13.401  0.00  0.00     0.196 C 
ATOM     53  O   MOL d          49.597  19.754 -14.064  0.00  0.00    -0.646 OA
ATOM     54  OXT MOL d          48.124  21.273 -13.983  0.00  0.00    -0.646 OA
ENDBRANCH  46  52
ENDBRANCH  44  46
ENDBRANCH  27  42
ENDBRANCH  25  27
ENDBRANCH  22  25
ENDBRANCH   1  22
BRANCH   1  55
ATOM     55  CB  MOL d          50.101  16.541  -6.622  0.00  0.00    -0.011 C 
ATOM     56  H10 MOL d          49.362  16.644  -7.430  0.00  0.00     0.044 H 
ATOM     57  H11 MOL d          49.602  16.671  -5.650  0.00  0.00     0.044 H 
BRANCH  55  58
ATOM     58  CG  MOL d          50.773  15.186  -6.692  0.00  0.00    -0.056 A 
ATOM     59  CD1 MOL d          50.485  14.400  -7.815  0.00  0.00    -0.077 A 
ATOM     60  CE1 MOL d          51.080  13.141  -7.971  0.00  0.00    -0.082 A 
ATOM     61  H12 MOL d          49.797  14.768  -8.568  0.00  0.00     0.084 H 
ATOM     62  CZ  MOL d          51.963  12.701  -6.993  0.00  0.00    -0.083 A 
ATOM     63  H14 MOL d          50.855  12.526  -8.835  0.00  0.00     0.083 H 
ATOM     64  CE2 MOL d          52.270  13.520  -5.868  0.00  0.00    -0.082 A 
ATOM     65  H16 MOL d          52.424  11.724  -7.088  0.00  0.00     0.083 H 
ATOM     66  CD2 MOL d          51.672  14.781  -5.736  0.00  0.00    -0.077 A 
ATOM     67  H15 MOL d          52.965  13.168  -5.115  0.00  0.00     0.083 H 
ATOM     68  H13 MOL d          51.913  15.423  -4.897  0.00  0.00     0.084 H 
ENDBRANCH  55  58
ENDBRANCH   1  55
TORSDOF 17
ENDMDL
MODEL 8
REMARK VINA RESULT:      -6.0      2.728      9.143
REMARK  17 active torsions:
REMARK  status: ('A' for Active; 'I' for Inactive)
REMARK    1  A    between atoms: C_1  and  OA_3 
REMARK       I    between atoms: N_11  and  C_1 
REMARK    2  A    between atoms: OA_3  and  CB_4 
REMARK    3  A    between atoms: CB_4  and  CG_5 
REMARK    4  A    between atoms: CA_12  and  N_11 
REMARK    5  A    between atoms: P_13  and  CA_12 
REMARK    6  A    between atoms: CA_12  and  CB_16 
REMARK    7  A    between atoms: P_13  and  N_23 
REMARK    8  A    between atoms: CB_16  and  CG_17 
REMARK    9  A    between atoms: N_23  and  CA_24 
REMARK   10  A    between atoms: CA_24  and  CB_27 
REMARK   11  A    between atoms: CA_24  and  C_25 
REMARK       I    between atoms: C_25  and  N_31 
REMARK   12  A    between atoms: CB_27  and  CG_28 
REMARK   13  A    between atoms: CG_28  and  CD1_29 
REMARK   14  A    between atoms: CG_28  and  CD2_30 
REMARK   15  A    between atoms: N_31  and  CA_32 
REMARK   16  A    between atoms: CA_32  and  CB_35 
REMARK   17  A    between atoms: CA_32  and  C_33 
ROOT
ATOM      1  CA  MOL d          50.712  16.620  -7.434  0.00  0.00     0.112 C 
ATOM      2  H9  MOL d          51.390  16.377  -8.265  0.00  0.00     0.092 H 
ENDROOT
BRANCH   1   3
ATOM      3  N   MOL d          51.438  16.900  -6.163  0.00  0.00    -0.321 N 
ATOM      4  C   MOL d          51.966  15.912  -5.426  0.00  0.00     0.361 C 
ATOM      5  O   MOL d          51.853  14.659  -5.655  0.00  0.00    -0.238 OA
ATOM      6  H8  MOL d          51.534  17.846  -5.854  0.00  0.00     0.165 HD
BRANCH   4   7
ATOM      7  OA  MOL d          52.694  16.497  -4.411  0.00  0.00    -0.299 OA
BRANCH   7   8
ATOM      8  CB  MOL d          53.227  15.706  -3.336  0.00  0.00     0.054 C 
ATOM      9  H1  MOL d          54.249  15.364  -3.558  0.00  0.00     0.082 H 
ATOM     10  H2  MOL d          52.588  14.837  -3.123  0.00  0.00     0.082 H 
BRANCH   8  11
ATOM     11  CG  MOL d          53.212  16.679  -2.211  0.00  0.00    -0.034 A 
ATOM     12  CD1 MOL d          52.562  16.588  -0.976  0.00  0.00    -0.075 A 
ATOM     13  CE1 MOL d          52.668  17.570   0.044  0.00  0.00    -0.082 A 
ATOM     14  H3  MOL d          51.942  15.718  -0.786  0.00  0.00     0.084 H 
ATOM     15  CZ  MOL d          53.434  18.649  -0.077  0.00  0.00    -0.083 A 
ATOM     16  H5  MOL d          52.102  17.433   0.959  0.00  0.00     0.083 H 
ATOM     17  CE2 MOL d          54.006  18.671  -1.285  0.00  0.00    -0.082 A 
ATOM     18  H7  MOL d          53.573  19.402   0.690  0.00  0.00     0.083 H 
ATOM     19  CD2 MOL d          53.978  17.768  -2.367  0.00  0.00    -0.075 A 
ATOM     20  H6  MOL d          54.608  19.554  -1.468  0.00  0.00     0.083 H 
ATOM     21  H4  MOL d          54.545  17.944  -3.275  0.00  0.00     0.084 H 
ENDBRANCH   8  11
ENDBRANCH   7   8
ENDBRANCH   4   7
ENDBRANCH   1   3
BRANCH   1  22
ATOM     22  P   MOL d          49.821  17.974  -7.755  0.00  0.00     0.229 P 
ATOM     23  OP1 MOL d          48.301  17.774  -7.392  0.00  0.00    -0.650 OA
ATOM     24  OP2 MOL d          50.433  19.277  -7.090  0.00  0.00    -0.650 OA
BRANCH  22  25
ATOM     25  N   MOL d          50.112  18.153  -9.623  0.00  0.00    -0.334 N 
ATOM     26  H17 MOL d          50.623  17.477 -10.153  0.00  0.00     0.164 HD
BRANCH  25  27
ATOM     27  CA  MOL d          49.529  19.356 -10.233  0.00  0.00     0.091 C 
ATOM     28  H18 MOL d          49.088  19.940  -9.412  0.00  0.00     0.087 H 
BRANCH  27  29
ATOM     29  CB  MOL d          50.577  20.228 -10.935  0.00  0.00    -0.035 C 
ATOM     30  H19 MOL d          51.024  19.645 -11.754  0.00  0.00     0.037 H 
ATOM     31  H20 MOL d          51.357  20.492 -10.205  0.00  0.00     0.037 H 
BRANCH  29  32
ATOM     32  CG  MOL d          50.010  21.505 -11.512  0.00  0.00    -0.059 C 
ATOM     33  H21 MOL d          48.911  21.477 -11.562  0.00  0.00     0.038 H 
BRANCH  32  34
ATOM     34  CD1 MOL d          50.442  22.715 -10.664  0.00  0.00    -0.073 C 
ATOM     35  H22 MOL d          49.871  22.727  -9.724  0.00  0.00     0.028 H 
ATOM     36  H23 MOL d          50.249  23.642 -11.223  0.00  0.00     0.028 H 
ATOM     37  H24 MOL d          51.516  22.640 -10.438  0.00  0.00     0.028 H 
ENDBRANCH  32  34
BRANCH  32  38
ATOM     38  CD2 MOL d          50.616  21.458 -12.898  0.00  0.00    -0.073 C 
ATOM     39  H25 MOL d          50.137  20.657 -13.480  0.00  0.00     0.028 H 
ATOM     40  H26 MOL d          51.695  21.259 -12.820  0.00  0.00     0.028 H 
ATOM     41  H27 MOL d          50.456  22.423 -13.400  0.00  0.00     0.028 H 
ENDBRANCH  32  38
ENDBRANCH  29  32
ENDBRANCH  27  29
BRANCH  27  42
ATOM     42  C   MOL d          48.424  19.098 -11.270  0.00  0.00     0.241 C 
ATOM     43  O   MOL d          47.297  19.592 -11.147  0.00  0.00    -0.271 OA
ATOM     44  N   MOL d          48.779  18.388 -12.323  0.00  0.00    -0.345 N 
ATOM     45  H28 MOL d          49.716  18.040 -12.347  0.00  0.00     0.163 HD
BRANCH  44  46
ATOM     46  CA  MOL d          47.905  18.065 -13.468  0.00  0.00     0.093 C 
ATOM     47  H29 MOL d          46.856  18.223 -13.178  0.00  0.00     0.089 H 
BRANCH  46  48
ATOM     48  CB  MOL d          48.251  19.000 -14.613  0.00  0.00    -0.048 C 
ATOM     49  H30 MOL d          49.132  18.616 -15.147  0.00  0.00     0.030 H 
ATOM     50  H31 MOL d          48.470  20.002 -14.215  0.00  0.00     0.030 H 
ATOM     51  H32 MOL d          47.399  19.060 -15.307  0.00  0.00     0.030 H 
ENDBRANCH  46  48
BRANCH  46  52
ATOM     52  C   MOL d          48.085  16.587 -13.896  0.00  0.00     0.196 C 
ATOM     53  O   MOL d          48.958  15.873 -13.359  0.00  0.00    -0.646 OA
ATOM     54  OXT MOL d          47.336  15.944 -14.718  0.00  0.00    -0.646 OA
ENDBRANCH  46  52
ENDBRANCH  44  46
ENDBRANCH  27  42
ENDBRANCH  25  27
ENDBRANCH  22  25
ENDBRANCH   1  22
BRANCH   1  55
ATOM     55  CB  MOL d          49.814  15.477  -7.097  0.00  0.00    -0.011 C 
ATOM     56  H10 MOL d          48.842  15.847  -6.740  0.00  0.00     0.044 H 
ATOM     57  H11 MOL d          50.273  14.846  -6.322  0.00  0.00     0.044 H 
BRANCH  55  58
ATOM     58  CG  MOL d          49.640  14.691  -8.381  0.00  0.00    -0.056 A 
ATOM     59  CD1 MOL d          48.324  14.470  -8.806  0.00  0.00    -0.077 A 
ATOM     60  CE1 MOL d          48.071  13.771  -9.994  0.00  0.00    -0.082 A 
ATOM     61  H12 MOL d          47.496  14.842  -8.213  0.00  0.00     0.084 H 
ATOM     62  CZ  MOL d          49.153  13.314 -10.735  0.00  0.00    -0.083 A 
ATOM     63  H14 MOL d          47.055  13.591 -10.325  0.00  0.00     0.083 H 
ATOM     64  CE2 MOL d          50.488  13.567 -10.307  0.00  0.00    -0.082 A 
ATOM     65  H16 MOL d          48.980  12.759 -11.650  0.00  0.00     0.083 H 
ATOM     66  CD2 MOL d          50.719  14.279  -9.120  0.00  0.00    -0.077 A 
ATOM     67  H15 MOL d          51.325  13.211 -10.897  0.00  0.00     0.083 H 
ATOM     68  H13 MOL d          51.730  14.498  -8.795  0.00  0.00     0.084 H 
ENDBRANCH  55  58
ENDBRANCH   1  55
TORSDOF 17
ENDMDL
MODEL 9
REMARK VINA RESULT:      -5.7      3.671      9.398
REMARK  17 active torsions:
REMARK  status: ('A' for Active; 'I' for Inactive)
REMARK    1  A    between atoms: C_1  and  OA_3 
REMARK       I    between atoms: N_11  and  C_1 
REMARK    2  A    between atoms: OA_3  and  CB_4 
REMARK    3  A    between atoms: CB_4  and  CG_5 
REMARK    4  A    between atoms: CA_12  and  N_11 
REMARK    5  A    between atoms: P_13  and  CA_12 
REMARK    6  A    between atoms: CA_12  and  CB_16 
REMARK    7  A    between atoms: P_13  and  N_23 
REMARK    8  A    between atoms: CB_16  and  CG_17 
REMARK    9  A    between atoms: N_23  and  CA_24 
REMARK   10  A    between atoms: CA_24  and  CB_27 
REMARK   11  A    between atoms: CA_24  and  C_25 
REMARK       I    between atoms: C_25  and  N_31 
REMARK   12  A    between atoms: CB_27  and  CG_28 
REMARK   13  A    between atoms: CG_28  and  CD1_29 
REMARK   14  A    between atoms: CG_28  and  CD2_30 
REMARK   15  A    between atoms: N_31  and  CA_32 
REMARK   16  A    between atoms: CA_32  and  CB_35 
REMARK   17  A    between atoms: CA_32  and  C_33 
ROOT
ATOM      1  CA  MOL d          49.477  18.912  -8.621  0.00  0.00     0.112 C 
ATOM      2  H9  MOL d          49.249  19.204  -7.585  0.00  0.00     0.092 H 
ENDROOT
BRANCH   1   3
ATOM      3  N   MOL d          48.403  18.080  -9.233  0.00  0.00    -0.321 N 
ATOM      4  C   MOL d          47.656  17.245  -8.494  0.00  0.00     0.361 C 
ATOM      5  O   MOL d          47.810  17.001  -7.249  0.00  0.00    -0.238 OA
ATOM      6  H8  MOL d          48.236  18.145 -10.216  0.00  0.00     0.165 HD
BRANCH   4   7
ATOM      7  OA  MOL d          46.665  16.745  -9.312  0.00  0.00    -0.299 OA
BRANCH   7   8
ATOM      8  CB  MOL d          46.975  16.237 -10.619  0.00  0.00     0.054 C 
ATOM      9  H1  MOL d          47.409  17.018 -11.261  0.00  0.00     0.082 H 
ATOM     10  H2  MOL d          46.085  15.814 -11.107  0.00  0.00     0.082 H 
BRANCH   8  11
ATOM     11  CG  MOL d          47.973  15.180 -10.303  0.00  0.00    -0.034 A 
ATOM     12  CD1 MOL d          49.328  15.115 -10.645  0.00  0.00    -0.075 A 
ATOM     13  CE1 MOL d          50.194  14.068 -10.236  0.00  0.00    -0.082 A 
ATOM     14  H3  MOL d          49.739  15.910 -11.258  0.00  0.00     0.084 H 
ATOM     15  CZ  MOL d          49.795  13.072  -9.452  0.00  0.00    -0.083 A 
ATOM     16  H5  MOL d          51.224  14.081 -10.576  0.00  0.00     0.083 H 
ATOM     17  CE2 MOL d          48.491  13.196  -9.183  0.00  0.00    -0.082 A 
ATOM     18  H7  MOL d          50.431  12.275  -9.085  0.00  0.00     0.083 H 
ATOM     19  CD2 MOL d          47.538  14.177  -9.526  0.00  0.00    -0.075 A 
ATOM     20  H6  MOL d          48.088  12.386  -8.585  0.00  0.00     0.083 H 
ATOM     21  H4  MOL d          46.511  14.124  -9.181  0.00  0.00     0.084 H 
ENDBRANCH   8  11
ENDBRANCH   7   8
ENDBRANCH   4   7
ENDBRANCH   1   3
BRANCH   1  22
ATOM     22  P   MOL d          49.641  20.232  -9.600  0.00  0.00     0.229 P 
ATOM     23  OP1 MOL d          49.676  21.573  -8.773  0.00  0.00    -0.650 OA
ATOM     24  OP2 MOL d          50.872  20.105 -10.592  0.00  0.00    -0.650 OA
BRANCH  22  25
ATOM     25  N   MOL d          48.083  20.073 -10.673  0.00  0.00    -0.334 N 
ATOM     26  H17 MOL d          47.162  20.173 -10.299  0.00  0.00     0.164 HD
BRANCH  25  27
ATOM     27  CA  MOL d          48.330  19.792 -12.094  0.00  0.00     0.091 C 
ATOM     28  H18 MOL d          49.261  19.208 -12.140  0.00  0.00     0.087 H 
BRANCH  27  29
ATOM     29  CB  MOL d          47.211  18.962 -12.735  0.00  0.00    -0.035 C 
ATOM     30  H19 MOL d          46.426  19.649 -13.086  0.00  0.00     0.037 H 
ATOM     31  H20 MOL d          46.794  18.289 -11.972  0.00  0.00     0.037 H 
BRANCH  29  32
ATOM     32  CG  MOL d          47.674  18.129 -13.907  0.00  0.00    -0.059 C 
ATOM     33  H21 MOL d          47.807  18.737 -14.814  0.00  0.00     0.038 H 
BRANCH  32  34
ATOM     34  CD1 MOL d          49.005  17.429 -13.574  0.00  0.00    -0.073 C 
ATOM     35  H22 MOL d          49.034  16.445 -14.065  0.00  0.00     0.028 H 
ATOM     36  H23 MOL d          49.088  17.299 -12.486  0.00  0.00     0.028 H 
ATOM     37  H24 MOL d          49.843  18.043 -13.935  0.00  0.00     0.028 H 
ENDBRANCH  32  34
BRANCH  32  38
ATOM     38  CD2 MOL d          46.490  17.196 -14.050  0.00  0.00    -0.073 C 
ATOM     39  H25 MOL d          45.976  17.400 -15.000  0.00  0.00     0.028 H 
ATOM     40  H26 MOL d          45.794  17.357 -13.215  0.00  0.00     0.028 H 
ATOM     41  H27 MOL d          46.842  16.154 -14.039  0.00  0.00     0.028 H 
ENDBRANCH  32  38
ENDBRANCH  29  32
ENDBRANCH  27  29
BRANCH  27  42
ATOM     42  C   MOL d          48.510  21.030 -12.988  0.00  0.00     0.241 C 
ATOM     43  O   MOL d          47.541  21.599 -13.503  0.00  0.00    -0.271 OA
ATOM     44  N   MOL d          49.743  21.482 -13.101  0.00  0.00    -0.345 N 
ATOM     45  H28 MOL d          50.465  20.968 -12.638  0.00  0.00     0.163 HD
BRANCH  44  46
ATOM     46  CA  MOL d          50.146  22.685 -13.857  0.00  0.00     0.093 C 
ATOM     47  H29 MOL d          49.856  22.563 -14.911  0.00  0.00     0.089 H 
BRANCH  46  48
ATOM     48  CB  MOL d          49.416  23.882 -13.276  0.00  0.00    -0.048 C 
ATOM     49  H30 MOL d          48.565  24.142 -13.922  0.00  0.00     0.030 H 
ATOM     50  H31 MOL d          50.105  24.737 -13.215  0.00  0.00     0.030 H 
ATOM     51  H32 MOL d          49.050  23.634 -12.268  0.00  0.00     0.030 H 
ENDBRANCH  46  48
BRANCH  46  52
ATOM     52  C   MOL d          51.680  22.891 -13.785  0.00  0.00     0.196 C 
ATOM     53  O   MOL d          52.328  22.487 -12.798  0.00  0.00    -0.646 OA
ATOM     54  OXT MOL d          52.419  23.371 -14.719  0.00  0.00    -0.646 OA
ENDBRANCH  46  52
ENDBRANCH  44  46
ENDBRANCH  27  42
ENDBRANCH  25  27
ENDBRANCH  22  25
ENDBRANCH   1  22
BRANCH   1  55
ATOM     55  CB  MOL d          50.694  18.053  -8.700  0.00  0.00    -0.011 C 
ATOM     56  H10 MOL d          51.408  18.467  -9.427  0.00  0.00     0.044 H 
ATOM     57  H11 MOL d          50.422  17.030  -8.996  0.00  0.00     0.044 H 
BRANCH  55  58
ATOM     58  CG  MOL d          51.298  18.056  -7.310  0.00  0.00    -0.056 A 
ATOM     59  CD1 MOL d          51.775  19.285  -6.836  0.00  0.00    -0.077 A 
ATOM     60  CE1 MOL d          52.330  19.383  -5.554  0.00  0.00    -0.082 A 
ATOM     61  H12 MOL d          51.716  20.165  -7.466  0.00  0.00     0.084 H 
ATOM     62  CZ  MOL d          52.385  18.239  -4.768  0.00  0.00    -0.083 A 
ATOM     63  H14 MOL d          52.707  20.330  -5.184  0.00  0.00     0.083 H 
ATOM     64  CE2 MOL d          51.872  16.999  -5.249  0.00  0.00    -0.082 A 
ATOM     65  H16 MOL d          52.823  18.289  -3.777  0.00  0.00     0.083 H 
ATOM     66  CD2 MOL d          51.312  16.925  -6.533  0.00  0.00    -0.077 A 
ATOM     67  H15 MOL d          51.916  16.115  -4.624  0.00  0.00     0.083 H 
ATOM     68  H13 MOL d          50.898  15.994  -6.902  0.00  0.00     0.084 H 
ENDBRANCH  55  58
ENDBRANCH   1  55
TORSDOF 17
ENDMDL
