MODEL 1
REMARK VINA RESULT:      -7.3      0.000      0.000
REMARK  5 active torsions:
REMARK  status: ('A' for Active; 'I' for Inactive)
REMARK    1  A    between atoms: C1_1  and  O4_4 
REMARK    2  A    between atoms: C2_2  and  O5_5 
REMARK    3  A    between atoms: C3_3  and  O7_7 
REMARK    4  A    between atoms: C8_8  and  C9_9 
REMARK    5  A    between atoms: C9_9  and  O11_11 
ROOT
ATOM      1  C1  MNM d          27.788  47.338   0.062  0.00  0.00     0.110 C 
ATOM      2  C2  MNM d          27.528  45.929  -0.496  0.00  0.00     0.217 C 
ATOM      3  C3  MNM d          27.327  48.426  -0.931  0.00  0.00     0.071 C 
ATOM      4  N6  MNM d          27.801  45.840  -1.926  0.00  0.00    -0.046 N 
ATOM      5  C8  MNM d          26.409  47.890  -2.064  0.00  0.00     0.017 C 
ATOM      6  C10 MNM d          27.199  46.824  -2.838  0.00  0.00     0.092 C 
ATOM      7  H1  MNM d          27.216  47.450   0.995  0.00  0.00     0.093 H 
ATOM      8  H2  MNM d          26.469  45.694  -0.314  0.00  0.00     0.133 H 
ATOM      9  H3  MNM d          28.231  48.821  -1.417  0.00  0.00     0.087 H 
ATOM     10  H6  MNM d          27.490  44.931  -2.229  0.00  0.00     0.280 HD
ATOM     11  H7  MNM d          28.800  45.908  -2.038  0.00  0.00     0.280 HD
ATOM     12  H9  MNM d          25.539  47.404  -1.598  0.00  0.00     0.049 H 
ATOM     13  H12 MNM d          26.518  46.304  -3.528  0.00  0.00     0.076 H 
ATOM     14  H13 MNM d          27.997  47.316  -3.412  0.00  0.00     0.076 H 
ENDROOT
BRANCH   5  15
ATOM     15  C9  MNM d          25.867  49.005  -2.997  0.00  0.00     0.024 C 
ATOM     16  H10 MNM d          25.027  49.514  -2.501  0.00  0.00     0.074 H 
ATOM     17  H11 MNM d          25.517  48.552  -3.936  0.00  0.00     0.074 H 
BRANCH  15  18
ATOM     18  O11 MNM d          26.887  49.956  -3.286  0.00  0.00    -0.400 OA
ATOM     19  H14 MNM d          27.072  50.468  -2.507  0.00  0.00     0.209 HD
ENDBRANCH  15  18
ENDBRANCH   5  15
BRANCH   3  20
ATOM     20  O7  MNM d          26.710  49.515  -0.223  0.00  0.00    -0.392 OA
ATOM     21  H8  MNM d          26.832  49.394   0.711  0.00  0.00     0.210 HD
ENDBRANCH   3  20
BRANCH   1  22
ATOM     22  O4  MNM d          29.182  47.519   0.354  0.00  0.00    -0.389 OA
ATOM     23  H4  MNM d          29.287  47.710   1.279  0.00  0.00     0.210 HD
ENDBRANCH   1  22
BRANCH   2  24
ATOM     24  O5  MNM d          28.332  44.912   0.089  0.00  0.00    -0.368 OA
ATOM     25  H5  MNM d          28.350  45.027   1.032  0.00  0.00     0.212 HD
ENDBRANCH   2  24
TORSDOF 5
ENDMDL
MODEL 2
REMARK VINA RESULT:      -5.9      1.763      2.554
REMARK  5 active torsions:
REMARK  status: ('A' for Active; 'I' for Inactive)
REMARK    1  A    between atoms: C1_1  and  O4_4 
REMARK    2  A    between atoms: C2_2  and  O5_5 
REMARK    3  A    between atoms: C3_3  and  O7_7 
REMARK    4  A    between atoms: C8_8  and  C9_9 
REMARK    5  A    between atoms: C9_9  and  O11_11 
ROOT
ATOM      1  C1  MNM d          28.532  46.100  -1.221  0.00  0.00     0.110 C 
ATOM      2  C2  MNM d          28.949  47.212  -0.245  0.00  0.00     0.217 C 
ATOM      3  C3  MNM d          27.439  46.591  -2.195  0.00  0.00     0.071 C 
ATOM      4  N6  MNM d          27.814  48.010   0.204  0.00  0.00    -0.046 N 
ATOM      5  C8  MNM d          27.269  48.136  -2.214  0.00  0.00     0.017 C 
ATOM      6  C10 MNM d          26.895  48.581  -0.793  0.00  0.00     0.092 C 
ATOM      7  H1  MNM d          29.415  45.806  -1.807  0.00  0.00     0.093 H 
ATOM      8  H2  MNM d          29.663  47.861  -0.772  0.00  0.00     0.133 H 
ATOM      9  H3  MNM d          26.484  46.172  -1.843  0.00  0.00     0.087 H 
ATOM     10  H6  MNM d          28.188  48.780   0.734  0.00  0.00     0.280 HD
ATOM     11  H7  MNM d          27.263  47.421   0.808  0.00  0.00     0.280 HD
ATOM     12  H9  MNM d          28.240  48.583  -2.473  0.00  0.00     0.049 H 
ATOM     13  H12 MNM d          26.943  49.678  -0.736  0.00  0.00     0.076 H 
ATOM     14  H13 MNM d          25.871  48.247  -0.570  0.00  0.00     0.076 H 
ENDROOT
BRANCH   5  15
ATOM     15  C9  MNM d          26.242  48.629  -3.268  0.00  0.00     0.024 C 
ATOM     16  H10 MNM d          25.829  47.761  -3.803  0.00  0.00     0.074 H 
ATOM     17  H11 MNM d          26.749  49.293  -3.983  0.00  0.00     0.074 H 
BRANCH  15  18
ATOM     18  O11 MNM d          25.180  49.340  -2.638  0.00  0.00    -0.400 OA
ATOM     19  H14 MNM d          25.119  50.212  -3.012  0.00  0.00     0.209 HD
ENDBRANCH  15  18
ENDBRANCH   5  15
BRANCH   3  20
ATOM     20  O7  MNM d          27.677  46.070  -3.513  0.00  0.00    -0.392 OA
ATOM     21  H8  MNM d          27.468  46.735  -4.158  0.00  0.00     0.210 HD
ENDBRANCH   3  20
BRANCH   1  22
ATOM     22  O4  MNM d          28.053  44.950  -0.508  0.00  0.00    -0.389 OA
ATOM     23  H4  MNM d          27.234  45.166  -0.076  0.00  0.00     0.210 HD
ENDBRANCH   1  22
BRANCH   2  24
ATOM     24  O5  MNM d          29.554  46.740   0.953  0.00  0.00    -0.368 OA
ATOM     25  H5  MNM d          29.486  47.407   1.625  0.00  0.00     0.212 HD
ENDBRANCH   2  24
TORSDOF 5
ENDMDL
MODEL 3
REMARK VINA RESULT:      -5.7      1.779      4.250
REMARK  5 active torsions:
REMARK  status: ('A' for Active; 'I' for Inactive)
REMARK    1  A    between atoms: C1_1  and  O4_4 
REMARK    2  A    between atoms: C2_2  and  O5_5 
REMARK    3  A    between atoms: C3_3  and  O7_7 
REMARK    4  A    between atoms: C8_8  and  C9_9 
REMARK    5  A    between atoms: C9_9  and  O11_11 
ROOT
ATOM      1  C1  MNM d          27.456  47.951  -3.255  0.00  0.00     0.110 C 
ATOM      2  C2  MNM d          26.489  48.980  -2.646  0.00  0.00     0.217 C 
ATOM      3  C3  MNM d          27.962  46.958  -2.187  0.00  0.00     0.071 C 
ATOM      4  N6  MNM d          26.909  49.416  -1.319  0.00  0.00    -0.046 N 
ATOM      5  C8  MNM d          27.140  46.986  -0.868  0.00  0.00     0.017 C 
ATOM      6  C10 MNM d          27.227  48.408  -0.296  0.00  0.00     0.092 C 
ATOM      7  H1  MNM d          26.916  47.387  -4.029  0.00  0.00     0.093 H 
ATOM      8  H2  MNM d          25.502  48.501  -2.575  0.00  0.00     0.133 H 
ATOM      9  H3  MNM d          28.987  47.261  -1.927  0.00  0.00     0.087 H 
ATOM     10  H6  MNM d          26.165  49.985  -0.948  0.00  0.00     0.280 HD
ATOM     11  H7  MNM d          27.734  49.980  -1.443  0.00  0.00     0.280 HD
ATOM     12  H9  MNM d          26.089  46.777  -1.117  0.00  0.00     0.049 H 
ATOM     13  H12 MNM d          26.514  48.505   0.536  0.00  0.00     0.076 H 
ATOM     14  H13 MNM d          28.248  48.584   0.074  0.00  0.00     0.076 H 
ENDROOT
BRANCH   5  15
ATOM     15  C9  MNM d          27.589  45.915   0.160  0.00  0.00     0.024 C 
ATOM     16  H10 MNM d          27.315  44.917  -0.214  0.00  0.00     0.074 H 
ATOM     17  H11 MNM d          27.082  46.099   1.118  0.00  0.00     0.074 H 
BRANCH  15  18
ATOM     18  O11 MNM d          28.999  45.970   0.358  0.00  0.00    -0.400 OA
ATOM     19  H14 MNM d          29.182  46.241   1.250  0.00  0.00     0.209 HD
ENDBRANCH  15  18
ENDBRANCH   5  15
BRANCH   3  20
ATOM     20  O7  MNM d          28.033  45.632  -2.736  0.00  0.00    -0.392 OA
ATOM     21  H8  MNM d          28.734  45.591  -3.376  0.00  0.00     0.210 HD
ENDBRANCH   3  20
BRANCH   1  22
ATOM     22  O4  MNM d          28.578  48.607  -3.865  0.00  0.00    -0.389 OA
ATOM     23  H4  MNM d          29.359  48.441  -3.350  0.00  0.00     0.210 HD
ENDBRANCH   1  22
BRANCH   2  24
ATOM     24  O5  MNM d          26.365  50.181  -3.398  0.00  0.00    -0.368 OA
ATOM     25  H5  MNM d          26.896  50.860  -2.998  0.00  0.00     0.212 HD
ENDBRANCH   2  24
TORSDOF 5
ENDMDL
