MODEL 1
REMARK VINA RESULT:      -9.8      0.000      0.000
REMARK  3 active torsions:
REMARK  status: ('A' for Active; 'I' for Inactive)
REMARK    1  A    between atoms: C10_12  and  C9_11 
REMARK    2  A    between atoms: C12_14  and  N2_15 
REMARK    3  A    between atoms: C14_17  and  C15_18 
ROOT
ATOM      1  C1  HUP d           0.612  69.012  60.939  0.00  0.00     0.245 A 
ATOM      2  O1  HUP d           0.077  69.525  59.919  0.00  0.00    -0.268 OA
ATOM      3  N1  HUP d           1.923  68.533  60.872  0.00  0.00    -0.327 N 
ATOM      4  C2  HUP d          -0.051  68.876  62.228  0.00  0.00    -0.017 A 
ATOM      5  C3  HUP d           0.602  68.297  63.296  0.00  0.00    -0.067 A 
ATOM      6  C4  HUP d           1.964  67.800  63.210  0.00  0.00     0.005 A 
ATOM      7  C5  HUP d           2.621  67.941  61.946  0.00  0.00     0.022 A 
ATOM      8  C6  HUP d           4.034  67.483  61.668  0.00  0.00    -0.016 C 
ATOM      9  C7  HUP d           4.765  66.878  62.947  0.00  0.00    -0.008 C 
ATOM     10  C8  HUP d           5.455  67.968  63.793  0.00  0.00    -0.093 C 
ATOM     11  C10 HUP d           3.740  64.837  64.124  0.00  0.00    -0.101 C 
ATOM     12  C11 HUP d           3.750  66.134  63.845  0.00  0.00    -0.036 C 
ATOM     13  C12 HUP d           2.719  67.123  64.437  0.00  0.00     0.179 C 
ATOM     14  C13 HUP d           3.443  68.202  65.294  0.00  0.00    -0.006 C 
ATOM     15  C14 HUP d           4.851  68.567  64.858  0.00  0.00    -0.084 C 
ATOM     16  H1  HUP d           2.402  68.616  59.998  0.00  0.00     0.169 HD
ATOM     17  H2  HUP d          -1.072  69.234  62.350  0.00  0.00     0.092 H 
ATOM     18  H3  HUP d           0.074  68.208  64.244  0.00  0.00     0.084 H 
ATOM     19  H4  HUP d           4.616  68.344  61.309  0.00  0.00     0.043 H 
ATOM     20  H5  HUP d           4.002  66.710  60.886  0.00  0.00     0.043 H 
ATOM     21  H6  HUP d           5.529  66.164  62.603  0.00  0.00     0.053 H 
ATOM     22  H7  HUP d           6.467  68.272  63.528  0.00  0.00     0.078 H 
ATOM     23  H11 HUP d           2.956  64.500  64.801  0.00  0.00     0.076 H 
ATOM     24  H15 HUP d           3.497  67.829  66.328  0.00  0.00     0.044 H 
ATOM     25  H16 HUP d           2.834  69.118  65.266  0.00  0.00     0.044 H 
ENDROOT
BRANCH  13  26
ATOM     26  N2  HUP d           1.733  66.423  65.307  0.00  0.00    -0.062 N 
ATOM     27  H12 HUP d           2.000  66.532  66.273  0.00  0.00     0.276 HD
ATOM     28  H13 HUP d           1.713  65.443  65.072  0.00  0.00     0.276 HD
ATOM     29  H14 HUP d           0.817  66.820  65.166  0.00  0.00     0.276 HD
ENDBRANCH  13  26
BRANCH  11  30
ATOM     30  C9  HUP d           4.674  63.778  63.621  0.00  0.00    -0.059 C 
ATOM     31  H8  HUP d           4.893  63.068  64.432  0.00  0.00     0.032 H 
ATOM     32  H9  HUP d           5.609  64.247  63.281  0.00  0.00     0.032 H 
ATOM     33  H10 HUP d           4.204  63.243  62.782  0.00  0.00     0.032 H 
ENDBRANCH  11  30
BRANCH  15  34
ATOM     34  C15 HUP d           5.512  69.631  65.707  0.00  0.00    -0.055 C 
ATOM     35  H17 HUP d           5.218  70.626  65.343  0.00  0.00     0.033 H 
ATOM     36  H18 HUP d           6.605  69.526  65.643  0.00  0.00     0.033 H 
ATOM     37  H19 HUP d           5.193  69.515  66.754  0.00  0.00     0.033 H 
ENDBRANCH  15  34
TORSDOF 3
ENDMDL
MODEL 2
REMARK VINA RESULT:      -9.5      1.372      3.474
REMARK  3 active torsions:
REMARK  status: ('A' for Active; 'I' for Inactive)
REMARK    1  A    between atoms: C10_12  and  C9_11 
REMARK    2  A    between atoms: C12_14  and  N2_15 
REMARK    3  A    between atoms: C14_17  and  C15_18 
ROOT
ATOM      1  C1  HUP d           0.518  68.911  61.344  0.00  0.00     0.245 A 
ATOM      2  O1  HUP d          -0.609  69.348  60.984  0.00  0.00    -0.268 OA
ATOM      3  N1  HUP d           0.822  68.801  62.703  0.00  0.00    -0.327 N 
ATOM      4  C2  HUP d           1.565  68.497  60.421  0.00  0.00    -0.017 A 
ATOM      5  C3  HUP d           2.776  68.035  60.895  0.00  0.00    -0.067 A 
ATOM      6  C4  HUP d           3.078  67.929  62.311  0.00  0.00     0.005 A 
ATOM      7  C5  HUP d           2.047  68.328  63.220  0.00  0.00     0.022 A 
ATOM      8  C6  HUP d           2.180  68.289  64.725  0.00  0.00    -0.016 C 
ATOM      9  C7  HUP d           3.571  67.692  65.221  0.00  0.00    -0.008 C 
ATOM     10  C8  HUP d           3.533  66.155  65.344  0.00  0.00    -0.093 C 
ATOM     11  C10 HUP d           5.753  68.841  64.498  0.00  0.00    -0.101 C 
ATOM     12  C11 HUP d           4.702  68.074  64.238  0.00  0.00    -0.036 C 
ATOM     13  C12 HUP d           4.476  67.405  62.862  0.00  0.00     0.179 C 
ATOM     14  C13 HUP d           4.456  65.856  63.017  0.00  0.00    -0.006 C 
ATOM     15  C14 HUP d           3.936  65.325  64.341  0.00  0.00    -0.084 C 
ATOM     16  H1  HUP d           0.120  69.078  63.358  0.00  0.00     0.169 HD
ATOM     17  H2  HUP d           1.391  68.552  59.347  0.00  0.00     0.092 H 
ATOM     18  H3  HUP d           3.538  67.736  60.176  0.00  0.00     0.084 H 
ATOM     19  H4  HUP d           1.369  67.668  65.131  0.00  0.00     0.043 H 
ATOM     20  H5  HUP d           2.083  69.316  65.110  0.00  0.00     0.043 H 
ATOM     21  H6  HUP d           3.796  68.119  66.210  0.00  0.00     0.053 H 
ATOM     22  H7  HUP d           3.169  65.715  66.272  0.00  0.00     0.078 H 
ATOM     23  H11 HUP d           6.459  68.976  63.681  0.00  0.00     0.076 H 
ATOM     24  H15 HUP d           5.487  65.492  62.890  0.00  0.00     0.044 H 
ATOM     25  H16 HUP d           3.822  65.447  62.217  0.00  0.00     0.044 H 
ENDROOT
BRANCH  13  26
ATOM     26  N2  HUP d           5.559  67.762  61.902  0.00  0.00    -0.062 N 
ATOM     27  H12 HUP d           6.440  67.409  62.242  0.00  0.00     0.276 HD
ATOM     28  H13 HUP d           5.611  68.764  61.811  0.00  0.00     0.276 HD
ATOM     29  H14 HUP d           5.359  67.354  61.002  0.00  0.00     0.276 HD
ENDBRANCH  13  26
BRANCH  11  30
ATOM     30  C9  HUP d           6.087  69.544  65.779  0.00  0.00    -0.059 C 
ATOM     31  H8  HUP d           6.356  68.801  66.545  0.00  0.00     0.032 H 
ATOM     32  H9  HUP d           5.214  70.121  66.119  0.00  0.00     0.032 H 
ATOM     33  H10 HUP d           6.936  70.224  65.614  0.00  0.00     0.032 H 
ENDBRANCH  11  30
BRANCH  15  34
ATOM     34  C15 HUP d           3.917  63.815  64.443  0.00  0.00    -0.055 C 
ATOM     35  H17 HUP d           3.483  63.391  63.525  0.00  0.00     0.033 H 
ATOM     36  H18 HUP d           3.309  63.514  65.309  0.00  0.00     0.033 H 
ATOM     37  H19 HUP d           4.944  63.443  64.570  0.00  0.00     0.033 H 
ENDBRANCH  15  34
TORSDOF 3
ENDMDL
MODEL 3
REMARK VINA RESULT:      -7.9      2.761      4.671
REMARK  3 active torsions:
REMARK  status: ('A' for Active; 'I' for Inactive)
REMARK    1  A    between atoms: C10_12  and  C9_11 
REMARK    2  A    between atoms: C12_14  and  N2_15 
REMARK    3  A    between atoms: C14_17  and  C15_18 
ROOT
ATOM      1  C1  HUP d           5.974  70.043  65.880  0.00  0.00     0.245 A 
ATOM      2  O1  HUP d           6.891  70.748  66.380  0.00  0.00    -0.268 OA
ATOM      3  N1  HUP d           6.163  69.426  64.641  0.00  0.00    -0.327 N 
ATOM      4  C2  HUP d           4.684  69.810  66.517  0.00  0.00    -0.017 A 
ATOM      5  C3  HUP d           3.728  69.028  65.901  0.00  0.00    -0.067 A 
ATOM      6  C4  HUP d           3.941  68.396  64.611  0.00  0.00     0.005 A 
ATOM      7  C5  HUP d           5.210  68.616  63.988  0.00  0.00     0.022 A 
ATOM      8  C6  HUP d           5.609  68.043  62.648  0.00  0.00    -0.016 C 
ATOM      9  C7  HUP d           4.497  67.100  62.008  0.00  0.00    -0.008 C 
ATOM     10  C8  HUP d           4.624  65.640  62.491  0.00  0.00    -0.093 C 
ATOM     11  C10 HUP d           2.165  68.066  61.528  0.00  0.00    -0.101 C 
ATOM     12  C11 HUP d           3.084  67.612  62.370  0.00  0.00    -0.036 C 
ATOM     13  C12 HUP d           2.838  67.501  63.894  0.00  0.00     0.179 C 
ATOM     14  C13 HUP d           2.959  66.017  64.348  0.00  0.00    -0.006 C 
ATOM     15  C14 HUP d           3.924  65.153  63.554  0.00  0.00    -0.084 C 
ATOM     16  H1  HUP d           7.041  69.569  64.183  0.00  0.00     0.169 HD
ATOM     17  H2  HUP d           4.473  70.257  67.487  0.00  0.00     0.092 H 
ATOM     18  H3  HUP d           2.775  68.878  66.404  0.00  0.00     0.084 H 
ATOM     19  H4  HUP d           6.530  67.456  62.780  0.00  0.00     0.043 H 
ATOM     20  H5  HUP d           5.801  68.876  61.955  0.00  0.00     0.043 H 
ATOM     21  H6  HUP d           4.616  67.119  60.914  0.00  0.00     0.053 H 
ATOM     22  H7  HUP d           5.300  64.972  61.961  0.00  0.00     0.078 H 
ATOM     23  H11 HUP d           1.214  68.360  61.971  0.00  0.00     0.076 H 
ATOM     24  H15 HUP d           1.961  65.560  64.276  0.00  0.00     0.044 H 
ATOM     25  H16 HUP d           3.290  66.013  65.397  0.00  0.00     0.044 H 
ENDROOT
BRANCH  13  26
ATOM     26  N2  HUP d           1.479  67.989  64.260  0.00  0.00    -0.062 N 
ATOM     27  H12 HUP d           1.538  68.553  65.094  0.00  0.00     0.276 HD
ATOM     28  H13 HUP d           0.873  67.202  64.428  0.00  0.00     0.276 HD
ATOM     29  H14 HUP d           1.106  68.544  63.506  0.00  0.00     0.276 HD
ENDBRANCH  13  26
BRANCH  11  30
ATOM     30  C9  HUP d           2.274  68.224  60.041  0.00  0.00    -0.059 C 
ATOM     31  H8  HUP d           2.599  67.272  59.595  0.00  0.00     0.032 H 
ATOM     32  H9  HUP d           3.011  69.007  59.809  0.00  0.00     0.032 H 
ATOM     33  H10 HUP d           1.294  68.507  59.629  0.00  0.00     0.032 H 
ENDBRANCH  11  30
BRANCH  15  34
ATOM     34  C15 HUP d           4.024  63.723  64.040  0.00  0.00    -0.055 C 
ATOM     35  H17 HUP d           3.066  63.209  63.871  0.00  0.00     0.033 H 
ATOM     36  H18 HUP d           4.259  63.716  65.114  0.00  0.00     0.033 H 
ATOM     37  H19 HUP d           4.821  63.203  63.487  0.00  0.00     0.033 H 
ENDBRANCH  15  34
TORSDOF 3
ENDMDL
MODEL 4
REMARK VINA RESULT:      -7.8      2.700      4.798
REMARK  3 active torsions:
REMARK  status: ('A' for Active; 'I' for Inactive)
REMARK    1  A    between atoms: C10_12  and  C9_11 
REMARK    2  A    between atoms: C12_14  and  N2_15 
REMARK    3  A    between atoms: C14_17  and  C15_18 
ROOT
ATOM      1  C1  HUP d           5.802  70.191  65.818  0.00  0.00     0.245 A 
ATOM      2  O1  HUP d           6.212  70.994  66.699  0.00  0.00    -0.268 OA
ATOM      3  N1  HUP d           4.736  69.332  66.096  0.00  0.00    -0.327 N 
ATOM      4  C2  HUP d           6.373  70.085  64.482  0.00  0.00    -0.017 A 
ATOM      5  C3  HUP d           5.871  69.175  63.574  0.00  0.00    -0.067 A 
ATOM      6  C4  HUP d           4.764  68.287  63.881  0.00  0.00     0.005 A 
ATOM      7  C5  HUP d           4.196  68.395  65.190  0.00  0.00     0.022 A 
ATOM      8  C6  HUP d           3.043  67.555  65.687  0.00  0.00    -0.016 C 
ATOM      9  C7  HUP d           2.460  66.565  64.584  0.00  0.00    -0.008 C 
ATOM     10  C8  HUP d           1.383  67.239  63.708  0.00  0.00    -0.093 C 
ATOM     11  C10 HUP d           4.016  64.810  63.534  0.00  0.00    -0.101 C 
ATOM     12  C11 HUP d           3.594  66.061  63.661  0.00  0.00    -0.036 C 
ATOM     13  C12 HUP d           4.188  67.230  62.840  0.00  0.00     0.179 C 
ATOM     14  C13 HUP d           3.081  67.880  61.958  0.00  0.00    -0.006 C 
ATOM     15  C14 HUP d           1.670  67.835  62.517  0.00  0.00    -0.084 C 
ATOM     16  H1  HUP d           4.325  69.386  67.006  0.00  0.00     0.169 HD
ATOM     17  H2  HUP d           7.203  70.729  64.197  0.00  0.00     0.092 H 
ATOM     18  H3  HUP d           6.324  69.121  62.585  0.00  0.00     0.084 H 
ATOM     19  H4  HUP d           2.235  68.228  66.013  0.00  0.00     0.043 H 
ATOM     20  H5  HUP d           3.390  66.958  66.544  0.00  0.00     0.043 H 
ATOM     21  H6  HUP d           2.007  65.704  65.098  0.00  0.00     0.053 H 
ATOM     22  H7  HUP d           0.352  67.238  64.057  0.00  0.00     0.078 H 
ATOM     23  H11 HUP d           4.813  64.646  62.811  0.00  0.00     0.076 H 
ATOM     24  H15 HUP d           3.076  67.360  60.988  0.00  0.00     0.044 H 
ATOM     25  H16 HUP d           3.350  68.936  61.807  0.00  0.00     0.044 H 
ENDROOT
BRANCH  13  26
ATOM     26  N2  HUP d           5.281  66.762  61.943  0.00  0.00    -0.062 N 
ATOM     27  H12 HUP d           5.093  67.061  60.999  0.00  0.00     0.276 HD
ATOM     28  H13 HUP d           5.333  65.756  61.973  0.00  0.00     0.276 HD
ATOM     29  H14 HUP d           6.158  67.152  62.250  0.00  0.00     0.276 HD
ENDBRANCH  13  26
BRANCH  11  30
ATOM     30  C9  HUP d           3.530  63.595  64.265  0.00  0.00    -0.059 C 
ATOM     31  H8  HUP d           2.984  63.904  65.168  0.00  0.00     0.032 H 
ATOM     32  H9  HUP d           4.390  62.971  64.551  0.00  0.00     0.032 H 
ATOM     33  H10 HUP d           2.859  63.018  63.610  0.00  0.00     0.032 H 
ENDBRANCH  11  30
BRANCH  15  34
ATOM     34  C15 HUP d           0.629  68.493  61.636  0.00  0.00    -0.055 C 
ATOM     35  H17 HUP d           1.083  69.341  61.103  0.00  0.00     0.033 H 
ATOM     36  H18 HUP d          -0.203  68.853  62.259  0.00  0.00     0.033 H 
ATOM     37  H19 HUP d           0.251  67.761  60.907  0.00  0.00     0.033 H 
ENDBRANCH  15  34
TORSDOF 3
ENDMDL
