MODEL 1
REMARK VINA RESULT:      -7.3      0.000      0.000
REMARK  20 active torsions:
REMARK  status: ('A' for Active; 'I' for Inactive)
REMARK    1  A    between atoms: C3_3  and  C7_7 
REMARK    2  A    between atoms: C4_4  and  C27_27 
REMARK    3  A    between atoms: C7_7  and  C8_8 
REMARK    4  A    between atoms: C8_8  and  C9_9 
REMARK    5  A    between atoms: C9_9  and  C10_10 
REMARK    6  A    between atoms: C10_10  and  C11_11 
REMARK    7  A    between atoms: C11_11  and  C12_12 
REMARK    8  A    between atoms: C12_12  and  C13_13 
REMARK    9  A    between atoms: C13_13  and  C14_14 
REMARK   10  A    between atoms: C14_14  and  C15_15 
REMARK   11  A    between atoms: C15_15  and  C16_16 
REMARK       I    between atoms: C16_16  and  N17_17 
REMARK   12  A    between atoms: N17_17  and  C18_18 
REMARK   13  A    between atoms: C18_18  and  C20_20 
REMARK   14  A    between atoms: C18_18  and  C21_21 
REMARK   15  A    between atoms: C20_20  and  C23_23 
REMARK       I    between atoms: C21_21  and  N22_22 
REMARK   16  A    between atoms: N22_22  and  O32_32 
REMARK   17  A    between atoms: C23_23  and  C24_24 
REMARK   18  A    between atoms: C24_24  and  C25_25 
REMARK   19  A    between atoms: C25_25  and  N26_26 
REMARK   20  A    between atoms: C27_27  and  N28_28 
REMARK       I    between atoms: N28_28  and  C29_29 
REMARK       I    between atoms: C29_29  and  N30_30 
ROOT
ATOM      1  C12 FA4 d          24.905   5.080  13.444  0.00  0.00    -0.065 C 
ATOM      2  H15 FA4 d          24.718   5.061  14.528  0.00  0.00     0.033 H 
ATOM      3  H16 FA4 d          25.525   5.953  13.194  0.00  0.00     0.033 H 
ENDROOT
BRANCH   1   4
ATOM      4  C11 FA4 d          23.562   5.213  12.720  0.00  0.00    -0.065 C 
ATOM      5  H13 FA4 d          22.767   5.343  13.470  0.00  0.00     0.033 H 
ATOM      6  H14 FA4 d          23.598   6.098  12.068  0.00  0.00     0.033 H 
BRANCH   4   7
ATOM      7  C10 FA4 d          23.238   3.985  11.866  0.00  0.00    -0.065 C 
ATOM      8  H11 FA4 d          23.756   4.085  10.900  0.00  0.00     0.033 H 
ATOM      9  H12 FA4 d          23.607   3.090  12.388  0.00  0.00     0.033 H 
BRANCH   7  10
ATOM     10  C9  FA4 d          21.740   3.810  11.601  0.00  0.00    -0.065 C 
ATOM     11  H9  FA4 d          21.182   4.442  12.307  0.00  0.00     0.033 H 
ATOM     12  H10 FA4 d          21.526   4.133  10.571  0.00  0.00     0.033 H 
BRANCH  10  13
ATOM     13  C8  FA4 d          21.275   2.363  11.766  0.00  0.00    -0.061 C 
ATOM     14  H7  FA4 d          20.463   2.169  11.049  0.00  0.00     0.033 H 
ATOM     15  H8  FA4 d          22.121   1.694  11.551  0.00  0.00     0.033 H 
BRANCH  13  16
ATOM     16  C7  FA4 d          20.761   2.069  13.186  0.00  0.00    -0.040 C 
ATOM     17  H5  FA4 d          19.884   2.704  13.383  0.00  0.00     0.040 H 
ATOM     18  H6  FA4 d          20.467   1.010  13.243  0.00  0.00     0.040 H 
BRANCH  16  19
ATOM     19  C3  FA4 d          21.804   2.341  14.240  0.00  0.00    -0.050 A 
ATOM     20  C2  FA4 d          22.984   1.529  14.288  0.00  0.00    -0.076 A 
ATOM     21  C1  FA4 d          23.990   1.762  15.275  0.00  0.00    -0.082 A 
ATOM     22  H2  FA4 d          23.115   0.729  13.568  0.00  0.00     0.084 H 
ATOM     23  C6  FA4 d          23.836   2.808  16.240  0.00  0.00    -0.082 A 
ATOM     24  H1  FA4 d          24.878   1.140  15.294  0.00  0.00     0.083 H 
ATOM     25  C5  FA4 d          22.662   3.638  16.213  0.00  0.00    -0.075 A 
ATOM     26  H4  FA4 d          24.602   2.974  16.989  0.00  0.00     0.083 H 
ATOM     27  C4  FA4 d          21.639   3.418  15.224  0.00  0.00    -0.034 A 
ATOM     28  H3  FA4 d          22.547   4.434  16.941  0.00  0.00     0.084 H 
BRANCH  27  29
ATOM     29  C27 FA4 d          20.438   4.346  15.268  0.00  0.00     0.033 C 
ATOM     30  H37 FA4 d          20.129   4.483  16.314  0.00  0.00     0.072 H 
ATOM     31  H38 FA4 d          19.614   3.893  14.698  0.00  0.00     0.072 H 
BRANCH  29  32
ATOM     32  N28 FA4 d          20.759   5.656  14.687  0.00  0.00    -0.223 N 
ATOM     33  C29 FA4 d          21.119   6.714  15.495  0.00  0.00     0.665 C 
ATOM     34  N30 FA4 d          21.919   7.660  15.016  0.00  0.00    -0.235 N 
ATOM     35  N31 FA4 d          20.680   6.805  16.759  0.00  0.00    -0.235 N 
ATOM     36  H40 FA4 d          22.193   8.454  15.613  0.00  0.00     0.174 HD
ATOM     37  H41 FA4 d          22.266   7.599  14.048  0.00  0.00     0.174 HD
ATOM     38  H42 FA4 d          20.059   6.078  17.141  0.00  0.00     0.174 HD
ATOM     39  H43 FA4 d          20.963   7.602  17.346  0.00  0.00     0.174 HD
ATOM     40  H39 FA4 d          20.715   5.786  13.666  0.00  0.00     0.178 HD
ENDBRANCH  29  32
ENDBRANCH  27  29
ENDBRANCH  16  19
ENDBRANCH  13  16
ENDBRANCH  10  13
ENDBRANCH   7  10
ENDBRANCH   4   7
ENDBRANCH   1   4
BRANCH   1  41
ATOM     41  C13 FA4 d          25.669   3.817  13.063  0.00  0.00    -0.065 C 
ATOM     42  H17 FA4 d          25.962   3.889  12.005  0.00  0.00     0.033 H 
ATOM     43  H18 FA4 d          25.008   2.950  13.202  0.00  0.00     0.033 H 
BRANCH  41  44
ATOM     44  C14 FA4 d          26.932   3.612  13.907  0.00  0.00    -0.057 C 
ATOM     45  H19 FA4 d          27.652   3.026  13.317  0.00  0.00     0.033 H 
ATOM     46  H20 FA4 d          26.657   3.052  14.813  0.00  0.00     0.033 H 
BRANCH  44  47
ATOM     47  C15 FA4 d          27.607   4.917  14.333  0.00  0.00     0.009 C 
ATOM     48  H21 FA4 d          27.164   5.259  15.280  0.00  0.00     0.047 H 
ATOM     49  H22 FA4 d          27.443   5.678  13.555  0.00  0.00     0.047 H 
BRANCH  47  50
ATOM     50  C16 FA4 d          29.116   4.714  14.527  0.00  0.00     0.218 C 
ATOM     51  N17 FA4 d          29.715   5.859  14.924  0.00  0.00    -0.348 N 
ATOM     52  H23 FA4 d          29.162   6.684  15.039  0.00  0.00     0.163 HD
ATOM     53  O19 FA4 d          29.656   3.622  14.335  0.00  0.00    -0.274 OA
BRANCH  51  54
ATOM     54  C18 FA4 d          31.140   5.922  15.187  0.00  0.00     0.091 C 
ATOM     55  H24 FA4 d          31.579   4.919  15.088  0.00  0.00     0.087 H 
BRANCH  54  56
ATOM     56  C20 FA4 d          31.324   6.416  16.624  0.00  0.00    -0.038 C 
ATOM     57  H25 FA4 d          32.177   7.110  16.647  0.00  0.00     0.036 H 
ATOM     58  H26 FA4 d          31.540   5.547  17.265  0.00  0.00     0.036 H 
BRANCH  56  59
ATOM     59  C23 FA4 d          30.103   7.136  17.187  0.00  0.00    -0.061 C 
ATOM     60  H28 FA4 d          29.435   6.395  17.651  0.00  0.00     0.033 H 
ATOM     61  H29 FA4 d          29.576   7.640  16.364  0.00  0.00     0.033 H 
BRANCH  59  62
ATOM     62  C24 FA4 d          30.491   8.178  18.237  0.00  0.00    -0.043 C 
ATOM     63  H30 FA4 d          31.281   7.757  18.876  0.00  0.00     0.035 H 
ATOM     64  H31 FA4 d          29.607   8.407  18.850  0.00  0.00     0.035 H 
BRANCH  62  65
ATOM     65  C25 FA4 d          31.005   9.475  17.610  0.00  0.00     0.080 C 
ATOM     66  H32 FA4 d          32.096   9.404  17.498  0.00  0.00     0.075 H 
ATOM     67  H33 FA4 d          30.758  10.312  18.280  0.00  0.00     0.075 H 
BRANCH  65  68
ATOM     68  N26 FA4 d          30.417   9.735  16.301  0.00  0.00    -0.079 N 
ATOM     69  H34 FA4 d          31.029   9.382  15.582  0.00  0.00     0.274 HD
ATOM     70  H35 FA4 d          30.294  10.728  16.180  0.00  0.00     0.274 HD
ATOM     71  H36 FA4 d          29.523   9.274  16.237  0.00  0.00     0.274 HD
ENDBRANCH  65  68
ENDBRANCH  62  65
ENDBRANCH  59  62
ENDBRANCH  56  59
ENDBRANCH  54  56
BRANCH  54  72
ATOM     72  C21 FA4 d          31.821   6.866  14.180  0.00  0.00     0.263 C 
ATOM     73  N22 FA4 d          33.008   6.425  13.740  0.00  0.00    -0.236 N 
ATOM     74  H27 FA4 d          33.377   5.555  14.068  0.00  0.00     0.197 HD
ATOM     75  O33 FA4 d          31.292   7.916  13.828  0.00  0.00    -0.269 OA
BRANCH  73  76
ATOM     76  O32 FA4 d          33.728   7.191  12.818  0.00  0.00    -0.287 OA
ATOM     77  H44 FA4 d          33.175   7.892  12.491  0.00  0.00     0.244 HD
ENDBRANCH  73  76
ENDBRANCH  54  72
ENDBRANCH  51  54
ENDBRANCH  47  50
ENDBRANCH  44  47
ENDBRANCH  41  44
ENDBRANCH   1  41
TORSDOF 20
ENDMDL
MODEL 2
REMARK VINA RESULT:      -7.2      1.641      3.030
REMARK  20 active torsions:
REMARK  status: ('A' for Active; 'I' for Inactive)
REMARK    1  A    between atoms: C3_3  and  C7_7 
REMARK    2  A    between atoms: C4_4  and  C27_27 
REMARK    3  A    between atoms: C7_7  and  C8_8 
REMARK    4  A    between atoms: C8_8  and  C9_9 
REMARK    5  A    between atoms: C9_9  and  C10_10 
REMARK    6  A    between atoms: C10_10  and  C11_11 
REMARK    7  A    between atoms: C11_11  and  C12_12 
REMARK    8  A    between atoms: C12_12  and  C13_13 
REMARK    9  A    between atoms: C13_13  and  C14_14 
REMARK   10  A    between atoms: C14_14  and  C15_15 
REMARK   11  A    between atoms: C15_15  and  C16_16 
REMARK       I    between atoms: C16_16  and  N17_17 
REMARK   12  A    between atoms: N17_17  and  C18_18 
REMARK   13  A    between atoms: C18_18  and  C20_20 
REMARK   14  A    between atoms: C18_18  and  C21_21 
REMARK   15  A    between atoms: C20_20  and  C23_23 
REMARK       I    between atoms: C21_21  and  N22_22 
REMARK   16  A    between atoms: N22_22  and  O32_32 
REMARK   17  A    between atoms: C23_23  and  C24_24 
REMARK   18  A    between atoms: C24_24  and  C25_25 
REMARK   19  A    between atoms: C25_25  and  N26_26 
REMARK   20  A    between atoms: C27_27  and  N28_28 
REMARK       I    between atoms: N28_28  and  C29_29 
REMARK       I    between atoms: C29_29  and  N30_30 
ROOT
ATOM      1  C12 FA4 d          26.974   4.303  15.138  0.00  0.00    -0.065 C 
ATOM      2  H15 FA4 d          26.635   4.284  16.184  0.00  0.00     0.033 H 
ATOM      3  H16 FA4 d          26.212   4.790  14.514  0.00  0.00     0.033 H 
ENDROOT
BRANCH   1   4
ATOM      4  C11 FA4 d          27.150   2.860  14.656  0.00  0.00    -0.065 C 
ATOM      5  H13 FA4 d          27.926   2.840  13.876  0.00  0.00     0.033 H 
ATOM      6  H14 FA4 d          27.469   2.240  15.506  0.00  0.00     0.033 H 
BRANCH   4   7
ATOM      7  C10 FA4 d          25.856   2.279  14.080  0.00  0.00    -0.065 C 
ATOM      8  H11 FA4 d          25.323   3.078  13.544  0.00  0.00     0.033 H 
ATOM      9  H12 FA4 d          26.117   1.476  13.376  0.00  0.00     0.033 H 
BRANCH   7  10
ATOM     10  C9  FA4 d          24.923   1.703  15.150  0.00  0.00    -0.065 C 
ATOM     11  H9  FA4 d          24.709   0.653  14.902  0.00  0.00     0.033 H 
ATOM     12  H10 FA4 d          25.432   1.753  16.124  0.00  0.00     0.033 H 
BRANCH  10  13
ATOM     13  C8  FA4 d          23.600   2.462  15.251  0.00  0.00    -0.061 C 
ATOM     14  H7  FA4 d          22.778   1.773  15.006  0.00  0.00     0.033 H 
ATOM     15  H8  FA4 d          23.479   2.826  16.282  0.00  0.00     0.033 H 
BRANCH  13  16
ATOM     16  C7  FA4 d          23.536   3.664  14.293  0.00  0.00    -0.040 C 
ATOM     17  H5  FA4 d          23.229   4.554  14.862  0.00  0.00     0.040 H 
ATOM     18  H6  FA4 d          24.536   3.830  13.866  0.00  0.00     0.040 H 
BRANCH  16  19
ATOM     19  C3  FA4 d          22.558   3.447  13.166  0.00  0.00    -0.050 A 
ATOM     20  C2  FA4 d          22.298   2.114  12.707  0.00  0.00    -0.076 A 
ATOM     21  C1  FA4 d          21.377   1.876  11.642  0.00  0.00    -0.082 A 
ATOM     22  H2  FA4 d          22.806   1.277  13.173  0.00  0.00     0.084 H 
ATOM     23  C6  FA4 d          20.699   2.966  11.008  0.00  0.00    -0.082 A 
ATOM     24  H1  FA4 d          21.190   0.861  11.311  0.00  0.00     0.083 H 
ATOM     25  C5  FA4 d          20.941   4.313  11.449  0.00  0.00    -0.075 A 
ATOM     26  H4  FA4 d          20.005   2.776  10.196  0.00  0.00     0.083 H 
ATOM     27  C4  FA4 d          21.865   4.570  12.523  0.00  0.00    -0.034 A 
ATOM     28  H3  FA4 d          20.424   5.138  10.972  0.00  0.00     0.084 H 
BRANCH  27  29
ATOM     29  C27 FA4 d          22.053   6.022  12.927  0.00  0.00     0.033 C 
ATOM     30  H37 FA4 d          22.376   6.600  12.048  0.00  0.00     0.072 H 
ATOM     31  H38 FA4 d          22.825   6.080  13.708  0.00  0.00     0.072 H 
BRANCH  29  32
ATOM     32  N28 FA4 d          20.803   6.595  13.444  0.00  0.00    -0.223 N 
ATOM     33  C29 FA4 d          20.769   7.205  14.680  0.00  0.00     0.665 C 
ATOM     34  N30 FA4 d          19.887   8.171  14.908  0.00  0.00    -0.235 N 
ATOM     35  N31 FA4 d          21.614   6.845  15.657  0.00  0.00    -0.235 N 
ATOM     36  H40 FA4 d          19.854   8.633  15.829  0.00  0.00     0.174 HD
ATOM     37  H41 FA4 d          19.235   8.459  14.164  0.00  0.00     0.174 HD
ATOM     38  H42 FA4 d          22.303   6.097  15.492  0.00  0.00     0.174 HD
ATOM     39  H43 FA4 d          21.575   7.316  16.572  0.00  0.00     0.174 HD
ATOM     40  H39 FA4 d          19.944   6.540  12.878  0.00  0.00     0.178 HD
ENDBRANCH  29  32
ENDBRANCH  27  29
ENDBRANCH  16  19
ENDBRANCH  13  16
ENDBRANCH  10  13
ENDBRANCH   7  10
ENDBRANCH   4   7
ENDBRANCH   1   4
BRANCH   1  41
ATOM     41  C13 FA4 d          28.258   5.122  15.061  0.00  0.00    -0.065 C 
ATOM     42  H17 FA4 d          28.097   6.079  15.578  0.00  0.00     0.033 H 
ATOM     43  H18 FA4 d          28.491   5.311  14.003  0.00  0.00     0.033 H 
BRANCH  41  44
ATOM     44  C14 FA4 d          29.453   4.412  15.707  0.00  0.00    -0.057 C 
ATOM     45  H19 FA4 d          29.122   3.420  16.051  0.00  0.00     0.033 H 
ATOM     46  H20 FA4 d          29.786   5.007  16.570  0.00  0.00     0.033 H 
BRANCH  44  47
ATOM     47  C15 FA4 d          30.641   4.223  14.763  0.00  0.00     0.009 C 
ATOM     48  H21 FA4 d          30.382   4.626  13.773  0.00  0.00     0.047 H 
ATOM     49  H22 FA4 d          30.865   3.149  14.676  0.00  0.00     0.047 H 
BRANCH  47  50
ATOM     50  C16 FA4 d          31.883   4.953  15.294  0.00  0.00     0.218 C 
ATOM     51  N17 FA4 d          31.611   6.250  15.558  0.00  0.00    -0.348 N 
ATOM     52  H23 FA4 d          30.690   6.600  15.387  0.00  0.00     0.163 HD
ATOM     53  O19 FA4 d          32.963   4.376  15.444  0.00  0.00    -0.274 OA
BRANCH  51  54
ATOM     54  C18 FA4 d          32.621   7.150  16.083  0.00  0.00     0.091 C 
ATOM     55  H24 FA4 d          33.535   6.584  16.315  0.00  0.00     0.087 H 
BRANCH  54  56
ATOM     56  C20 FA4 d          32.067   7.768  17.369  0.00  0.00    -0.038 C 
ATOM     57  H25 FA4 d          32.040   8.861  17.245  0.00  0.00     0.036 H 
ATOM     58  H26 FA4 d          32.742   7.509  18.198  0.00  0.00     0.036 H 
BRANCH  56  59
ATOM     59  C23 FA4 d          30.663   7.290  17.725  0.00  0.00    -0.061 C 
ATOM     60  H28 FA4 d          30.657   6.950  18.771  0.00  0.00     0.033 H 
ATOM     61  H29 FA4 d          30.395   6.451  17.066  0.00  0.00     0.033 H 
BRANCH  59  62
ATOM     62  C24 FA4 d          29.625   8.400  17.560  0.00  0.00    -0.043 C 
ATOM     63  H30 FA4 d          28.827   8.250  18.302  0.00  0.00     0.035 H 
ATOM     64  H31 FA4 d          29.200   8.338  16.547  0.00  0.00     0.035 H 
BRANCH  62  65
ATOM     65  C25 FA4 d          30.225   9.793  17.757  0.00  0.00     0.080 C 
ATOM     66  H32 FA4 d          31.251   9.685  18.136  0.00  0.00     0.075 H 
ATOM     67  H33 FA4 d          29.616  10.337  18.496  0.00  0.00     0.075 H 
BRANCH  65  68
ATOM     68  N26 FA4 d          30.261  10.566  16.522  0.00  0.00    -0.079 N 
ATOM     69  H34 FA4 d          31.218  10.773  16.283  0.00  0.00     0.274 HD
ATOM     70  H35 FA4 d          29.754  11.428  16.650  0.00  0.00     0.274 HD
ATOM     71  H36 FA4 d          29.837  10.033  15.779  0.00  0.00     0.274 HD
ENDBRANCH  65  68
ENDBRANCH  62  65
ENDBRANCH  59  62
ENDBRANCH  56  59
ENDBRANCH  54  56
BRANCH  54  72
ATOM     72  C21 FA4 d          32.956   8.233  15.041  0.00  0.00     0.263 C 
ATOM     73  N22 FA4 d          33.393   7.744  13.872  0.00  0.00    -0.236 N 
ATOM     74  H27 FA4 d          33.479   6.756  13.738  0.00  0.00     0.197 HD
ATOM     75  O33 FA4 d          32.815   9.425  15.290  0.00  0.00    -0.269 OA
BRANCH  73  76
ATOM     76  O32 FA4 d          33.728   8.625  12.840  0.00  0.00    -0.287 OA
ATOM     77  H44 FA4 d          33.398   9.492  13.047  0.00  0.00     0.244 HD
ENDBRANCH  73  76
ENDBRANCH  54  72
ENDBRANCH  51  54
ENDBRANCH  47  50
ENDBRANCH  44  47
ENDBRANCH  41  44
ENDBRANCH   1  41
TORSDOF 20
ENDMDL
MODEL 3
REMARK VINA RESULT:      -7.1      2.043      3.638
REMARK  20 active torsions:
REMARK  status: ('A' for Active; 'I' for Inactive)
REMARK    1  A    between atoms: C3_3  and  C7_7 
REMARK    2  A    between atoms: C4_4  and  C27_27 
REMARK    3  A    between atoms: C7_7  and  C8_8 
REMARK    4  A    between atoms: C8_8  and  C9_9 
REMARK    5  A    between atoms: C9_9  and  C10_10 
REMARK    6  A    between atoms: C10_10  and  C11_11 
REMARK    7  A    between atoms: C11_11  and  C12_12 
REMARK    8  A    between atoms: C12_12  and  C13_13 
REMARK    9  A    between atoms: C13_13  and  C14_14 
REMARK   10  A    between atoms: C14_14  and  C15_15 
REMARK   11  A    between atoms: C15_15  and  C16_16 
REMARK       I    between atoms: C16_16  and  N17_17 
REMARK   12  A    between atoms: N17_17  and  C18_18 
REMARK   13  A    between atoms: C18_18  and  C20_20 
REMARK   14  A    between atoms: C18_18  and  C21_21 
REMARK   15  A    between atoms: C20_20  and  C23_23 
REMARK       I    between atoms: C21_21  and  N22_22 
REMARK   16  A    between atoms: N22_22  and  O32_32 
REMARK   17  A    between atoms: C23_23  and  C24_24 
REMARK   18  A    between atoms: C24_24  and  C25_25 
REMARK   19  A    between atoms: C25_25  and  N26_26 
REMARK   20  A    between atoms: C27_27  and  N28_28 
REMARK       I    between atoms: N28_28  and  C29_29 
REMARK       I    between atoms: C29_29  and  N30_30 
ROOT
ATOM      1  C12 FA4 d          28.331   4.465  15.603  0.00  0.00    -0.065 C 
ATOM      2  H15 FA4 d          28.571   3.430  15.889  0.00  0.00     0.033 H 
ATOM      3  H16 FA4 d          27.484   4.825  16.204  0.00  0.00     0.033 H 
ENDROOT
BRANCH   1   4
ATOM      4  C11 FA4 d          27.922   4.480  14.127  0.00  0.00    -0.065 C 
ATOM      5  H13 FA4 d          27.972   5.515  13.756  0.00  0.00     0.033 H 
ATOM      6  H14 FA4 d          28.625   3.852  13.559  0.00  0.00     0.033 H 
BRANCH   4   7
ATOM      7  C10 FA4 d          26.503   3.948  13.913  0.00  0.00    -0.065 C 
ATOM      8  H11 FA4 d          25.831   4.451  14.624  0.00  0.00     0.033 H 
ATOM      9  H12 FA4 d          26.193   4.185  12.885  0.00  0.00     0.033 H 
BRANCH   7  10
ATOM     10  C9  FA4 d          26.386   2.435  14.120  0.00  0.00    -0.065 C 
ATOM     11  H9  FA4 d          26.278   1.953  13.137  0.00  0.00     0.033 H 
ATOM     12  H10 FA4 d          27.304   2.075  14.607  0.00  0.00     0.033 H 
BRANCH  10  13
ATOM     13  C8  FA4 d          25.189   2.047  14.989  0.00  0.00    -0.061 C 
ATOM     14  H7  FA4 d          24.744   1.125  14.586  0.00  0.00     0.033 H 
ATOM     15  H8  FA4 d          25.541   1.866  16.015  0.00  0.00     0.033 H 
BRANCH  13  16
ATOM     16  C7  FA4 d          24.108   3.142  15.024  0.00  0.00    -0.040 C 
ATOM     17  H5  FA4 d          23.859   3.360  16.073  0.00  0.00     0.040 H 
ATOM     18  H6  FA4 d          24.508   4.049  14.546  0.00  0.00     0.040 H 
BRANCH  16  19
ATOM     19  C3  FA4 d          22.851   2.727  14.302  0.00  0.00    -0.050 A 
ATOM     20  C2  FA4 d          22.845   1.513  13.540  0.00  0.00    -0.076 A 
ATOM     21  C1  FA4 d          21.669   1.094  12.846  0.00  0.00    -0.082 A 
ATOM     22  H2  FA4 d          23.741   0.906  13.490  0.00  0.00     0.084 H 
ATOM     23  C6  FA4 d          20.475   1.882  12.893  0.00  0.00    -0.082 A 
ATOM     24  H1  FA4 d          21.682   0.171  12.277  0.00  0.00     0.083 H 
ATOM     25  C5  FA4 d          20.454   3.104  13.651  0.00  0.00    -0.075 A 
ATOM     26  H4  FA4 d          19.589   1.559  12.358  0.00  0.00     0.083 H 
ATOM     27  C4  FA4 d          21.629   3.540  14.358  0.00  0.00    -0.034 A 
ATOM     28  H3  FA4 d          19.548   3.699  13.690  0.00  0.00     0.084 H 
BRANCH  27  29
ATOM     29  C27 FA4 d          21.513   4.838  15.136  0.00  0.00     0.033 C 
ATOM     30  H37 FA4 d          22.507   5.121  15.512  0.00  0.00     0.072 H 
ATOM     31  H38 FA4 d          20.830   4.688  15.985  0.00  0.00     0.072 H 
BRANCH  29  32
ATOM     32  N28 FA4 d          20.995   5.920  14.289  0.00  0.00    -0.223 N 
ATOM     33  C29 FA4 d          21.829   6.597  13.424  0.00  0.00     0.665 C 
ATOM     34  N30 FA4 d          21.329   7.127  12.314  0.00  0.00    -0.235 N 
ATOM     35  N31 FA4 d          23.139   6.725  13.680  0.00  0.00    -0.235 N 
ATOM     36  H40 FA4 d          21.945   7.634  11.663  0.00  0.00     0.174 HD
ATOM     37  H41 FA4 d          20.325   7.032  12.105  0.00  0.00     0.174 HD
ATOM     38  H42 FA4 d          23.539   6.318  14.537  0.00  0.00     0.174 HD
ATOM     39  H43 FA4 d          23.746   7.231  13.019  0.00  0.00     0.174 HD
ATOM     40  H39 FA4 d          19.998   6.176  14.342  0.00  0.00     0.178 HD
ENDBRANCH  29  32
ENDBRANCH  27  29
ENDBRANCH  16  19
ENDBRANCH  13  16
ENDBRANCH  10  13
ENDBRANCH   7  10
ENDBRANCH   4   7
ENDBRANCH   1   4
BRANCH   1  41
ATOM     41  C13 FA4 d          29.543   5.342  15.899  0.00  0.00    -0.065 C 
ATOM     42  H17 FA4 d          29.771   5.277  16.972  0.00  0.00     0.033 H 
ATOM     43  H18 FA4 d          29.295   6.382  15.639  0.00  0.00     0.033 H 
BRANCH  41  44
ATOM     44  C14 FA4 d          30.785   4.921  15.107  0.00  0.00    -0.057 C 
ATOM     45  H19 FA4 d          30.472   4.228  14.312  0.00  0.00     0.033 H 
ATOM     46  H20 FA4 d          31.475   4.405  15.791  0.00  0.00     0.033 H 
BRANCH  44  47
ATOM     47  C15 FA4 d          31.530   6.090  14.461  0.00  0.00     0.009 C 
ATOM     48  H21 FA4 d          30.813   6.894  14.237  0.00  0.00     0.047 H 
ATOM     49  H22 FA4 d          32.001   5.747  13.528  0.00  0.00     0.047 H 
BRANCH  47  50
ATOM     50  C16 FA4 d          32.616   6.633  15.401  0.00  0.00     0.218 C 
ATOM     51  N17 FA4 d          33.061   7.840  14.988  0.00  0.00    -0.348 N 
ATOM     52  H23 FA4 d          32.677   8.242  14.157  0.00  0.00     0.163 HD
ATOM     53  O19 FA4 d          32.990   6.005  16.395  0.00  0.00    -0.274 OA
BRANCH  51  54
ATOM     54  C18 FA4 d          34.082   8.568  15.717  0.00  0.00     0.091 C 
ATOM     55  H24 FA4 d          34.574   7.895  16.434  0.00  0.00     0.087 H 
BRANCH  54  56
ATOM     56  C20 FA4 d          33.388   9.700  16.479  0.00  0.00    -0.038 C 
ATOM     57  H25 FA4 d          33.991  10.613  16.370  0.00  0.00     0.036 H 
ATOM     58  H26 FA4 d          33.334   9.420  17.542  0.00  0.00     0.036 H 
BRANCH  56  59
ATOM     59  C23 FA4 d          31.975   9.996  15.987  0.00  0.00    -0.061 C 
ATOM     60  H28 FA4 d          31.683   9.224  15.259  0.00  0.00     0.033 H 
ATOM     61  H29 FA4 d          31.967  10.981  15.499  0.00  0.00     0.033 H 
BRANCH  59  62
ATOM     62  C24 FA4 d          30.964  10.003  17.133  0.00  0.00    -0.043 C 
ATOM     63  H30 FA4 d          30.182  10.743  16.909  0.00  0.00     0.035 H 
ATOM     64  H31 FA4 d          31.483  10.287  18.060  0.00  0.00     0.035 H 
BRANCH  62  65
ATOM     65  C25 FA4 d          30.304   8.638  17.337  0.00  0.00     0.080 C 
ATOM     66  H32 FA4 d          30.218   8.138  16.362  0.00  0.00     0.075 H 
ATOM     67  H33 FA4 d          29.300   8.792  17.761  0.00  0.00     0.075 H 
BRANCH  65  68
ATOM     68  N26 FA4 d          31.063   7.779  18.237  0.00  0.00    -0.079 N 
ATOM     69  H34 FA4 d          30.683   6.846  18.212  0.00  0.00     0.274 HD
ATOM     70  H35 FA4 d          31.005   8.141  19.176  0.00  0.00     0.274 HD
ATOM     71  H36 FA4 d          32.028   7.756  17.945  0.00  0.00     0.274 HD
ENDBRANCH  65  68
ENDBRANCH  62  65
ENDBRANCH  59  62
ENDBRANCH  56  59
ENDBRANCH  54  56
BRANCH  54  72
ATOM     72  C21 FA4 d          35.139   9.116  14.742  0.00  0.00     0.263 C 
ATOM     73  N22 FA4 d          35.007   8.660  13.488  0.00  0.00    -0.236 N 
ATOM     74  H27 FA4 d          34.274   8.021  13.257  0.00  0.00     0.197 HD
ATOM     75  O33 FA4 d          36.003   9.905  15.111  0.00  0.00    -0.269 OA
BRANCH  73  76
ATOM     76  O32 FA4 d          35.905   9.086  12.504  0.00  0.00    -0.287 OA
ATOM     77  H44 FA4 d          36.720   9.352  12.915  0.00  0.00     0.244 HD
ENDBRANCH  73  76
ENDBRANCH  54  72
ENDBRANCH  51  54
ENDBRANCH  47  50
ENDBRANCH  44  47
ENDBRANCH  41  44
ENDBRANCH   1  41
TORSDOF 20
ENDMDL
MODEL 4
REMARK VINA RESULT:      -7.1      2.216      4.329
REMARK  20 active torsions:
REMARK  status: ('A' for Active; 'I' for Inactive)
REMARK    1  A    between atoms: C3_3  and  C7_7 
REMARK    2  A    between atoms: C4_4  and  C27_27 
REMARK    3  A    between atoms: C7_7  and  C8_8 
REMARK    4  A    between atoms: C8_8  and  C9_9 
REMARK    5  A    between atoms: C9_9  and  C10_10 
REMARK    6  A    between atoms: C10_10  and  C11_11 
REMARK    7  A    between atoms: C11_11  and  C12_12 
REMARK    8  A    between atoms: C12_12  and  C13_13 
REMARK    9  A    between atoms: C13_13  and  C14_14 
REMARK   10  A    between atoms: C14_14  and  C15_15 
REMARK   11  A    between atoms: C15_15  and  C16_16 
REMARK       I    between atoms: C16_16  and  N17_17 
REMARK   12  A    between atoms: N17_17  and  C18_18 
REMARK   13  A    between atoms: C18_18  and  C20_20 
REMARK   14  A    between atoms: C18_18  and  C21_21 
REMARK   15  A    between atoms: C20_20  and  C23_23 
REMARK       I    between atoms: C21_21  and  N22_22 
REMARK   16  A    between atoms: N22_22  and  O32_32 
REMARK   17  A    between atoms: C23_23  and  C24_24 
REMARK   18  A    between atoms: C24_24  and  C25_25 
REMARK   19  A    between atoms: C25_25  and  N26_26 
REMARK   20  A    between atoms: C27_27  and  N28_28 
REMARK       I    between atoms: N28_28  and  C29_29 
REMARK       I    between atoms: C29_29  and  N30_30 
ROOT
ATOM      1  C12 FA4 d          30.349   4.337  14.517  0.00  0.00    -0.065 C 
ATOM      2  H15 FA4 d          30.744   5.141  13.878  0.00  0.00     0.033 H 
ATOM      3  H16 FA4 d          30.746   3.370  14.177  0.00  0.00     0.033 H 
ENDROOT
BRANCH   1   4
ATOM      4  C11 FA4 d          28.824   4.312  14.382  0.00  0.00    -0.065 C 
ATOM      5  H13 FA4 d          28.443   5.340  14.480  0.00  0.00     0.033 H 
ATOM      6  H14 FA4 d          28.563   3.917  13.389  0.00  0.00     0.033 H 
BRANCH   4   7
ATOM      7  C10 FA4 d          28.161   3.437  15.450  0.00  0.00    -0.065 C 
ATOM      8  H11 FA4 d          28.951   2.957  16.046  0.00  0.00     0.033 H 
ATOM      9  H12 FA4 d          27.552   4.082  16.100  0.00  0.00     0.033 H 
BRANCH   7  10
ATOM     10  C9  FA4 d          27.261   2.346  14.864  0.00  0.00    -0.065 C 
ATOM     11  H9  FA4 d          27.893   1.606  14.351  0.00  0.00     0.033 H 
ATOM     12  H10 FA4 d          26.718   1.858  15.687  0.00  0.00     0.033 H 
BRANCH  10  13
ATOM     13  C8  FA4 d          26.242   2.895  13.864  0.00  0.00    -0.061 C 
ATOM     14  H7  FA4 d          26.659   3.798  13.395  0.00  0.00     0.033 H 
ATOM     15  H8  FA4 d          26.058   2.132  13.093  0.00  0.00     0.033 H 
BRANCH  13  16
ATOM     16  C7  FA4 d          24.902   3.257  14.528  0.00  0.00    -0.040 C 
ATOM     17  H5  FA4 d          24.842   2.750  15.503  0.00  0.00     0.040 H 
ATOM     18  H6  FA4 d          24.865   4.346  14.678  0.00  0.00     0.040 H 
BRANCH  16  19
ATOM     19  C3  FA4 d          23.718   2.842  13.691  0.00  0.00    -0.050 A 
ATOM     20  C2  FA4 d          23.162   1.531  13.861  0.00  0.00    -0.076 A 
ATOM     21  C1  FA4 d          22.041   1.109  13.083  0.00  0.00    -0.082 A 
ATOM     22  H2  FA4 d          23.596   0.854  14.587  0.00  0.00     0.084 H 
ATOM     23  C6  FA4 d          21.454   1.985  12.115  0.00  0.00    -0.082 A 
ATOM     24  H1  FA4 d          21.631   0.116  13.228  0.00  0.00     0.083 H 
ATOM     25  C5  FA4 d          21.992   3.305  11.925  0.00  0.00    -0.075 A 
ATOM     26  H4  FA4 d          20.607   1.653  11.525  0.00  0.00     0.083 H 
ATOM     27  C4  FA4 d          23.121   3.747  12.702  0.00  0.00    -0.034 A 
ATOM     28  H3  FA4 d          21.546   3.970  11.195  0.00  0.00     0.084 H 
BRANCH  27  29
ATOM     29  C27 FA4 d          23.618   5.158  12.439  0.00  0.00     0.033 C 
ATOM     30  H37 FA4 d          23.107   5.558  11.551  0.00  0.00     0.072 H 
ATOM     31  H38 FA4 d          24.702   5.128  12.256  0.00  0.00     0.072 H 
BRANCH  29  32
ATOM     32  N28 FA4 d          23.349   6.037  13.584  0.00  0.00    -0.223 N 
ATOM     33  C29 FA4 d          22.155   6.719  13.681  0.00  0.00     0.665 C 
ATOM     34  N30 FA4 d          21.674   7.028  14.880  0.00  0.00    -0.235 N 
ATOM     35  N31 FA4 d          21.466   7.074  12.587  0.00  0.00    -0.235 N 
ATOM     36  H40 FA4 d          20.782   7.538  14.962  0.00  0.00     0.174 HD
ATOM     37  H41 FA4 d          22.192   6.758  15.728  0.00  0.00     0.174 HD
ATOM     38  H42 FA4 d          21.829   6.840  11.652  0.00  0.00     0.174 HD
ATOM     39  H43 FA4 d          20.574   7.580  12.681  0.00  0.00     0.174 HD
ATOM     40  H39 FA4 d          24.060   6.145  14.322  0.00  0.00     0.178 HD
ENDBRANCH  29  32
ENDBRANCH  27  29
ENDBRANCH  16  19
ENDBRANCH  13  16
ENDBRANCH  10  13
ENDBRANCH   7  10
ENDBRANCH   4   7
ENDBRANCH   1   4
BRANCH   1  41
ATOM     41  C13 FA4 d          30.821   4.579  15.947  0.00  0.00    -0.065 C 
ATOM     42  H17 FA4 d          31.844   4.187  16.051  0.00  0.00     0.033 H 
ATOM     43  H18 FA4 d          30.151   4.042  16.634  0.00  0.00     0.033 H 
BRANCH  41  44
ATOM     44  C14 FA4 d          30.825   6.064  16.325  0.00  0.00    -0.057 C 
ATOM     45  H19 FA4 d          31.383   6.180  17.266  0.00  0.00     0.033 H 
ATOM     46  H20 FA4 d          29.784   6.388  16.473  0.00  0.00     0.033 H 
BRANCH  44  47
ATOM     47  C15 FA4 d          31.466   6.967  15.270  0.00  0.00     0.009 C 
ATOM     48  H21 FA4 d          30.835   7.857  15.126  0.00  0.00     0.047 H 
ATOM     49  H22 FA4 d          31.543   6.414  14.322  0.00  0.00     0.047 H 
BRANCH  47  50
ATOM     50  C16 FA4 d          32.869   7.411  15.708  0.00  0.00     0.218 C 
ATOM     51  N17 FA4 d          33.237   8.552  15.086  0.00  0.00    -0.348 N 
ATOM     52  H23 FA4 d          32.609   8.974  14.431  0.00  0.00     0.163 HD
ATOM     53  O19 FA4 d          33.527   6.769  16.531  0.00  0.00    -0.274 OA
BRANCH  51  54
ATOM     54  C18 FA4 d          34.518   9.182  15.342  0.00  0.00     0.091 C 
ATOM     55  H24 FA4 d          35.088   8.580  16.064  0.00  0.00     0.087 H 
BRANCH  54  56
ATOM     56  C20 FA4 d          34.244  10.564  15.939  0.00  0.00    -0.038 C 
ATOM     57  H25 FA4 d          33.711  11.167  15.189  0.00  0.00     0.036 H 
ATOM     58  H26 FA4 d          35.208  11.039  16.174  0.00  0.00     0.036 H 
BRANCH  56  59
ATOM     59  C23 FA4 d          33.403  10.528  17.211  0.00  0.00    -0.061 C 
ATOM     60  H28 FA4 d          34.065  10.666  18.079  0.00  0.00     0.033 H 
ATOM     61  H29 FA4 d          32.906   9.549  17.282  0.00  0.00     0.033 H 
BRANCH  59  62
ATOM     62  C24 FA4 d          32.339  11.625  17.221  0.00  0.00    -0.043 C 
ATOM     63  H30 FA4 d          32.819  12.584  16.978  0.00  0.00     0.035 H 
ATOM     64  H31 FA4 d          31.898  11.680  18.227  0.00  0.00     0.035 H 
BRANCH  62  65
ATOM     65  C25 FA4 d          31.222  11.364  16.208  0.00  0.00     0.080 C 
ATOM     66  H32 FA4 d          31.676  11.181  15.223  0.00  0.00     0.075 H 
ATOM     67  H33 FA4 d          30.579  12.255  16.156  0.00  0.00     0.075 H 
BRANCH  65  68
ATOM     68  N26 FA4 d          30.401  10.215  16.565  0.00  0.00    -0.079 N 
ATOM     69  H34 FA4 d          29.459  10.359  16.237  0.00  0.00     0.274 HD
ATOM     70  H35 FA4 d          30.394  10.106  17.568  0.00  0.00     0.274 HD
ATOM     71  H36 FA4 d          30.781   9.384  16.139  0.00  0.00     0.274 HD
ENDBRANCH  65  68
ENDBRANCH  62  65
ENDBRANCH  59  62
ENDBRANCH  56  59
ENDBRANCH  54  56
BRANCH  54  72
ATOM     72  C21 FA4 d          35.325   9.287  14.035  0.00  0.00     0.263 C 
ATOM     73  N22 FA4 d          34.678   8.817  12.959  0.00  0.00    -0.236 N 
ATOM     74  H27 FA4 d          33.756   8.440  13.049  0.00  0.00     0.197 HD
ATOM     75  O33 FA4 d          36.452   9.771  14.016  0.00  0.00    -0.269 OA
BRANCH  73  76
ATOM     76  O32 FA4 d          35.302   8.858  11.709  0.00  0.00    -0.287 OA
ATOM     77  H44 FA4 d          36.069   9.418  11.758  0.00  0.00     0.244 HD
ENDBRANCH  73  76
ENDBRANCH  54  72
ENDBRANCH  51  54
ENDBRANCH  47  50
ENDBRANCH  44  47
ENDBRANCH  41  44
ENDBRANCH   1  41
TORSDOF 20
ENDMDL
MODEL 5
REMARK VINA RESULT:      -6.9      2.202      3.847
REMARK  20 active torsions:
REMARK  status: ('A' for Active; 'I' for Inactive)
REMARK    1  A    between atoms: C3_3  and  C7_7 
REMARK    2  A    between atoms: C4_4  and  C27_27 
REMARK    3  A    between atoms: C7_7  and  C8_8 
REMARK    4  A    between atoms: C8_8  and  C9_9 
REMARK    5  A    between atoms: C9_9  and  C10_10 
REMARK    6  A    between atoms: C10_10  and  C11_11 
REMARK    7  A    between atoms: C11_11  and  C12_12 
REMARK    8  A    between atoms: C12_12  and  C13_13 
REMARK    9  A    between atoms: C13_13  and  C14_14 
REMARK   10  A    between atoms: C14_14  and  C15_15 
REMARK   11  A    between atoms: C15_15  and  C16_16 
REMARK       I    between atoms: C16_16  and  N17_17 
REMARK   12  A    between atoms: N17_17  and  C18_18 
REMARK   13  A    between atoms: C18_18  and  C20_20 
REMARK   14  A    between atoms: C18_18  and  C21_21 
REMARK   15  A    between atoms: C20_20  and  C23_23 
REMARK       I    between atoms: C21_21  and  N22_22 
REMARK   16  A    between atoms: N22_22  and  O32_32 
REMARK   17  A    between atoms: C23_23  and  C24_24 
REMARK   18  A    between atoms: C24_24  and  C25_25 
REMARK   19  A    between atoms: C25_25  and  N26_26 
REMARK   20  A    between atoms: C27_27  and  N28_28 
REMARK       I    between atoms: N28_28  and  C29_29 
REMARK       I    between atoms: C29_29  and  N30_30 
ROOT
ATOM      1  C12 FA4 d          28.138   5.214  14.948  0.00  0.00    -0.065 C 
ATOM      2  H15 FA4 d          27.887   5.841  15.816  0.00  0.00     0.033 H 
ATOM      3  H16 FA4 d          27.556   5.544  14.076  0.00  0.00     0.033 H 
ENDROOT
BRANCH   1   4
ATOM      4  C11 FA4 d          27.757   3.766  15.267  0.00  0.00    -0.065 C 
ATOM      5  H13 FA4 d          28.674   3.198  15.485  0.00  0.00     0.033 H 
ATOM      6  H14 FA4 d          27.103   3.759  16.152  0.00  0.00     0.033 H 
BRANCH   4   7
ATOM      7  C10 FA4 d          27.022   3.089  14.107  0.00  0.00    -0.065 C 
ATOM      8  H11 FA4 d          26.546   3.868  13.494  0.00  0.00     0.033 H 
ATOM      9  H12 FA4 d          27.758   2.543  13.499  0.00  0.00     0.033 H 
BRANCH   7  10
ATOM     10  C9  FA4 d          25.944   2.103  14.566  0.00  0.00    -0.065 C 
ATOM     11  H9  FA4 d          25.854   1.305  13.814  0.00  0.00     0.033 H 
ATOM     12  H10 FA4 d          26.252   1.668  15.528  0.00  0.00     0.033 H 
BRANCH  10  13
ATOM     13  C8  FA4 d          24.576   2.764  14.745  0.00  0.00    -0.061 C 
ATOM     14  H7  FA4 d          23.795   2.014  14.552  0.00  0.00     0.033 H 
ATOM     15  H8  FA4 d          24.491   3.124  15.781  0.00  0.00     0.033 H 
BRANCH  13  16
ATOM     16  C7  FA4 d          24.368   3.952  13.791  0.00  0.00    -0.040 C 
ATOM     17  H5  FA4 d          24.346   4.880  14.381  0.00  0.00     0.040 H 
ATOM     18  H6  FA4 d          25.208   3.988  13.082  0.00  0.00     0.040 H 
BRANCH  16  19
ATOM     19  C3  FA4 d          23.081   3.842  13.012  0.00  0.00    -0.050 A 
ATOM     20  C2  FA4 d          22.699   2.574  12.461  0.00  0.00    -0.076 A 
ATOM     21  C1  FA4 d          21.487   2.438  11.718  0.00  0.00    -0.082 A 
ATOM     22  H2  FA4 d          23.336   1.710  12.609  0.00  0.00     0.084 H 
ATOM     23  C6  FA4 d          20.632   3.566  11.505  0.00  0.00    -0.082 A 
ATOM     24  H1  FA4 d          21.212   1.471  11.313  0.00  0.00     0.083 H 
ATOM     25  C5  FA4 d          20.991   4.848  12.048  0.00  0.00    -0.075 A 
ATOM     26  H4  FA4 d          19.716   3.454  10.936  0.00  0.00     0.083 H 
ATOM     27  C4  FA4 d          22.209   5.003  12.800  0.00  0.00    -0.034 A 
ATOM     28  H3  FA4 d          20.342   5.702  11.891  0.00  0.00     0.084 H 
BRANCH  27  29
ATOM     29  C27 FA4 d          22.504   6.391  13.340  0.00  0.00     0.033 C 
ATOM     30  H37 FA4 d          23.146   6.925  12.625  0.00  0.00     0.072 H 
ATOM     31  H38 FA4 d          23.026   6.298  14.303  0.00  0.00     0.072 H 
BRANCH  29  32
ATOM     32  N28 FA4 d          21.267   7.158  13.539  0.00  0.00    -0.223 N 
ATOM     33  C29 FA4 d          21.005   7.768  14.747  0.00  0.00     0.665 C 
ATOM     34  N30 FA4 d          20.254   8.864  14.777  0.00  0.00    -0.235 N 
ATOM     35  N31 FA4 d          21.498   7.280  15.894  0.00  0.00    -0.235 N 
ATOM     36  H40 FA4 d          20.054   9.326  15.675  0.00  0.00     0.174 HD
ATOM     37  H41 FA4 d          19.873   9.250  13.902  0.00  0.00     0.174 HD
ATOM     38  H42 FA4 d          22.081   6.431  15.884  0.00  0.00     0.174 HD
ATOM     39  H43 FA4 d          21.293   7.753  16.786  0.00  0.00     0.174 HD
ATOM     40  H39 FA4 d          20.589   7.240  12.768  0.00  0.00     0.178 HD
ENDBRANCH  29  32
ENDBRANCH  27  29
ENDBRANCH  16  19
ENDBRANCH  13  16
ENDBRANCH  10  13
ENDBRANCH   7  10
ENDBRANCH   4   7
ENDBRANCH   1   4
BRANCH   1  41
ATOM     41  C13 FA4 d          29.620   5.390  14.636  0.00  0.00    -0.065 C 
ATOM     42  H17 FA4 d          29.854   6.464  14.633  0.00  0.00     0.033 H 
ATOM     43  H18 FA4 d          29.822   4.968  13.640  0.00  0.00     0.033 H 
BRANCH  41  44
ATOM     44  C14 FA4 d          30.526   4.693  15.657  0.00  0.00    -0.057 C 
ATOM     45  H19 FA4 d          30.217   3.640  15.733  0.00  0.00     0.033 H 
ATOM     46  H20 FA4 d          30.393   5.185  16.632  0.00  0.00     0.033 H 
BRANCH  44  47
ATOM     47  C15 FA4 d          32.011   4.736  15.293  0.00  0.00     0.009 C 
ATOM     48  H21 FA4 d          32.133   4.431  14.243  0.00  0.00     0.047 H 
ATOM     49  H22 FA4 d          32.561   4.040  15.944  0.00  0.00     0.047 H 
BRANCH  47  50
ATOM     50  C16 FA4 d          32.578   6.151  15.476  0.00  0.00     0.218 C 
ATOM     51  N17 FA4 d          32.819   6.738  14.283  0.00  0.00    -0.348 N 
ATOM     52  H23 FA4 d          32.628   6.231  13.443  0.00  0.00     0.163 HD
ATOM     53  O19 FA4 d          32.765   6.637  16.594  0.00  0.00    -0.274 OA
BRANCH  51  54
ATOM     54  C18 FA4 d          33.347   8.086  14.189  0.00  0.00     0.091 C 
ATOM     55  H24 FA4 d          34.032   8.274  15.029  0.00  0.00     0.087 H 
BRANCH  54  56
ATOM     56  C20 FA4 d          32.164   9.054  14.273  0.00  0.00    -0.038 C 
ATOM     57  H25 FA4 d          31.237   8.465  14.326  0.00  0.00     0.036 H 
ATOM     58  H26 FA4 d          32.155   9.671  13.362  0.00  0.00     0.036 H 
BRANCH  56  59
ATOM     59  C23 FA4 d          32.214   9.981  15.483  0.00  0.00    -0.061 C 
ATOM     60  H28 FA4 d          31.437   9.674  16.199  0.00  0.00     0.033 H 
ATOM     61  H29 FA4 d          32.018  11.011  15.150  0.00  0.00     0.033 H 
BRANCH  59  62
ATOM     62  C24 FA4 d          33.574   9.936  16.178  0.00  0.00    -0.043 C 
ATOM     63  H30 FA4 d          34.267   9.346  15.561  0.00  0.00     0.035 H 
ATOM     64  H31 FA4 d          33.454   9.451  17.159  0.00  0.00     0.035 H 
BRANCH  62  65
ATOM     65  C25 FA4 d          34.169  11.329  16.389  0.00  0.00     0.080 C 
ATOM     66  H32 FA4 d          35.105  11.231  16.958  0.00  0.00     0.075 H 
ATOM     67  H33 FA4 d          33.452  11.936  16.963  0.00  0.00     0.075 H 
BRANCH  65  68
ATOM     68  N26 FA4 d          34.457  12.010  15.133  0.00  0.00    -0.079 N 
ATOM     69  H34 FA4 d          34.500  11.334  14.387  0.00  0.00     0.274 HD
ATOM     70  H35 FA4 d          35.341  12.488  15.205  0.00  0.00     0.274 HD
ATOM     71  H36 FA4 d          33.728  12.678  14.938  0.00  0.00     0.274 HD
ENDBRANCH  65  68
ENDBRANCH  62  65
ENDBRANCH  59  62
ENDBRANCH  56  59
ENDBRANCH  54  56
BRANCH  54  72
ATOM     72  C21 FA4 d          34.119   8.259  12.869  0.00  0.00     0.263 C 
ATOM     73  N22 FA4 d          34.607   9.495  12.684  0.00  0.00    -0.236 N 
ATOM     74  H27 FA4 d          34.454  10.206  13.370  0.00  0.00     0.197 HD
ATOM     75  O33 FA4 d          34.263   7.327  12.085  0.00  0.00    -0.269 OA
BRANCH  73  76
ATOM     76  O32 FA4 d          35.331   9.780  11.523  0.00  0.00    -0.287 OA
ATOM     77  H44 FA4 d          34.735  10.080  10.846  0.00  0.00     0.244 HD
ENDBRANCH  73  76
ENDBRANCH  54  72
ENDBRANCH  51  54
ENDBRANCH  47  50
ENDBRANCH  44  47
ENDBRANCH  41  44
ENDBRANCH   1  41
TORSDOF 20
ENDMDL
MODEL 6
REMARK VINA RESULT:      -6.7      2.922      4.886
REMARK  20 active torsions:
REMARK  status: ('A' for Active; 'I' for Inactive)
REMARK    1  A    between atoms: C3_3  and  C7_7 
REMARK    2  A    between atoms: C4_4  and  C27_27 
REMARK    3  A    between atoms: C7_7  and  C8_8 
REMARK    4  A    between atoms: C8_8  and  C9_9 
REMARK    5  A    between atoms: C9_9  and  C10_10 
REMARK    6  A    between atoms: C10_10  and  C11_11 
REMARK    7  A    between atoms: C11_11  and  C12_12 
REMARK    8  A    between atoms: C12_12  and  C13_13 
REMARK    9  A    between atoms: C13_13  and  C14_14 
REMARK   10  A    between atoms: C14_14  and  C15_15 
REMARK   11  A    between atoms: C15_15  and  C16_16 
REMARK       I    between atoms: C16_16  and  N17_17 
REMARK   12  A    between atoms: N17_17  and  C18_18 
REMARK   13  A    between atoms: C18_18  and  C20_20 
REMARK   14  A    between atoms: C18_18  and  C21_21 
REMARK   15  A    between atoms: C20_20  and  C23_23 
REMARK       I    between atoms: C21_21  and  N22_22 
REMARK   16  A    between atoms: N22_22  and  O32_32 
REMARK   17  A    between atoms: C23_23  and  C24_24 
REMARK   18  A    between atoms: C24_24  and  C25_25 
REMARK   19  A    between atoms: C25_25  and  N26_26 
REMARK   20  A    between atoms: C27_27  and  N28_28 
REMARK       I    between atoms: N28_28  and  C29_29 
REMARK       I    between atoms: C29_29  and  N30_30 
ROOT
ATOM      1  C12 FA4 d          30.412   4.545  14.808  0.00  0.00    -0.065 C 
ATOM      2  H15 FA4 d          30.590   5.194  13.938  0.00  0.00     0.033 H 
ATOM      3  H16 FA4 d          31.336   4.006  15.059  0.00  0.00     0.033 H 
ENDROOT
BRANCH   1   4
ATOM      4  C11 FA4 d          29.336   3.520  14.438  0.00  0.00    -0.065 C 
ATOM      5  H13 FA4 d          29.024   3.693  13.397  0.00  0.00     0.033 H 
ATOM      6  H14 FA4 d          29.763   2.510  14.530  0.00  0.00     0.033 H 
BRANCH   4   7
ATOM      7  C10 FA4 d          28.105   3.617  15.344  0.00  0.00    -0.065 C 
ATOM      8  H11 FA4 d          28.388   3.286  16.354  0.00  0.00     0.033 H 
ATOM      9  H12 FA4 d          27.781   4.668  15.380  0.00  0.00     0.033 H 
BRANCH   7  10
ATOM     10  C9  FA4 d          26.930   2.762  14.861  0.00  0.00    -0.065 C 
ATOM     11  H9  FA4 d          27.225   2.251  13.932  0.00  0.00     0.033 H 
ATOM     12  H10 FA4 d          26.698   2.014  15.634  0.00  0.00     0.033 H 
BRANCH  10  13
ATOM     13  C8  FA4 d          25.672   3.587  14.586  0.00  0.00    -0.061 C 
ATOM     14  H7  FA4 d          25.880   4.640  14.829  0.00  0.00     0.033 H 
ATOM     15  H8  FA4 d          25.419   3.500  13.519  0.00  0.00     0.033 H 
BRANCH  13  16
ATOM     16  C7  FA4 d          24.467   3.118  15.419  0.00  0.00    -0.040 C 
ATOM     17  H5  FA4 d          24.783   2.279  16.057  0.00  0.00     0.040 H 
ATOM     18  H6  FA4 d          24.128   3.951  16.052  0.00  0.00     0.040 H 
BRANCH  16  19
ATOM     19  C3  FA4 d          23.317   2.664  14.556  0.00  0.00    -0.050 A 
ATOM     20  C2  FA4 d          23.447   1.462  13.785  0.00  0.00    -0.076 A 
ATOM     21  C1  FA4 d          22.375   1.008  12.958  0.00  0.00    -0.082 A 
ATOM     22  H2  FA4 d          24.368   0.892  13.830  0.00  0.00     0.084 H 
ATOM     23  C6  FA4 d          21.152   1.747  12.877  0.00  0.00    -0.082 A 
ATOM     24  H1  FA4 d          22.490   0.094  12.385  0.00  0.00     0.083 H 
ATOM     25  C5  FA4 d          20.995   2.955  13.641  0.00  0.00    -0.075 A 
ATOM     26  H4  FA4 d          20.346   1.396  12.242  0.00  0.00     0.083 H 
ATOM     27  C4  FA4 d          22.065   3.427  14.481  0.00  0.00    -0.034 A 
ATOM     28  H3  FA4 d          20.067   3.513  13.584  0.00  0.00     0.084 H 
BRANCH  27  29
ATOM     29  C27 FA4 d          21.808   4.708  15.255  0.00  0.00     0.033 C 
ATOM     30  H37 FA4 d          22.770   5.126  15.586  0.00  0.00     0.072 H 
ATOM     31  H38 FA4 d          21.187   4.478  16.133  0.00  0.00     0.072 H 
BRANCH  29  32
ATOM     32  N28 FA4 d          21.114   5.700  14.423  0.00  0.00    -0.223 N 
ATOM     33  C29 FA4 d          21.821   6.511  13.560  0.00  0.00     0.665 C 
ATOM     34  N30 FA4 d          21.231   6.964  12.459  0.00  0.00    -0.235 N 
ATOM     35  N31 FA4 d          23.095   6.847  13.808  0.00  0.00    -0.235 N 
ATOM     36  H40 FA4 d          21.752   7.571  11.809  0.00  0.00     0.174 HD
ATOM     37  H41 FA4 d          20.254   6.710  12.257  0.00  0.00     0.174 HD
ATOM     38  H42 FA4 d          23.562   6.501  14.658  0.00  0.00     0.174 HD
ATOM     39  H43 FA4 d          23.606   7.451  13.148  0.00  0.00     0.174 HD
ATOM     40  H39 FA4 d          20.090   5.791  14.486  0.00  0.00     0.178 HD
ENDBRANCH  29  32
ENDBRANCH  27  29
ENDBRANCH  16  19
ENDBRANCH  13  16
ENDBRANCH  10  13
ENDBRANCH   7  10
ENDBRANCH   4   7
ENDBRANCH   1   4
BRANCH   1  41
ATOM     41  C13 FA4 d          30.023   5.421  15.994  0.00  0.00    -0.065 C 
ATOM     42  H17 FA4 d          29.671   4.773  16.810  0.00  0.00     0.033 H 
ATOM     43  H18 FA4 d          29.211   6.093  15.683  0.00  0.00     0.033 H 
BRANCH  41  44
ATOM     44  C14 FA4 d          31.191   6.268  16.511  0.00  0.00    -0.057 C 
ATOM     45  H19 FA4 d          31.388   5.986  17.556  0.00  0.00     0.033 H 
ATOM     46  H20 FA4 d          30.899   7.327  16.466  0.00  0.00     0.033 H 
BRANCH  44  47
ATOM     47  C15 FA4 d          32.483   6.090  15.712  0.00  0.00     0.009 C 
ATOM     48  H21 FA4 d          32.428   5.149  15.144  0.00  0.00     0.047 H 
ATOM     49  H22 FA4 d          33.334   6.049  16.408  0.00  0.00     0.047 H 
BRANCH  47  50
ATOM     50  C16 FA4 d          32.687   7.256  14.735  0.00  0.00     0.218 C 
ATOM     51  N17 FA4 d          32.972   8.401  15.394  0.00  0.00    -0.348 N 
ATOM     52  H23 FA4 d          33.012   8.391  16.393  0.00  0.00     0.163 HD
ATOM     53  O19 FA4 d          32.596   7.106  13.514  0.00  0.00    -0.274 OA
BRANCH  51  54
ATOM     54  C18 FA4 d          33.221   9.645  14.690  0.00  0.00     0.091 C 
ATOM     55  H24 FA4 d          33.166   9.473  13.605  0.00  0.00     0.087 H 
BRANCH  54  56
ATOM     56  C20 FA4 d          34.630  10.112  15.060  0.00  0.00    -0.038 C 
ATOM     57  H25 FA4 d          34.786   9.930  16.133  0.00  0.00     0.036 H 
ATOM     58  H26 FA4 d          34.703  11.191  14.856  0.00  0.00     0.036 H 
BRANCH  56  59
ATOM     59  C23 FA4 d          35.736   9.401  14.286  0.00  0.00    -0.061 C 
ATOM     60  H28 FA4 d          35.646   9.658  13.220  0.00  0.00     0.033 H 
ATOM     61  H29 FA4 d          35.616   8.314  14.413  0.00  0.00     0.033 H 
BRANCH  59  62
ATOM     62  C24 FA4 d          37.125   9.806  14.778  0.00  0.00    -0.043 C 
ATOM     63  H30 FA4 d          37.612   8.926  15.225  0.00  0.00     0.035 H 
ATOM     64  H31 FA4 d          37.015  10.590  15.541  0.00  0.00     0.035 H 
BRANCH  62  65
ATOM     65  C25 FA4 d          38.011  10.338  13.651  0.00  0.00     0.080 C 
ATOM     66  H32 FA4 d          38.725   9.553  13.363  0.00  0.00     0.075 H 
ATOM     67  H33 FA4 d          38.561  11.217  14.019  0.00  0.00     0.075 H 
BRANCH  65  68
ATOM     68  N26 FA4 d          37.245  10.726  12.473  0.00  0.00    -0.079 N 
ATOM     69  H34 FA4 d          37.852  11.185  11.813  0.00  0.00     0.274 HD
ATOM     70  H35 FA4 d          36.507  11.357  12.746  0.00  0.00     0.274 HD
ATOM     71  H36 FA4 d          36.845   9.906  12.047  0.00  0.00     0.274 HD
ENDBRANCH  65  68
ENDBRANCH  62  65
ENDBRANCH  59  62
ENDBRANCH  56  59
ENDBRANCH  54  56
BRANCH  54  72
ATOM     72  C21 FA4 d          32.163  10.693  15.081  0.00  0.00     0.263 C 
ATOM     73  N22 FA4 d          32.285  11.857  14.428  0.00  0.00    -0.236 N 
ATOM     74  H27 FA4 d          33.016  11.985  13.757  0.00  0.00     0.197 HD
ATOM     75  O33 FA4 d          31.297  10.447  15.914  0.00  0.00    -0.269 OA
BRANCH  73  76
ATOM     76  O32 FA4 d          31.383  12.891  14.691  0.00  0.00    -0.287 OA
ATOM     77  H44 FA4 d          31.331  13.033  15.630  0.00  0.00     0.244 HD
ENDBRANCH  73  76
ENDBRANCH  54  72
ENDBRANCH  51  54
ENDBRANCH  47  50
ENDBRANCH  44  47
ENDBRANCH  41  44
ENDBRANCH   1  41
TORSDOF 20
ENDMDL
MODEL 7
REMARK VINA RESULT:      -6.7      2.085      3.596
REMARK  20 active torsions:
REMARK  status: ('A' for Active; 'I' for Inactive)
REMARK    1  A    between atoms: C3_3  and  C7_7 
REMARK    2  A    between atoms: C4_4  and  C27_27 
REMARK    3  A    between atoms: C7_7  and  C8_8 
REMARK    4  A    between atoms: C8_8  and  C9_9 
REMARK    5  A    between atoms: C9_9  and  C10_10 
REMARK    6  A    between atoms: C10_10  and  C11_11 
REMARK    7  A    between atoms: C11_11  and  C12_12 
REMARK    8  A    between atoms: C12_12  and  C13_13 
REMARK    9  A    between atoms: C13_13  and  C14_14 
REMARK   10  A    between atoms: C14_14  and  C15_15 
REMARK   11  A    between atoms: C15_15  and  C16_16 
REMARK       I    between atoms: C16_16  and  N17_17 
REMARK   12  A    between atoms: N17_17  and  C18_18 
REMARK   13  A    between atoms: C18_18  and  C20_20 
REMARK   14  A    between atoms: C18_18  and  C21_21 
REMARK   15  A    between atoms: C20_20  and  C23_23 
REMARK       I    between atoms: C21_21  and  N22_22 
REMARK   16  A    between atoms: N22_22  and  O32_32 
REMARK   17  A    between atoms: C23_23  and  C24_24 
REMARK   18  A    between atoms: C24_24  and  C25_25 
REMARK   19  A    between atoms: C25_25  and  N26_26 
REMARK   20  A    between atoms: C27_27  and  N28_28 
REMARK       I    between atoms: N28_28  and  C29_29 
REMARK       I    between atoms: C29_29  and  N30_30 
ROOT
ATOM      1  C12 FA4 d          27.796   3.654  14.502  0.00  0.00    -0.065 C 
ATOM      2  H15 FA4 d          27.089   4.498  14.511  0.00  0.00     0.033 H 
ATOM      3  H16 FA4 d          28.225   3.546  13.496  0.00  0.00     0.033 H 
ENDROOT
BRANCH   1   4
ATOM      4  C11 FA4 d          27.029   2.374  14.845  0.00  0.00    -0.065 C 
ATOM      5  H13 FA4 d          27.621   1.507  14.516  0.00  0.00     0.033 H 
ATOM      6  H14 FA4 d          26.886   2.328  15.935  0.00  0.00     0.033 H 
BRANCH   4   7
ATOM      7  C10 FA4 d          25.657   2.320  14.166  0.00  0.00    -0.065 C 
ATOM      8  H11 FA4 d          25.433   3.314  13.752  0.00  0.00     0.033 H 
ATOM      9  H12 FA4 d          25.701   1.583  13.350  0.00  0.00     0.033 H 
BRANCH   7  10
ATOM     10  C9  FA4 d          24.526   1.923  15.119  0.00  0.00    -0.065 C 
ATOM     11  H9  FA4 d          23.862   1.215  14.601  0.00  0.00     0.033 H 
ATOM     12  H10 FA4 d          24.965   1.435  16.002  0.00  0.00     0.033 H 
BRANCH  10  13
ATOM     13  C8  FA4 d          23.697   3.121  15.584  0.00  0.00    -0.061 C 
ATOM     14  H7  FA4 d          23.688   3.138  16.684  0.00  0.00     0.033 H 
ATOM     15  H8  FA4 d          24.166   4.042  15.207  0.00  0.00     0.033 H 
BRANCH  13  16
ATOM     16  C7  FA4 d          22.245   3.064  15.079  0.00  0.00    -0.040 C 
ATOM     17  H5  FA4 d          22.255   2.854  13.999  0.00  0.00     0.040 H 
ATOM     18  H6  FA4 d          21.720   2.253  15.605  0.00  0.00     0.040 H 
BRANCH  16  19
ATOM     19  C3  FA4 d          21.505   4.356  15.316  0.00  0.00    -0.050 A 
ATOM     20  C2  FA4 d          21.378   4.858  16.654  0.00  0.00    -0.076 A 
ATOM     21  C1  FA4 d          20.682   6.078  16.911  0.00  0.00    -0.082 A 
ATOM     22  H2  FA4 d          21.813   4.305  17.478  0.00  0.00     0.084 H 
ATOM     23  C6  FA4 d          20.094   6.822  15.838  0.00  0.00    -0.082 A 
ATOM     24  H1  FA4 d          20.599   6.445  17.928  0.00  0.00     0.083 H 
ATOM     25  C5  FA4 d          20.208   6.341  14.488  0.00  0.00    -0.075 A 
ATOM     26  H4  FA4 d          19.563   7.745  16.044  0.00  0.00     0.083 H 
ATOM     27  C4  FA4 d          20.907   5.113  14.211  0.00  0.00    -0.034 A 
ATOM     28  H3  FA4 d          19.767   6.906  13.675  0.00  0.00     0.084 H 
BRANCH  27  29
ATOM     29  C27 FA4 d          20.983   4.686  12.756  0.00  0.00     0.033 C 
ATOM     30  H37 FA4 d          20.486   5.445  12.133  0.00  0.00     0.072 H 
ATOM     31  H38 FA4 d          20.469   3.722  12.638  0.00  0.00     0.072 H 
BRANCH  29  32
ATOM     32  N28 FA4 d          22.377   4.543  12.317  0.00  0.00    -0.223 N 
ATOM     33  C29 FA4 d          23.291   5.551  12.541  0.00  0.00     0.665 C 
ATOM     34  N30 FA4 d          24.577   5.248  12.682  0.00  0.00    -0.235 N 
ATOM     35  N31 FA4 d          22.907   6.833  12.624  0.00  0.00    -0.235 N 
ATOM     36  H40 FA4 d          25.267   5.995  12.849  0.00  0.00     0.174 HD
ATOM     37  H41 FA4 d          24.884   4.267  12.623  0.00  0.00     0.174 HD
ATOM     38  H42 FA4 d          21.912   7.080  12.516  0.00  0.00     0.174 HD
ATOM     39  H43 FA4 d          23.605   7.570  12.795  0.00  0.00     0.174 HD
ATOM     40  H39 FA4 d          22.675   3.681  11.837  0.00  0.00     0.178 HD
ENDBRANCH  29  32
ENDBRANCH  27  29
ENDBRANCH  16  19
ENDBRANCH  13  16
ENDBRANCH  10  13
ENDBRANCH   7  10
ENDBRANCH   4   7
ENDBRANCH   1   4
BRANCH   1  41
ATOM     41  C13 FA4 d          28.924   3.958  15.481  0.00  0.00    -0.065 C 
ATOM     42  H17 FA4 d          29.534   3.051  15.607  0.00  0.00     0.033 H 
ATOM     43  H18 FA4 d          28.484   4.242  16.448  0.00  0.00     0.033 H 
BRANCH  41  44
ATOM     44  C14 FA4 d          29.833   5.096  15.002  0.00  0.00    -0.057 C 
ATOM     45  H19 FA4 d          29.821   5.892  15.762  0.00  0.00     0.033 H 
ATOM     46  H20 FA4 d          29.431   5.487  14.056  0.00  0.00     0.033 H 
BRANCH  44  47
ATOM     47  C15 FA4 d          31.283   4.671  14.771  0.00  0.00     0.009 C 
ATOM     48  H21 FA4 d          31.447   4.520  13.694  0.00  0.00     0.047 H 
ATOM     49  H22 FA4 d          31.472   3.728  15.307  0.00  0.00     0.047 H 
BRANCH  47  50
ATOM     50  C16 FA4 d          32.256   5.743  15.283  0.00  0.00     0.218 C 
ATOM     51  N17 FA4 d          32.380   6.754  14.394  0.00  0.00    -0.348 N 
ATOM     52  H23 FA4 d          31.868   6.713  13.536  0.00  0.00     0.163 HD
ATOM     53  O19 FA4 d          32.820   5.641  16.375  0.00  0.00    -0.274 OA
BRANCH  51  54
ATOM     54  C18 FA4 d          33.234   7.897  14.654  0.00  0.00     0.091 C 
ATOM     55  H24 FA4 d          33.972   7.638  15.426  0.00  0.00     0.087 H 
BRANCH  54  56
ATOM     56  C20 FA4 d          32.345   9.034  15.162  0.00  0.00    -0.038 C 
ATOM     57  H25 FA4 d          32.515   9.917  14.529  0.00  0.00     0.036 H 
ATOM     58  H26 FA4 d          32.634   9.264  16.198  0.00  0.00     0.036 H 
BRANCH  56  59
ATOM     59  C23 FA4 d          30.856   8.706  15.140  0.00  0.00    -0.061 C 
ATOM     60  H28 FA4 d          30.724   7.671  14.788  0.00  0.00     0.033 H 
ATOM     61  H29 FA4 d          30.349   9.395  14.448  0.00  0.00     0.033 H 
BRANCH  59  62
ATOM     62  C24 FA4 d          30.223   8.841  16.524  0.00  0.00    -0.043 C 
ATOM     63  H30 FA4 d          29.505   8.021  16.666  0.00  0.00     0.035 H 
ATOM     64  H31 FA4 d          29.694   9.804  16.578  0.00  0.00     0.035 H 
BRANCH  62  65
ATOM     65  C25 FA4 d          31.260   8.787  17.648  0.00  0.00     0.080 C 
ATOM     66  H32 FA4 d          30.964   9.496  18.435  0.00  0.00     0.075 H 
ATOM     67  H33 FA4 d          32.238   9.079  17.239  0.00  0.00     0.075 H 
BRANCH  65  68
ATOM     68  N26 FA4 d          31.376   7.459  18.237  0.00  0.00    -0.079 N 
ATOM     69  H34 FA4 d          31.604   6.791  17.518  0.00  0.00     0.274 HD
ATOM     70  H35 FA4 d          30.500   7.204  18.667  0.00  0.00     0.274 HD
ATOM     71  H36 FA4 d          32.104   7.462  18.934  0.00  0.00     0.274 HD
ENDBRANCH  65  68
ENDBRANCH  62  65
ENDBRANCH  59  62
ENDBRANCH  56  59
ENDBRANCH  54  56
BRANCH  54  72
ATOM     72  C21 FA4 d          33.979   8.300  13.369  0.00  0.00     0.263 C 
ATOM     73  N22 FA4 d          34.347   7.261  12.605  0.00  0.00    -0.236 N 
ATOM     74  H27 FA4 d          34.135   6.326  12.890  0.00  0.00     0.197 HD
ATOM     75  O33 FA4 d          34.191   9.477  13.095  0.00  0.00    -0.269 OA
BRANCH  73  76
ATOM     76  O32 FA4 d          35.029   7.496  11.408  0.00  0.00    -0.287 OA
ATOM     77  H44 FA4 d          34.839   6.795  10.794  0.00  0.00     0.244 HD
ENDBRANCH  73  76
ENDBRANCH  54  72
ENDBRANCH  51  54
ENDBRANCH  47  50
ENDBRANCH  44  47
ENDBRANCH  41  44
ENDBRANCH   1  41
TORSDOF 20
ENDMDL
MODEL 8
REMARK VINA RESULT:      -6.5      3.040     10.397
REMARK  20 active torsions:
REMARK  status: ('A' for Active; 'I' for Inactive)
REMARK    1  A    between atoms: C3_3  and  C7_7 
REMARK    2  A    between atoms: C4_4  and  C27_27 
REMARK    3  A    between atoms: C7_7  and  C8_8 
REMARK    4  A    between atoms: C8_8  and  C9_9 
REMARK    5  A    between atoms: C9_9  and  C10_10 
REMARK    6  A    between atoms: C10_10  and  C11_11 
REMARK    7  A    between atoms: C11_11  and  C12_12 
REMARK    8  A    between atoms: C12_12  and  C13_13 
REMARK    9  A    between atoms: C13_13  and  C14_14 
REMARK   10  A    between atoms: C14_14  and  C15_15 
REMARK   11  A    between atoms: C15_15  and  C16_16 
REMARK       I    between atoms: C16_16  and  N17_17 
REMARK   12  A    between atoms: N17_17  and  C18_18 
REMARK   13  A    between atoms: C18_18  and  C20_20 
REMARK   14  A    between atoms: C18_18  and  C21_21 
REMARK   15  A    between atoms: C20_20  and  C23_23 
REMARK       I    between atoms: C21_21  and  N22_22 
REMARK   16  A    between atoms: N22_22  and  O32_32 
REMARK   17  A    between atoms: C23_23  and  C24_24 
REMARK   18  A    between atoms: C24_24  and  C25_25 
REMARK   19  A    between atoms: C25_25  and  N26_26 
REMARK   20  A    between atoms: C27_27  and  N28_28 
REMARK       I    between atoms: N28_28  and  C29_29 
REMARK       I    between atoms: C29_29  and  N30_30 
ROOT
ATOM      1  C12 FA4 d          30.816   4.891  15.920  0.00  0.00    -0.065 C 
ATOM      2  H15 FA4 d          30.376   4.273  16.716  0.00  0.00     0.033 H 
ATOM      3  H16 FA4 d          31.863   4.596  15.763  0.00  0.00     0.033 H 
ENDROOT
BRANCH   1   4
ATOM      4  C11 FA4 d          30.785   6.356  16.366  0.00  0.00    -0.065 C 
ATOM      5  H13 FA4 d          31.775   6.627  16.762  0.00  0.00     0.033 H 
ATOM      6  H14 FA4 d          30.553   6.986  15.495  0.00  0.00     0.033 H 
BRANCH   4   7
ATOM      7  C10 FA4 d          29.735   6.610  17.451  0.00  0.00    -0.065 C 
ATOM      8  H11 FA4 d          28.755   6.284  17.072  0.00  0.00     0.033 H 
ATOM      9  H12 FA4 d          30.000   6.017  18.339  0.00  0.00     0.033 H 
BRANCH   7  10
ATOM     10  C9  FA4 d          29.633   8.082  17.862  0.00  0.00    -0.065 C 
ATOM     11  H9  FA4 d          28.589   8.301  18.129  0.00  0.00     0.033 H 
ATOM     12  H10 FA4 d          30.279   8.248  18.737  0.00  0.00     0.033 H 
BRANCH  10  13
ATOM     13  C8  FA4 d          30.064   9.037  16.748  0.00  0.00    -0.061 C 
ATOM     14  H7  FA4 d          30.640   8.471  16.001  0.00  0.00     0.033 H 
ATOM     15  H8  FA4 d          29.164   9.457  16.276  0.00  0.00     0.033 H 
BRANCH  13  16
ATOM     16  C7  FA4 d          30.934  10.194  17.269  0.00  0.00    -0.040 C 
ATOM     17  H5  FA4 d          30.463  10.612  18.171  0.00  0.00     0.040 H 
ATOM     18  H6  FA4 d          31.929   9.801  17.525  0.00  0.00     0.040 H 
BRANCH  16  19
ATOM     19  C3  FA4 d          31.093  11.294  16.250  0.00  0.00    -0.050 A 
ATOM     20  C2  FA4 d          30.196  12.412  16.276  0.00  0.00    -0.076 A 
ATOM     21  C1  FA4 d          30.321  13.469  15.324  0.00  0.00    -0.082 A 
ATOM     22  H2  FA4 d          29.415  12.456  17.026  0.00  0.00     0.084 H 
ATOM     23  C6  FA4 d          31.342  13.430  14.321  0.00  0.00    -0.082 A 
ATOM     24  H1  FA4 d          29.637  14.309  15.361  0.00  0.00     0.083 H 
ATOM     25  C5  FA4 d          32.255  12.320  14.273  0.00  0.00    -0.075 A 
ATOM     26  H4  FA4 d          31.426  14.234  13.599  0.00  0.00     0.083 H 
ATOM     27  C4  FA4 d          32.144  11.247  15.226  0.00  0.00    -0.034 A 
ATOM     28  H3  FA4 d          33.031  12.292  13.517  0.00  0.00     0.084 H 
BRANCH  27  29
ATOM     29  C27 FA4 d          33.155  10.120  15.104  0.00  0.00     0.033 C 
ATOM     30  H37 FA4 d          33.371   9.721  16.106  0.00  0.00     0.072 H 
ATOM     31  H38 FA4 d          34.080  10.515  14.660  0.00  0.00     0.072 H 
BRANCH  29  32
ATOM     32  N28 FA4 d          32.641   9.036  14.257  0.00  0.00    -0.223 N 
ATOM     33  C29 FA4 d          33.499   8.104  13.711  0.00  0.00     0.665 C 
ATOM     34  N30 FA4 d          33.056   6.879  13.455  0.00  0.00    -0.235 N 
ATOM     35  N31 FA4 d          34.776   8.410  13.438  0.00  0.00    -0.235 N 
ATOM     36  H40 FA4 d          33.690   6.176  13.047  0.00  0.00     0.174 HD
ATOM     37  H41 FA4 d          32.078   6.631  13.663  0.00  0.00     0.174 HD
ATOM     38  H42 FA4 d          35.131   9.357  13.633  0.00  0.00     0.174 HD
ATOM     39  H43 FA4 d          35.401   7.699  13.034  0.00  0.00     0.174 HD
ATOM     40  H39 FA4 d          31.631   8.971  14.069  0.00  0.00     0.178 HD
ENDBRANCH  29  32
ENDBRANCH  27  29
ENDBRANCH  16  19
ENDBRANCH  13  16
ENDBRANCH  10  13
ENDBRANCH   7  10
ENDBRANCH   4   7
ENDBRANCH   1   4
BRANCH   1  41
ATOM     41  C13 FA4 d          30.043   4.641  14.630  0.00  0.00    -0.065 C 
ATOM     42  H17 FA4 d          30.637   3.973  13.988  0.00  0.00     0.033 H 
ATOM     43  H18 FA4 d          29.892   5.603  14.118  0.00  0.00     0.033 H 
BRANCH  41  44
ATOM     44  C14 FA4 d          28.675   3.996  14.875  0.00  0.00    -0.057 C 
ATOM     45  H19 FA4 d          28.533   3.885  15.961  0.00  0.00     0.033 H 
ATOM     46  H20 FA4 d          28.669   3.003  14.402  0.00  0.00     0.033 H 
BRANCH  44  47
ATOM     47  C15 FA4 d          27.503   4.804  14.315  0.00  0.00     0.009 C 
ATOM     48  H21 FA4 d          27.847   5.379  13.442  0.00  0.00     0.047 H 
ATOM     49  H22 FA4 d          27.140   5.496  15.090  0.00  0.00     0.047 H 
BRANCH  47  50
ATOM     50  C16 FA4 d          26.355   3.879  13.889  0.00  0.00     0.218 C 
ATOM     51  N17 FA4 d          25.180   4.547  13.847  0.00  0.00    -0.348 N 
ATOM     52  H23 FA4 d          25.162   5.516  14.090  0.00  0.00     0.163 HD
ATOM     53  O19 FA4 d          26.541   2.688  13.627  0.00  0.00    -0.274 OA
BRANCH  51  54
ATOM     54  C18 FA4 d          23.945   3.893  13.458  0.00  0.00     0.091 C 
ATOM     55  H24 FA4 d          24.171   3.017  12.834  0.00  0.00     0.087 H 
BRANCH  54  56
ATOM     56  C20 FA4 d          23.126   4.898  12.644  0.00  0.00    -0.038 C 
ATOM     57  H25 FA4 d          22.142   4.454  12.432  0.00  0.00     0.036 H 
ATOM     58  H26 FA4 d          23.653   5.089  11.697  0.00  0.00     0.036 H 
BRANCH  56  59
ATOM     59  C23 FA4 d          22.910   6.231  13.352  0.00  0.00    -0.061 C 
ATOM     60  H28 FA4 d          23.568   6.987  12.897  0.00  0.00     0.033 H 
ATOM     61  H29 FA4 d          23.166   6.115  14.415  0.00  0.00     0.033 H 
BRANCH  59  62
ATOM     62  C24 FA4 d          21.461   6.706  13.240  0.00  0.00    -0.043 C 
ATOM     63  H30 FA4 d          20.974   6.161  12.419  0.00  0.00     0.035 H 
ATOM     64  H31 FA4 d          21.458   7.783  13.017  0.00  0.00     0.035 H 
BRANCH  62  65
ATOM     65  C25 FA4 d          20.668   6.468  14.526  0.00  0.00     0.080 C 
ATOM     66  H32 FA4 d          20.024   5.587  14.386  0.00  0.00     0.075 H 
ATOM     67  H33 FA4 d          20.043   7.352  14.723  0.00  0.00     0.075 H 
BRANCH  65  68
ATOM     68  N26 FA4 d          21.529   6.237  15.679  0.00  0.00    -0.079 N 
ATOM     69  H34 FA4 d          22.493   6.238  15.385  0.00  0.00     0.274 HD
ATOM     70  H35 FA4 d          21.305   5.345  16.093  0.00  0.00     0.274 HD
ATOM     71  H36 FA4 d          21.385   6.968  16.358  0.00  0.00     0.274 HD
ENDBRANCH  65  68
ENDBRANCH  62  65
ENDBRANCH  59  62
ENDBRANCH  56  59
ENDBRANCH  54  56
BRANCH  54  72
ATOM     72  C21 FA4 d          23.177   3.429  14.709  0.00  0.00     0.263 C 
ATOM     73  N22 FA4 d          23.932   3.365  15.816  0.00  0.00    -0.236 N 
ATOM     74  H27 FA4 d          24.901   3.606  15.780  0.00  0.00     0.197 HD
ATOM     75  O33 FA4 d          21.982   3.159  14.662  0.00  0.00    -0.269 OA
BRANCH  73  76
ATOM     76  O32 FA4 d          23.351   2.960  17.021  0.00  0.00    -0.287 OA
ATOM     77  H44 FA4 d          24.018   2.579  17.580  0.00  0.00     0.244 HD
ENDBRANCH  73  76
ENDBRANCH  54  72
ENDBRANCH  51  54
ENDBRANCH  47  50
ENDBRANCH  44  47
ENDBRANCH  41  44
ENDBRANCH   1  41
TORSDOF 20
ENDMDL
MODEL 9
REMARK VINA RESULT:      -6.2      2.164      3.853
REMARK  20 active torsions:
REMARK  status: ('A' for Active; 'I' for Inactive)
REMARK    1  A    between atoms: C3_3  and  C7_7 
REMARK    2  A    between atoms: C4_4  and  C27_27 
REMARK    3  A    between atoms: C7_7  and  C8_8 
REMARK    4  A    between atoms: C8_8  and  C9_9 
REMARK    5  A    between atoms: C9_9  and  C10_10 
REMARK    6  A    between atoms: C10_10  and  C11_11 
REMARK    7  A    between atoms: C11_11  and  C12_12 
REMARK    8  A    between atoms: C12_12  and  C13_13 
REMARK    9  A    between atoms: C13_13  and  C14_14 
REMARK   10  A    between atoms: C14_14  and  C15_15 
REMARK   11  A    between atoms: C15_15  and  C16_16 
REMARK       I    between atoms: C16_16  and  N17_17 
REMARK   12  A    between atoms: N17_17  and  C18_18 
REMARK   13  A    between atoms: C18_18  and  C20_20 
REMARK   14  A    between atoms: C18_18  and  C21_21 
REMARK   15  A    between atoms: C20_20  and  C23_23 
REMARK       I    between atoms: C21_21  and  N22_22 
REMARK   16  A    between atoms: N22_22  and  O32_32 
REMARK   17  A    between atoms: C23_23  and  C24_24 
REMARK   18  A    between atoms: C24_24  and  C25_25 
REMARK   19  A    between atoms: C25_25  and  N26_26 
REMARK   20  A    between atoms: C27_27  and  N28_28 
REMARK       I    between atoms: N28_28  and  C29_29 
REMARK       I    between atoms: C29_29  and  N30_30 
ROOT
ATOM      1  C12 FA4 d          28.543   5.156  14.911  0.00  0.00    -0.065 C 
ATOM      2  H15 FA4 d          27.506   5.304  15.248  0.00  0.00     0.033 H 
ATOM      3  H16 FA4 d          28.758   5.838  14.076  0.00  0.00     0.033 H 
ENDROOT
BRANCH   1   4
ATOM      4  C11 FA4 d          28.692   3.716  14.414  0.00  0.00    -0.065 C 
ATOM      5  H13 FA4 d          28.606   3.709  13.317  0.00  0.00     0.033 H 
ATOM      6  H14 FA4 d          29.684   3.341  14.706  0.00  0.00     0.033 H 
BRANCH   4   7
ATOM      7  C10 FA4 d          27.624   2.787  14.997  0.00  0.00    -0.065 C 
ATOM      8  H11 FA4 d          27.683   1.818  14.479  0.00  0.00     0.033 H 
ATOM      9  H12 FA4 d          27.833   2.643  16.067  0.00  0.00     0.033 H 
BRANCH   7  10
ATOM     10  C9  FA4 d          26.201   3.333  14.848  0.00  0.00    -0.065 C 
ATOM     11  H9  FA4 d          25.521   2.710  15.448  0.00  0.00     0.033 H 
ATOM     12  H10 FA4 d          26.180   4.367  15.223  0.00  0.00     0.033 H 
BRANCH  10  13
ATOM     13  C8  FA4 d          25.715   3.330  13.398  0.00  0.00    -0.061 C 
ATOM     14  H7  FA4 d          26.479   3.811  12.769  0.00  0.00     0.033 H 
ATOM     15  H8  FA4 d          25.577   2.287  13.074  0.00  0.00     0.033 H 
BRANCH  13  16
ATOM     16  C7  FA4 d          24.385   4.081  13.221  0.00  0.00    -0.040 C 
ATOM     17  H5  FA4 d          24.219   4.719  14.102  0.00  0.00     0.040 H 
ATOM     18  H6  FA4 d          24.451   4.710  12.321  0.00  0.00     0.040 H 
BRANCH  16  19
ATOM     19  C3  FA4 d          23.213   3.144  13.074  0.00  0.00    -0.050 A 
ATOM     20  C2  FA4 d          23.376   1.758  13.405  0.00  0.00    -0.076 A 
ATOM     21  C1  FA4 d          22.285   0.845  13.276  0.00  0.00    -0.082 A 
ATOM     22  H2  FA4 d          24.336   1.398  13.756  0.00  0.00     0.084 H 
ATOM     23  C6  FA4 d          21.009   1.295  12.808  0.00  0.00    -0.082 A 
ATOM     24  H1  FA4 d          22.425  -0.199  13.534  0.00  0.00     0.083 H 
ATOM     25  C5  FA4 d          20.819   2.680  12.471  0.00  0.00    -0.075 A 
ATOM     26  H4  FA4 d          20.188   0.594  12.709  0.00  0.00     0.083 H 
ATOM     27  C4  FA4 d          21.907   3.614  12.597  0.00  0.00    -0.034 A 
ATOM     28  H3  FA4 d          19.852   3.023  12.121  0.00  0.00     0.084 H 
BRANCH  27  29
ATOM     29  C27 FA4 d          21.613   5.056  12.224  0.00  0.00     0.033 C 
ATOM     30  H37 FA4 d          21.330   5.102  11.163  0.00  0.00     0.072 H 
ATOM     31  H38 FA4 d          22.517   5.660  12.388  0.00  0.00     0.072 H 
BRANCH  29  32
ATOM     32  N28 FA4 d          20.519   5.602  13.037  0.00  0.00    -0.223 N 
ATOM     33  C29 FA4 d          20.784   6.412  14.120  0.00  0.00     0.665 C 
ATOM     34  N30 FA4 d          19.892   7.325  14.488  0.00  0.00    -0.235 N 
ATOM     35  N31 FA4 d          21.930   6.301  14.808  0.00  0.00    -0.235 N 
ATOM     36  H40 FA4 d          20.082   7.935  15.297  0.00  0.00     0.174 HD
ATOM     37  H41 FA4 d          19.010   7.423  13.966  0.00  0.00     0.174 HD
ATOM     38  H42 FA4 d          22.629   5.597  14.532  0.00  0.00     0.174 HD
ATOM     39  H43 FA4 d          22.110   6.918  15.612  0.00  0.00     0.174 HD
ATOM     40  H39 FA4 d          19.543   5.377  12.795  0.00  0.00     0.178 HD
ENDBRANCH  29  32
ENDBRANCH  27  29
ENDBRANCH  16  19
ENDBRANCH  13  16
ENDBRANCH  10  13
ENDBRANCH   7  10
ENDBRANCH   4   7
ENDBRANCH   1   4
BRANCH   1  41
ATOM     41  C13 FA4 d          29.481   5.493  16.065  0.00  0.00    -0.065 C 
ATOM     42  H17 FA4 d          28.985   5.229  17.010  0.00  0.00     0.033 H 
ATOM     43  H18 FA4 d          29.686   6.573  16.048  0.00  0.00     0.033 H 
BRANCH  41  44
ATOM     44  C14 FA4 d          30.813   4.740  15.983  0.00  0.00    -0.057 C 
ATOM     45  H19 FA4 d          30.613   3.718  15.628  0.00  0.00     0.033 H 
ATOM     46  H20 FA4 d          31.251   4.698  16.992  0.00  0.00     0.033 H 
BRANCH  44  47
ATOM     47  C15 FA4 d          31.830   5.387  15.042  0.00  0.00     0.009 C 
ATOM     48  H21 FA4 d          31.332   5.644  14.095  0.00  0.00     0.047 H 
ATOM     49  H22 FA4 d          32.645   4.674  14.847  0.00  0.00     0.047 H 
BRANCH  47  50
ATOM     50  C16 FA4 d          32.417   6.662  15.664  0.00  0.00     0.218 C 
ATOM     51  N17 FA4 d          32.663   7.597  14.720  0.00  0.00    -0.348 N 
ATOM     52  H23 FA4 d          32.463   7.388  13.763  0.00  0.00     0.163 HD
ATOM     53  O19 FA4 d          32.613   6.763  16.878  0.00  0.00    -0.274 OA
BRANCH  51  54
ATOM     54  C18 FA4 d          33.209   8.898  15.059  0.00  0.00     0.091 C 
ATOM     55  H24 FA4 d          33.514   8.907  16.115  0.00  0.00     0.087 H 
BRANCH  54  56
ATOM     56  C20 FA4 d          32.104   9.934  14.842  0.00  0.00    -0.038 C 
ATOM     57  H25 FA4 d          31.469   9.597  14.010  0.00  0.00     0.036 H 
ATOM     58  H26 FA4 d          32.574  10.894  14.579  0.00  0.00     0.036 H 
BRANCH  56  59
ATOM     59  C23 FA4 d          31.218  10.152  16.064  0.00  0.00    -0.061 C 
ATOM     60  H28 FA4 d          31.498   9.426  16.841  0.00  0.00     0.033 H 
ATOM     61  H29 FA4 d          30.168   9.993  15.776  0.00  0.00     0.033 H 
BRANCH  59  62
ATOM     62  C24 FA4 d          31.367  11.564  16.630  0.00  0.00    -0.043 C 
ATOM     63  H30 FA4 d          30.505  11.777  17.279  0.00  0.00     0.035 H 
ATOM     64  H31 FA4 d          31.382  12.280  15.795  0.00  0.00     0.035 H 
BRANCH  62  65
ATOM     65  C25 FA4 d          32.650  11.734  17.446  0.00  0.00     0.080 C 
ATOM     66  H32 FA4 d          33.094  10.742  17.615  0.00  0.00     0.075 H 
ATOM     67  H33 FA4 d          32.394  12.190  18.414  0.00  0.00     0.075 H 
BRANCH  65  68
ATOM     68  N26 FA4 d          33.631  12.577  16.776  0.00  0.00    -0.079 N 
ATOM     69  H34 FA4 d          33.683  13.469  17.242  0.00  0.00     0.274 HD
ATOM     70  H35 FA4 d          33.356  12.715  15.816  0.00  0.00     0.274 HD
ATOM     71  H36 FA4 d          34.534  12.131  16.805  0.00  0.00     0.274 HD
ENDBRANCH  65  68
ENDBRANCH  62  65
ENDBRANCH  59  62
ENDBRANCH  56  59
ENDBRANCH  54  56
BRANCH  54  72
ATOM     72  C21 FA4 d          34.438   9.199  14.182  0.00  0.00     0.263 C 
ATOM     73  N22 FA4 d          35.609   8.991  14.801  0.00  0.00    -0.236 N 
ATOM     74  H27 FA4 d          35.630   8.671  15.748  0.00  0.00     0.197 HD
ATOM     75  O33 FA4 d          34.318   9.584  13.024  0.00  0.00    -0.269 OA
BRANCH  73  76
ATOM     76  O32 FA4 d          36.802   9.225  14.110  0.00  0.00    -0.287 OA
ATOM     77  H44 FA4 d          37.253   9.964  14.502  0.00  0.00     0.244 HD
ENDBRANCH  73  76
ENDBRANCH  54  72
ENDBRANCH  51  54
ENDBRANCH  47  50
ENDBRANCH  44  47
ENDBRANCH  41  44
ENDBRANCH   1  41
TORSDOF 20
ENDMDL
MODEL 10
REMARK VINA RESULT:      -6.1      2.298      4.461
REMARK  20 active torsions:
REMARK  status: ('A' for Active; 'I' for Inactive)
REMARK    1  A    between atoms: C3_3  and  C7_7 
REMARK    2  A    between atoms: C4_4  and  C27_27 
REMARK    3  A    between atoms: C7_7  and  C8_8 
REMARK    4  A    between atoms: C8_8  and  C9_9 
REMARK    5  A    between atoms: C9_9  and  C10_10 
REMARK    6  A    between atoms: C10_10  and  C11_11 
REMARK    7  A    between atoms: C11_11  and  C12_12 
REMARK    8  A    between atoms: C12_12  and  C13_13 
REMARK    9  A    between atoms: C13_13  and  C14_14 
REMARK   10  A    between atoms: C14_14  and  C15_15 
REMARK   11  A    between atoms: C15_15  and  C16_16 
REMARK       I    between atoms: C16_16  and  N17_17 
REMARK   12  A    between atoms: N17_17  and  C18_18 
REMARK   13  A    between atoms: C18_18  and  C20_20 
REMARK   14  A    between atoms: C18_18  and  C21_21 
REMARK   15  A    between atoms: C20_20  and  C23_23 
REMARK       I    between atoms: C21_21  and  N22_22 
REMARK   16  A    between atoms: N22_22  and  O32_32 
REMARK   17  A    between atoms: C23_23  and  C24_24 
REMARK   18  A    between atoms: C24_24  and  C25_25 
REMARK   19  A    between atoms: C25_25  and  N26_26 
REMARK   20  A    between atoms: C27_27  and  N28_28 
REMARK       I    between atoms: N28_28  and  C29_29 
REMARK       I    between atoms: C29_29  and  N30_30 
ROOT
ATOM      1  C12 FA4 d          29.116   3.952  14.670  0.00  0.00    -0.065 C 
ATOM      2  H15 FA4 d          29.298   4.706  13.890  0.00  0.00     0.033 H 
ATOM      3  H16 FA4 d          30.024   3.349  14.816  0.00  0.00     0.033 H 
ENDROOT
BRANCH   1   4
ATOM      4  C11 FA4 d          27.989   3.027  14.200  0.00  0.00    -0.065 C 
ATOM      5  H13 FA4 d          27.855   3.155  13.115  0.00  0.00     0.033 H 
ATOM      6  H14 FA4 d          28.273   1.986  14.414  0.00  0.00     0.033 H 
BRANCH   4   7
ATOM      7  C10 FA4 d          26.661   3.330  14.899  0.00  0.00    -0.065 C 
ATOM      8  H11 FA4 d          26.872   3.619  15.939  0.00  0.00     0.033 H 
ATOM      9  H12 FA4 d          26.174   4.166  14.377  0.00  0.00     0.033 H 
BRANCH   7  10
ATOM     10  C9  FA4 d          25.699   2.138  14.911  0.00  0.00    -0.065 C 
ATOM     11  H9  FA4 d          26.019   1.420  14.141  0.00  0.00     0.033 H 
ATOM     12  H10 FA4 d          25.744   1.659  15.900  0.00  0.00     0.033 H 
BRANCH  10  13
ATOM     13  C8  FA4 d          24.252   2.544  14.630  0.00  0.00    -0.061 C 
ATOM     14  H7  FA4 d          23.660   1.635  14.447  0.00  0.00     0.033 H 
ATOM     15  H8  FA4 d          23.855   3.068  15.513  0.00  0.00     0.033 H 
BRANCH  13  16
ATOM     16  C7  FA4 d          24.127   3.470  13.409  0.00  0.00    -0.040 C 
ATOM     17  H5  FA4 d          24.296   4.508  13.733  0.00  0.00     0.040 H 
ATOM     18  H6  FA4 d          24.892   3.187  12.670  0.00  0.00     0.040 H 
BRANCH  16  19
ATOM     19  C3  FA4 d          22.769   3.380  12.759  0.00  0.00    -0.050 A 
ATOM     20  C2  FA4 d          22.218   2.091  12.456  0.00  0.00    -0.076 A 
ATOM     21  C1  FA4 d          20.935   1.974  11.841  0.00  0.00    -0.082 A 
ATOM     22  H2  FA4 d          22.781   1.197  12.696  0.00  0.00     0.084 H 
ATOM     23  C6  FA4 d          20.175   3.141  11.509  0.00  0.00    -0.082 A 
ATOM     24  H1  FA4 d          20.532   0.991  11.623  0.00  0.00     0.083 H 
ATOM     25  C5  FA4 d          20.704   4.445  11.803  0.00  0.00    -0.075 A 
ATOM     26  H4  FA4 d          19.204   3.042  11.038  0.00  0.00     0.083 H 
ATOM     27  C4  FA4 d          21.995   4.582  12.425  0.00  0.00    -0.034 A 
ATOM     28  H3  FA4 d          20.128   5.330  11.557  0.00  0.00     0.084 H 
BRANCH  27  29
ATOM     29  C27 FA4 d          22.471   5.997  12.704  0.00  0.00     0.033 C 
ATOM     30  H37 FA4 d          22.905   6.417  11.785  0.00  0.00     0.072 H 
ATOM     31  H38 FA4 d          23.237   5.969  13.492  0.00  0.00     0.072 H 
BRANCH  29  32
ATOM     32  N28 FA4 d          21.361   6.853  13.144  0.00  0.00    -0.223 N 
ATOM     33  C29 FA4 d          21.224   7.198  14.472  0.00  0.00     0.665 C 
ATOM     34  N30 FA4 d          20.637   8.346  14.791  0.00  0.00    -0.235 N 
ATOM     35  N31 FA4 d          21.677   6.399  15.449  0.00  0.00    -0.235 N 
ATOM     36  H40 FA4 d          20.531   8.612  15.781  0.00  0.00     0.174 HD
ATOM     37  H41 FA4 d          20.289   8.970  14.050  0.00  0.00     0.174 HD
ATOM     38  H42 FA4 d          22.134   5.507  15.213  0.00  0.00     0.174 HD
ATOM     39  H43 FA4 d          21.568   6.678  16.434  0.00  0.00     0.174 HD
ATOM     40  H39 FA4 d          20.679   7.198  12.454  0.00  0.00     0.178 HD
ENDBRANCH  29  32
ENDBRANCH  27  29
ENDBRANCH  16  19
ENDBRANCH  13  16
ENDBRANCH  10  13
ENDBRANCH   7  10
ENDBRANCH   4   7
ENDBRANCH   1   4
BRANCH   1  41
ATOM     41  C13 FA4 d          28.797   4.672  15.975  0.00  0.00    -0.065 C 
ATOM     42  H17 FA4 d          29.309   4.153  16.798  0.00  0.00     0.033 H 
ATOM     43  H18 FA4 d          27.710   4.636  16.140  0.00  0.00     0.033 H 
BRANCH  41  44
ATOM     44  C14 FA4 d          29.244   6.138  15.967  0.00  0.00    -0.057 C 
ATOM     45  H19 FA4 d          28.361   6.768  15.784  0.00  0.00     0.033 H 
ATOM     46  H20 FA4 d          29.968   6.275  15.151  0.00  0.00     0.033 H 
BRANCH  44  47
ATOM     47  C15 FA4 d          29.897   6.590  17.273  0.00  0.00     0.009 C 
ATOM     48  H21 FA4 d          30.232   5.704  17.834  0.00  0.00     0.047 H 
ATOM     49  H22 FA4 d          29.159   7.146  17.872  0.00  0.00     0.047 H 
BRANCH  47  50
ATOM     50  C16 FA4 d          31.105   7.496  16.996  0.00  0.00     0.218 C 
ATOM     51  N17 FA4 d          30.867   8.321  15.953  0.00  0.00    -0.348 N 
ATOM     52  H23 FA4 d          29.989   8.267  15.479  0.00  0.00     0.163 HD
ATOM     53  O19 FA4 d          32.133   7.436  17.676  0.00  0.00    -0.274 OA
BRANCH  51  54
ATOM     54  C18 FA4 d          31.854   9.285  15.503  0.00  0.00     0.091 C 
ATOM     55  H24 FA4 d          31.491   9.787  14.594  0.00  0.00     0.087 H 
BRANCH  54  56
ATOM     56  C20 FA4 d          33.138   8.517  15.180  0.00  0.00    -0.038 C 
ATOM     57  H25 FA4 d          33.127   7.571  15.741  0.00  0.00     0.036 H 
ATOM     58  H26 FA4 d          33.996   9.125  15.502  0.00  0.00     0.036 H 
BRANCH  56  59
ATOM     59  C23 FA4 d          33.305   8.196  13.698  0.00  0.00    -0.061 C 
ATOM     60  H28 FA4 d          32.371   8.447  13.172  0.00  0.00     0.033 H 
ATOM     61  H29 FA4 d          33.509   7.121  13.588  0.00  0.00     0.033 H 
BRANCH  59  62
ATOM     62  C24 FA4 d          34.454   8.985  13.071  0.00  0.00    -0.043 C 
ATOM     63  H30 FA4 d          35.268   9.066  13.806  0.00  0.00     0.035 H 
ATOM     64  H31 FA4 d          34.092   9.991  12.814  0.00  0.00     0.035 H 
BRANCH  62  65
ATOM     65  C25 FA4 d          34.997   8.319  11.806  0.00  0.00     0.080 C 
ATOM     66  H32 FA4 d          36.069   8.549  11.720  0.00  0.00     0.075 H 
ATOM     67  H33 FA4 d          34.463   8.727  10.935  0.00  0.00     0.075 H 
BRANCH  65  68
ATOM     68  N26 FA4 d          34.830   6.871  11.821  0.00  0.00    -0.079 N 
ATOM     69  H34 FA4 d          33.899   6.637  11.514  0.00  0.00     0.274 HD
ATOM     70  H35 FA4 d          34.972   6.526  12.757  0.00  0.00     0.274 HD
ATOM     71  H36 FA4 d          35.503   6.449  11.201  0.00  0.00     0.274 HD
ENDBRANCH  65  68
ENDBRANCH  62  65
ENDBRANCH  59  62
ENDBRANCH  56  59
ENDBRANCH  54  56
BRANCH  54  72
ATOM     72  C21 FA4 d          32.094  10.343  16.594  0.00  0.00     0.263 C 
ATOM     73  N22 FA4 d          33.326  10.307  17.124  0.00  0.00    -0.236 N 
ATOM     74  H27 FA4 d          33.992   9.632  16.805  0.00  0.00     0.197 HD
ATOM     75  O33 FA4 d          31.218  11.138  16.920  0.00  0.00    -0.269 OA
BRANCH  73  76
ATOM     76  O32 FA4 d          33.671  11.219  18.124  0.00  0.00    -0.287 OA
ATOM     77  H44 FA4 d          34.607  11.382  18.093  0.00  0.00     0.244 HD
ENDBRANCH  73  76
ENDBRANCH  54  72
ENDBRANCH  51  54
ENDBRANCH  47  50
ENDBRANCH  44  47
ENDBRANCH  41  44
ENDBRANCH   1  41
TORSDOF 20
ENDMDL
