REMARK  8 active torsions:
REMARK  status: ('A' for Active; 'I' for Inactive)
REMARK       I    between atoms: C25_25  and  N1_1 
REMARK    1  A    between atoms: C3_3  and  N5_5 
REMARK       I    between atoms: N5_5  and  C6_6 
REMARK    2  A    between atoms: C6_6  and  C7_7 
REMARK    3  A    between atoms: C24_24  and  N17_17 
REMARK    4  A    between atoms: N20_20  and  C23_23 
REMARK    5  A    between atoms: C20_32  and  C25_25 
REMARK    6  A    between atoms: C29_29  and  C20_32 
REMARK    7  A    between atoms: C20_32  and  O34_35 
REMARK    8  A    between atoms: O34_35  and  C36_34 
ROOT
ATOM      1  N1  MOL d         -41.534 -46.382 -10.483  0.00  0.00    -0.340 N 
ATOM      2  N2  MOL d         -38.944 -47.712 -12.637  0.00  0.00    -0.278 N 
ATOM      3  C3  MOL d         -40.468 -49.327 -12.404  0.00  0.00     0.160 A 
ATOM      4  N4  MOL d         -39.269 -49.059 -12.953  0.00  0.00    -0.156 NA
ATOM      5  C13 MOL d         -39.968 -47.217 -11.913  0.00  0.00     0.057 A 
ATOM      6  C14 MOL d         -40.962 -48.228 -11.730  0.00  0.00     0.033 A 
ATOM      7  C15 MOL d         -42.089 -47.714 -10.890  0.00  0.00     0.027 C 
ATOM      8  C16 MOL d         -40.324 -45.950 -11.215  0.00  0.00     0.038 C 
ATOM      9  C25 MOL d         -42.055 -45.590  -9.533  0.00  0.00     0.254 C 
ATOM     10  O26 MOL d         -41.558 -44.504  -9.240  0.00  0.00    -0.270 OA
ATOM     11  H1  MOL d         -38.088 -47.209 -12.910  0.00  0.00     0.189 HD
ATOM     12  H7  MOL d         -43.016 -47.608 -11.473  0.00  0.00     0.072 H 
ATOM     13  H8  MOL d         -42.276 -48.360 -10.020  0.00  0.00     0.072 H 
ATOM     14  H9  MOL d         -39.528 -45.626 -10.529  0.00  0.00     0.074 H 
ATOM     15  H10 MOL d         -40.546 -45.142 -11.927  0.00  0.00     0.074 H 
ENDROOT
BRANCH   3  16
ATOM     16  N5  MOL d         -41.012 -50.585 -12.547  0.00  0.00    -0.305 N 
ATOM     17  C6  MOL d         -42.282 -50.910 -12.370  0.00  0.00     0.257 C 
ATOM     18  O8  MOL d         -43.160 -50.119 -12.080  0.00  0.00    -0.267 OA
ATOM     19  H2  MOL d         -40.388 -51.321 -12.809  0.00  0.00     0.170 HD
BRANCH  17  20
ATOM     20  C7  MOL d         -42.655 -52.330 -12.557  0.00  0.00     0.032 A 
ATOM     21  C9  MOL d         -43.825 -52.765 -11.954  0.00  0.00    -0.066 A 
ATOM     22  C10 MOL d         -44.250 -54.070 -12.091  0.00  0.00    -0.056 A 
ATOM     23  H3  MOL d         -44.414 -52.070 -11.367  0.00  0.00     0.085 H 
ATOM     24  C24 MOL d         -43.478 -54.936 -12.833  0.00  0.00     0.030 A 
ATOM     25  H4  MOL d         -45.170 -54.406 -11.626  0.00  0.00     0.086 H 
ATOM     26  C11 MOL d         -42.286 -54.496 -13.439  0.00  0.00    -0.056 A 
ATOM     27  C12 MOL d         -41.865 -53.185 -13.311  0.00  0.00    -0.066 A 
ATOM     28  H5  MOL d         -41.690 -55.195 -14.014  0.00  0.00     0.086 H 
ATOM     29  H6  MOL d         -40.952 -52.839 -13.782  0.00  0.00     0.085 H 
BRANCH  24  30
ATOM     30  N17 MOL d         -43.909 -56.266 -12.977  0.00  0.00    -0.378 N 
ATOM     31  C18 MOL d         -44.807 -56.774 -12.228  0.00  0.00     0.018 C 
ATOM     32  C19 MOL d         -44.570 -57.990 -11.714  0.00  0.00     0.098 C 
ATOM     33  H11 MOL d         -45.731 -56.841 -12.821  0.00  0.00     0.066 H 
ATOM     34  H12 MOL d         -44.962 -56.084 -11.385  0.00  0.00     0.066 H 
ATOM     35  N20 MOL d         -43.611 -58.884 -12.312  0.00  0.00    -0.072 N 
ATOM     36  H13 MOL d         -45.533 -58.521 -11.716  0.00  0.00     0.078 H 
ATOM     37  H14 MOL d         -44.241 -57.830 -10.677  0.00  0.00     0.078 H 
ATOM     38  C21 MOL d         -42.624 -58.195 -13.189  0.00  0.00     0.098 C 
ATOM     39  H15 MOL d         -44.123 -59.545 -12.875  0.00  0.00     0.279 HD
ATOM     40  C22 MOL d         -43.291 -57.097 -14.015  0.00  0.00     0.018 C 
ATOM     41  H16 MOL d         -42.173 -58.932 -13.870  0.00  0.00     0.078 H 
ATOM     42  H17 MOL d         -41.839 -57.746 -12.562  0.00  0.00     0.078 H 
ATOM     43  H18 MOL d         -42.550 -56.527 -14.594  0.00  0.00     0.066 H 
ATOM     44  H19 MOL d         -44.047 -57.514 -14.696  0.00  0.00     0.066 H 
BRANCH  35  45
ATOM     45  C23 MOL d         -42.861 -59.626 -11.280  0.00  0.00     0.066 C 
ATOM     46  H20 MOL d         -43.567 -60.146 -10.616  0.00  0.00     0.068 H 
ATOM     47  H21 MOL d         -42.254 -58.923 -10.691  0.00  0.00     0.068 H 
ATOM     48  H22 MOL d         -42.202 -60.362 -11.764  0.00  0.00     0.068 H 
ENDBRANCH  35  45
ENDBRANCH  24  30
ENDBRANCH  17  20
ENDBRANCH   3  16
BRANCH   9  49
ATOM     49  C20 MOL d         -43.274 -46.054  -8.797  0.00  0.00     0.140 C 
ATOM     50  H27 MOL d         -43.977 -46.523  -9.501  0.00  0.00     0.106 H 
BRANCH  49  51
ATOM     51  C29 MOL d         -42.840 -47.076  -7.795  0.00  0.00    -0.020 A 
ATOM     52  C27 MOL d         -43.529 -48.309  -7.710  0.00  0.00    -0.074 A 
ATOM     53  C28 MOL d         -43.114 -49.281  -6.801  0.00  0.00    -0.082 A 
ATOM     54  H23 MOL d         -44.381 -48.498  -8.353  0.00  0.00     0.084 H 
ATOM     55  C31 MOL d         -42.012 -49.007  -5.966  0.00  0.00    -0.083 A 
ATOM     56  H24 MOL d         -43.630 -50.232  -6.737  0.00  0.00     0.083 H 
ATOM     57  C35 MOL d         -41.330 -47.788  -6.039  0.00  0.00    -0.082 A 
ATOM     58  H25 MOL d         -41.687 -49.756  -5.253  0.00  0.00     0.083 H 
ATOM     59  C33 MOL d         -41.746 -46.822  -6.941  0.00  0.00    -0.074 A 
ATOM     60  H28 MOL d         -40.480 -47.600  -5.393  0.00  0.00     0.083 H 
ATOM     61  H26 MOL d         -41.230 -45.870  -6.991  0.00  0.00     0.084 H 
ENDBRANCH  49  51
BRANCH  49  62
ATOM     62  O34 MOL d         -43.908 -44.917  -8.207  0.00  0.00    -0.377 OA
BRANCH  62  63
ATOM     63  C36 MOL d         -45.142 -45.211  -7.523  0.00  0.00     0.005 C 
ATOM     64  H29 MOL d         -45.558 -44.284  -7.102  0.00  0.00     0.066 H 
ATOM     65  H30 MOL d         -44.950 -45.928  -6.711  0.00  0.00     0.066 H 
ATOM     66  H31 MOL d         -45.861 -45.646  -8.233  0.00  0.00     0.066 H 
ENDBRANCH  62  63
ENDBRANCH  49  62
ENDBRANCH   9  49
TORSDOF 8
