MODEL 1
REMARK VINA RESULT:      -9.7      0.000      0.000
REMARK  8 active torsions:
REMARK  status: ('A' for Active; 'I' for Inactive)
REMARK       I    between atoms: C25_25  and  N1_1 
REMARK    1  A    between atoms: C3_3  and  N5_5 
REMARK       I    between atoms: N5_5  and  C6_6 
REMARK    2  A    between atoms: C6_6  and  C7_7 
REMARK    3  A    between atoms: C24_24  and  N17_17 
REMARK    4  A    between atoms: N20_20  and  C23_23 
REMARK    5  A    between atoms: C20_32  and  C25_25 
REMARK    6  A    between atoms: C29_29  and  C20_32 
REMARK    7  A    between atoms: C20_32  and  O34_35 
REMARK    8  A    between atoms: O34_35  and  C36_34 
ROOT
ATOM      1  N1  MOL d         -41.410 -46.201 -10.065  0.00  0.00    -0.340 N 
ATOM      2  N2  MOL d         -38.995 -47.468 -12.448  0.00  0.00    -0.278 N 
ATOM      3  C3  MOL d         -40.506 -49.085 -12.153  0.00  0.00     0.160 A 
ATOM      4  N4  MOL d         -39.350 -48.803 -12.781  0.00  0.00    -0.156 NA
ATOM      5  C13 MOL d         -39.960 -46.994 -11.634  0.00  0.00     0.057 A 
ATOM      6  C14 MOL d         -40.942 -48.007 -11.410  0.00  0.00     0.033 A 
ATOM      7  C15 MOL d         -42.001 -47.517 -10.472  0.00  0.00     0.027 C 
ATOM      8  C16 MOL d         -40.256 -45.749 -10.872  0.00  0.00     0.038 C 
ATOM      9  C25 MOL d         -41.855 -45.438  -9.055  0.00  0.00     0.254 C 
ATOM     10  O26 MOL d         -41.332 -44.363  -8.765  0.00  0.00    -0.270 OA
ATOM     11  H1  MOL d         -38.159 -46.959 -12.768  0.00  0.00     0.189 HD
ATOM     12  H7  MOL d         -42.968 -47.390 -10.981  0.00  0.00     0.072 H 
ATOM     13  H8  MOL d         -42.126 -48.190  -9.611  0.00  0.00     0.072 H 
ATOM     14  H9  MOL d         -39.409 -45.449 -10.237  0.00  0.00     0.074 H 
ATOM     15  H10 MOL d         -40.526 -44.918 -11.539  0.00  0.00     0.074 H 
ENDROOT
BRANCH   3  16
ATOM     16  N5  MOL d         -41.065 -50.337 -12.295  0.00  0.00    -0.305 N 
ATOM     17  C6  MOL d         -42.359 -50.614 -12.319  0.00  0.00     0.257 C 
ATOM     18  O8  MOL d         -43.242 -49.781 -12.247  0.00  0.00    -0.267 OA
ATOM     19  H2  MOL d         -40.435 -51.107 -12.389  0.00  0.00     0.170 HD
BRANCH  17  20
ATOM     20  C7  MOL d         -42.749 -52.035 -12.462  0.00  0.00     0.032 A 
ATOM     21  C9  MOL d         -41.988 -52.820 -13.315  0.00  0.00    -0.066 A 
ATOM     22  C10 MOL d         -42.278 -54.157 -13.493  0.00  0.00    -0.056 A 
ATOM     23  H3  MOL d         -41.155 -52.378 -13.848  0.00  0.00     0.085 H 
ATOM     24  C24 MOL d         -43.348 -54.692 -12.812  0.00  0.00     0.030 A 
ATOM     25  H4  MOL d         -41.676 -54.772 -14.154  0.00  0.00     0.086 H 
ATOM     26  C11 MOL d         -44.125 -53.893 -11.953  0.00  0.00    -0.056 A 
ATOM     27  C12 MOL d         -43.829 -52.555 -11.765  0.00  0.00    -0.066 A 
ATOM     28  H5  MOL d         -44.967 -54.332 -11.430  0.00  0.00     0.086 H 
ATOM     29  H6  MOL d         -44.419 -51.937 -11.098  0.00  0.00     0.085 H 
BRANCH  24  30
ATOM     30  N17 MOL d         -43.645 -56.055 -12.990  0.00  0.00    -0.378 N 
ATOM     31  C18 MOL d         -43.178 -56.957 -12.220  0.00  0.00     0.018 C 
ATOM     32  C19 MOL d         -42.659 -58.053 -12.793  0.00  0.00     0.098 C 
ATOM     33  H11 MOL d         -43.997 -57.285 -11.563  0.00  0.00     0.066 H 
ATOM     34  H12 MOL d         -42.385 -56.495 -11.613  0.00  0.00     0.066 H 
ATOM     35  N20 MOL d         -43.010 -58.435 -14.138  0.00  0.00    -0.072 N 
ATOM     36  H13 MOL d         -42.934 -58.901 -12.148  0.00  0.00     0.078 H 
ATOM     37  H14 MOL d         -41.568 -57.922 -12.782  0.00  0.00     0.078 H 
ATOM     38  C21 MOL d         -43.570 -57.315 -14.945  0.00  0.00     0.098 C 
ATOM     39  H15 MOL d         -43.710 -59.157 -14.075  0.00  0.00     0.279 HD
ATOM     40  C22 MOL d         -44.508 -56.447 -14.108  0.00  0.00     0.018 C 
ATOM     41  H16 MOL d         -44.130 -57.732 -15.795  0.00  0.00     0.078 H 
ATOM     42  H17 MOL d         -42.743 -56.694 -15.319  0.00  0.00     0.078 H 
ATOM     43  H18 MOL d         -44.850 -55.569 -14.675  0.00  0.00     0.066 H 
ATOM     44  H19 MOL d         -45.378 -57.021 -13.760  0.00  0.00     0.066 H 
BRANCH  35  45
ATOM     45  C23 MOL d         -41.840 -58.973 -14.859  0.00  0.00     0.066 C 
ATOM     46  H20 MOL d         -41.231 -59.577 -14.171  0.00  0.00     0.068 H 
ATOM     47  H21 MOL d         -41.236 -58.142 -15.250  0.00  0.00     0.068 H 
ATOM     48  H22 MOL d         -42.183 -59.602 -15.694  0.00  0.00     0.068 H 
ENDBRANCH  35  45
ENDBRANCH  24  30
ENDBRANCH  17  20
ENDBRANCH   3  16
BRANCH   9  49
ATOM     49  C20 MOL d         -43.018 -45.922  -8.245  0.00  0.00     0.140 C 
ATOM     50  H27 MOL d         -43.820 -46.266  -8.915  0.00  0.00     0.106 H 
BRANCH  49  51
ATOM     51  C29 MOL d         -42.550 -47.078  -7.419  0.00  0.00    -0.020 A 
ATOM     52  C27 MOL d         -43.305 -48.274  -7.398  0.00  0.00    -0.074 A 
ATOM     53  C28 MOL d         -42.861 -49.368  -6.656  0.00  0.00    -0.082 A 
ATOM     54  H23 MOL d         -44.230 -48.340  -7.959  0.00  0.00     0.084 H 
ATOM     55  C31 MOL d         -41.663 -49.254  -5.923  0.00  0.00    -0.083 A 
ATOM     56  H24 MOL d         -43.429 -50.291  -6.643  0.00  0.00     0.083 H 
ATOM     57  C35 MOL d         -40.914 -48.072  -5.934  0.00  0.00    -0.082 A 
ATOM     58  H25 MOL d         -41.315 -50.099  -5.340  0.00  0.00     0.083 H 
ATOM     59  C33 MOL d         -41.358 -46.985  -6.669  0.00  0.00    -0.074 A 
ATOM     60  H28 MOL d         -39.991 -48.008  -5.369  0.00  0.00     0.083 H 
ATOM     61  H26 MOL d         -40.789 -46.062  -6.668  0.00  0.00     0.084 H 
ENDBRANCH  49  51
BRANCH  49  62
ATOM     62  O34 MOL d         -43.512 -44.832  -7.463  0.00  0.00    -0.377 OA
BRANCH  62  63
ATOM     63  C36 MOL d         -44.877 -44.982  -7.027  0.00  0.00     0.005 C 
ATOM     64  H29 MOL d         -44.906 -45.055  -5.930  0.00  0.00     0.066 H 
ATOM     65  H30 MOL d         -45.305 -45.895  -7.466  0.00  0.00     0.066 H 
ATOM     66  H31 MOL d         -45.465 -44.110  -7.352  0.00  0.00     0.066 H 
ENDBRANCH  62  63
ENDBRANCH  49  62
ENDBRANCH   9  49
TORSDOF 8
ENDMDL
MODEL 2
REMARK VINA RESULT:      -7.0      1.268      2.812
REMARK  8 active torsions:
REMARK  status: ('A' for Active; 'I' for Inactive)
REMARK       I    between atoms: C25_25  and  N1_1 
REMARK    1  A    between atoms: C3_3  and  N5_5 
REMARK       I    between atoms: N5_5  and  C6_6 
REMARK    2  A    between atoms: C6_6  and  C7_7 
REMARK    3  A    between atoms: C24_24  and  N17_17 
REMARK    4  A    between atoms: N20_20  and  C23_23 
REMARK    5  A    between atoms: C20_32  and  C25_25 
REMARK    6  A    between atoms: C29_29  and  C20_32 
REMARK    7  A    between atoms: C20_32  and  O34_35 
REMARK    8  A    between atoms: O34_35  and  C36_34 
ROOT
ATOM      1  N1  MOL d         -41.189 -45.880  -9.258  0.00  0.00    -0.340 N 
ATOM      2  N2  MOL d         -39.188 -46.702 -12.163  0.00  0.00    -0.278 N 
ATOM      3  C3  MOL d         -40.579 -48.419 -11.842  0.00  0.00     0.160 A 
ATOM      4  N4  MOL d         -39.558 -47.999 -12.611  0.00  0.00    -0.156 NA
ATOM      5  C13 MOL d         -40.010 -46.387 -11.141  0.00  0.00     0.057 A 
ATOM      6  C14 MOL d         -40.910 -47.470 -10.895  0.00  0.00     0.033 A 
ATOM      7  C15 MOL d         -41.804 -47.161  -9.735  0.00  0.00     0.027 C 
ATOM      8  C16 MOL d         -40.205 -45.269 -10.177  0.00  0.00     0.038 C 
ATOM      9  C25 MOL d         -41.473 -45.278  -8.092  0.00  0.00     0.254 C 
ATOM     10  O26 MOL d         -40.938 -44.225  -7.751  0.00  0.00    -0.270 OA
ATOM     11  H1  MOL d         -38.435 -46.114 -12.546  0.00  0.00     0.189 HD
ATOM     12  H7  MOL d         -42.848 -47.019 -10.052  0.00  0.00     0.072 H 
ATOM     13  H8  MOL d         -41.759 -47.946  -8.966  0.00  0.00     0.072 H 
ATOM     14  H9  MOL d         -39.270 -45.011  -9.659  0.00  0.00     0.074 H 
ATOM     15  H10 MOL d         -40.610 -44.373 -10.670  0.00  0.00     0.074 H 
ENDROOT
BRANCH   3  16
ATOM     16  N5  MOL d         -41.119 -49.669 -12.057  0.00  0.00    -0.305 N 
ATOM     17  C6  MOL d         -42.407 -49.954 -12.161  0.00  0.00     0.257 C 
ATOM     18  O8  MOL d         -43.300 -49.129 -12.109  0.00  0.00    -0.267 OA
ATOM     19  H2  MOL d         -40.478 -50.431 -12.142  0.00  0.00     0.170 HD
BRANCH  17  20
ATOM     20  C7  MOL d         -42.776 -51.371 -12.375  0.00  0.00     0.032 A 
ATOM     21  C9  MOL d         -43.857 -51.861 -11.657  0.00  0.00    -0.066 A 
ATOM     22  C10 MOL d         -44.273 -53.168 -11.809  0.00  0.00    -0.056 A 
ATOM     23  H3  MOL d         -44.381 -51.210 -10.969  0.00  0.00     0.085 H 
ATOM     24  C24 MOL d         -43.584 -53.978 -12.682  0.00  0.00     0.030 A 
ATOM     25  H4  MOL d         -45.124 -53.547 -11.254  0.00  0.00     0.086 H 
ATOM     26  C11 MOL d         -42.482 -53.482 -13.405  0.00  0.00    -0.056 A 
ATOM     27  C12 MOL d         -42.070 -52.170 -13.262  0.00  0.00    -0.066 A 
ATOM     28  H5  MOL d         -41.949 -54.139 -14.083  0.00  0.00     0.086 H 
ATOM     29  H6  MOL d         -41.227 -51.781 -13.821  0.00  0.00     0.085 H 
BRANCH  24  30
ATOM     30  N17 MOL d         -44.007 -55.309 -12.841  0.00  0.00    -0.378 N 
ATOM     31  C18 MOL d         -45.079 -55.749 -12.310  0.00  0.00     0.018 C 
ATOM     32  C19 MOL d         -45.017 -56.928 -11.673  0.00  0.00     0.098 C 
ATOM     33  H11 MOL d         -45.827 -55.846 -13.111  0.00  0.00     0.066 H 
ATOM     34  H12 MOL d         -45.419 -54.997 -11.582  0.00  0.00     0.066 H 
ATOM     35  N20 MOL d         -43.968 -57.876 -11.949  0.00  0.00    -0.072 N 
ATOM     36  H13 MOL d         -45.966 -57.444 -11.882  0.00  0.00     0.078 H 
ATOM     37  H14 MOL d         -44.954 -56.697 -10.600  0.00  0.00     0.078 H 
ATOM     38  C21 MOL d         -42.772 -57.266 -12.593  0.00  0.00     0.098 C 
ATOM     39  H15 MOL d         -44.344 -58.569 -12.578  0.00  0.00     0.279 HD
ATOM     40  C22 MOL d         -43.176 -56.222 -13.632  0.00  0.00     0.018 C 
ATOM     41  H16 MOL d         -42.188 -58.057 -13.088  0.00  0.00     0.078 H 
ATOM     42  H17 MOL d         -42.155 -56.784 -11.820  0.00  0.00     0.078 H 
ATOM     43  H18 MOL d         -42.295 -55.706 -14.043  0.00  0.00     0.066 H 
ATOM     44  H19 MOL d         -43.750 -56.677 -14.452  0.00  0.00     0.066 H 
BRANCH  35  45
ATOM     45  C23 MOL d         -43.524 -58.552 -10.715  0.00  0.00     0.066 C 
ATOM     46  H20 MOL d         -42.609 -58.070 -10.341  0.00  0.00     0.068 H 
ATOM     47  H21 MOL d         -43.320 -59.611 -10.929  0.00  0.00     0.068 H 
ATOM     48  H22 MOL d         -44.314 -58.479  -9.953  0.00  0.00     0.068 H 
ENDBRANCH  35  45
ENDBRANCH  24  30
ENDBRANCH  17  20
ENDBRANCH   3  16
BRANCH   9  49
ATOM     49  C20 MOL d         -42.464 -45.922  -7.172  0.00  0.00     0.140 C 
ATOM     50  H27 MOL d         -42.228 -45.660  -6.130  0.00  0.00     0.106 H 
BRANCH  49  51
ATOM     51  C29 MOL d         -43.817 -45.383  -7.511  0.00  0.00    -0.020 A 
ATOM     52  C27 MOL d         -44.536 -44.639  -6.545  0.00  0.00    -0.074 A 
ATOM     53  C28 MOL d         -45.785 -44.106  -6.861  0.00  0.00    -0.082 A 
ATOM     54  H23 MOL d         -44.114 -44.483  -5.559  0.00  0.00     0.084 H 
ATOM     55  C31 MOL d         -46.318 -44.334  -8.145  0.00  0.00    -0.083 A 
ATOM     56  H24 MOL d         -46.337 -43.527  -6.130  0.00  0.00     0.083 H 
ATOM     57  C35 MOL d         -45.617 -45.074  -9.103  0.00  0.00    -0.082 A 
ATOM     58  H25 MOL d         -47.291 -43.927  -8.396  0.00  0.00     0.083 H 
ATOM     59  C33 MOL d         -44.377 -45.606  -8.787  0.00  0.00    -0.074 A 
ATOM     60  H28 MOL d         -46.042 -45.231 -10.088  0.00  0.00     0.083 H 
ATOM     61  H26 MOL d         -43.837 -46.193  -9.520  0.00  0.00     0.084 H 
ENDBRANCH  49  51
BRANCH  49  62
ATOM     62  O34 MOL d         -42.366 -47.340  -7.320  0.00  0.00    -0.377 OA
BRANCH  62  63
ATOM     63  C36 MOL d         -41.627 -47.999  -6.273  0.00  0.00     0.005 C 
ATOM     64  H29 MOL d         -41.448 -49.047  -6.555  0.00  0.00     0.066 H 
ATOM     65  H30 MOL d         -42.205 -47.965  -5.338  0.00  0.00     0.066 H 
ATOM     66  H31 MOL d         -40.663 -47.489  -6.126  0.00  0.00     0.066 H 
ENDBRANCH  62  63
ENDBRANCH  49  62
ENDBRANCH   9  49
TORSDOF 8
ENDMDL
