MODEL 1
REMARK VINA RESULT:      -8.1      0.000      0.000
REMARK  10 active torsions:
REMARK  status: ('A' for Active; 'I' for Inactive)
REMARK    1  A    between atoms: C3_3  and  O3_4 
REMARK    2  A    between atoms: O3_4  and  C1X_29 
REMARK    3  A    between atoms: C10_11  and  C19_22 
REMARK    4  A    between atoms: C12_13  and  O12_14 
REMARK    5  A    between atoms: C13_15  and  C18_21 
REMARK    6  A    between atoms: C14_16  and  O14_17 
REMARK    7  A    between atoms: C17_20  and  C20_23 
REMARK    8  A    between atoms: C3X_31  and  O3X_32 
REMARK    9  A    between atoms: C4X_33  and  O4X_34 
REMARK   10  A    between atoms: C5X_35  and  C6X_37 
ROOT
ATOM      1  C1  DGX d         -12.869  30.860  29.641  0.00  0.00    -0.055 C 
ATOM      2  C2  DGX d         -14.174  31.227  28.940  0.00  0.00    -0.040 C 
ATOM      3  C3  DGX d         -15.372  31.014  29.855  0.00  0.00     0.042 C 
ATOM      4  C4  DGX d         -15.460  29.544  30.233  0.00  0.00    -0.037 C 
ATOM      5  C5  DGX d         -14.203  29.131  30.990  0.00  0.00    -0.044 C 
ATOM      6  C6  DGX d         -14.303  27.713  31.535  0.00  0.00    -0.060 C 
ATOM      7  C7  DGX d         -14.203  26.681  30.423  0.00  0.00    -0.058 C 
ATOM      8  C8  DGX d         -12.919  26.894  29.620  0.00  0.00    -0.019 C 
ATOM      9  C9  DGX d         -12.768  28.328  29.100  0.00  0.00    -0.038 C 
ATOM     10  C10 DGX d         -12.888  29.425  30.197  0.00  0.00    -0.036 C 
ATOM     11  C11 DGX d         -11.460  28.454  28.336  0.00  0.00    -0.036 C 
ATOM     12  C12 DGX d         -11.457  27.477  27.179  0.00  0.00     0.046 C 
ATOM     13  C13 DGX d         -11.482  25.999  27.660  0.00  0.00     0.021 C 
ATOM     14  C14 DGX d         -12.762  25.786  28.541  0.00  0.00     0.072 C 
ATOM     15  C15 DGX d         -13.896  25.653  27.505  0.00  0.00    -0.035 C 
ATOM     16  C16 DGX d         -13.278  25.118  26.214  0.00  0.00    -0.054 C 
ATOM     17  C17 DGX d         -11.752  25.183  26.356  0.00  0.00    -0.018 C 
ATOM     18  H1  DGX d         -12.043  30.949  28.920  0.00  0.00     0.034 H 
ATOM     19  H2  DGX d         -12.706  31.560  30.474  0.00  0.00     0.034 H 
ATOM     20  H3  DGX d         -14.290  30.599  28.045  0.00  0.00     0.036 H 
ATOM     21  H4  DGX d         -14.135  32.285  28.642  0.00  0.00     0.036 H 
ATOM     22  H5  DGX d         -16.290  31.321  29.333  0.00  0.00     0.083 H 
ATOM     23  H6  DGX d         -15.554  28.938  29.321  0.00  0.00     0.037 H 
ATOM     24  H7  DGX d         -16.342  29.383  30.872  0.00  0.00     0.037 H 
ATOM     25  H8  DGX d         -14.161  29.783  31.876  0.00  0.00     0.041 H 
ATOM     26  H9  DGX d         -15.269  27.594  32.047  0.00  0.00     0.033 H 
ATOM     27  H10 DGX d         -13.485  27.547  32.252  0.00  0.00     0.033 H 
ATOM     28  H11 DGX d         -15.070  26.782  29.755  0.00  0.00     0.033 H 
ATOM     29  H12 DGX d         -14.194  25.673  30.862  0.00  0.00     0.033 H 
ATOM     30  H13 DGX d         -12.087  26.749  30.324  0.00  0.00     0.045 H 
ATOM     31  H14 DGX d         -13.588  28.501  28.388  0.00  0.00     0.042 H 
ATOM     32  H15 DGX d         -10.619  28.229  29.009  0.00  0.00     0.037 H 
ATOM     33  H16 DGX d         -11.357  29.479  27.951  0.00  0.00     0.037 H 
ATOM     34  H17 DGX d         -12.382  27.647  26.609  0.00  0.00     0.084 H 
ATOM     35  H20 DGX d         -14.356  26.636  27.323  0.00  0.00     0.037 H 
ATOM     36  H21 DGX d         -14.661  24.954  27.873  0.00  0.00     0.037 H 
ATOM     37  H22 DGX d         -13.600  25.734  25.362  0.00  0.00     0.034 H 
ATOM     38  H23 DGX d         -13.593  24.076  26.053  0.00  0.00     0.034 H 
ATOM     39  H24 DGX d         -11.391  25.805  25.523  0.00  0.00     0.048 H 
ENDROOT
BRANCH   3  40
ATOM     40  O3  DGX d         -15.227  31.778  31.064  0.00  0.00    -0.356 OA
BRANCH  40  41
ATOM     41  C1X DGX d         -16.201  32.789  31.339  0.00  0.00     0.134 C 
ATOM     42  O5X DGX d         -17.469  32.272  30.966  0.00  0.00    -0.354 OA
ATOM     43  C5X DGX d         -18.573  33.134  31.150  0.00  0.00     0.065 C 
ATOM     44  C4X DGX d         -18.349  34.478  30.438  0.00  0.00     0.085 C 
ATOM     45  H41 DGX d         -18.763  33.312  32.218  0.00  0.00     0.086 H 
ATOM     46  C3X DGX d         -16.971  35.088  30.720  0.00  0.00     0.067 C 
ATOM     47  H39 DGX d         -18.442  34.316  29.354  0.00  0.00     0.090 H 
ATOM     48  C2X DGX d         -15.911  34.021  30.480  0.00  0.00     0.007 C 
ATOM     49  H37 DGX d         -16.801  35.914  30.015  0.00  0.00     0.087 H 
ATOM     50  H35 DGX d         -15.918  33.734  29.418  0.00  0.00     0.044 H 
ATOM     51  H36 DGX d         -14.923  34.424  30.744  0.00  0.00     0.044 H 
ATOM     52  H34 DGX d         -16.188  33.056  32.406  0.00  0.00     0.129 H 
BRANCH  43  53
ATOM     53  C6X DGX d         -19.713  32.360  30.514  0.00  0.00    -0.050 C 
ATOM     54  H42 DGX d         -19.849  31.406  31.045  0.00  0.00     0.031 H 
ATOM     55  H43 DGX d         -19.478  32.163  29.458  0.00  0.00     0.031 H 
ATOM     56  H44 DGX d         -20.638  32.951  30.580  0.00  0.00     0.031 H 
ENDBRANCH  43  53
BRANCH  44  57
ATOM     57  O4X DGX d         -19.356  35.407  30.868  0.00  0.00    -0.390 OA
ATOM     58  H40 DGX d         -19.293  35.527  31.808  0.00  0.00     0.210 HD
ENDBRANCH  44  57
BRANCH  46  59
ATOM     59  O3X DGX d         -16.903  35.624  32.060  0.00  0.00    -0.393 OA
ATOM     60  H38 DGX d         -17.561  36.300  32.163  0.00  0.00     0.210 HD
ENDBRANCH  46  59
ENDBRANCH  40  41
ENDBRANCH   3  40
BRANCH  10  61
ATOM     61  C19 DGX d         -11.651  29.440  31.112  0.00  0.00    -0.068 C 
ATOM     62  H28 DGX d         -11.767  30.225  31.874  0.00  0.00     0.028 H 
ATOM     63  H29 DGX d         -10.753  29.644  30.511  0.00  0.00     0.028 H 
ATOM     64  H30 DGX d         -11.547  28.462  31.605  0.00  0.00     0.028 H 
ENDBRANCH  10  61
BRANCH  14  65
ATOM     65  O14 DGX d         -12.729  24.507  29.228  0.00  0.00    -0.389 OA
ATOM     66  H19 DGX d         -13.515  24.409  29.751  0.00  0.00     0.210 HD
ENDBRANCH  14  65
BRANCH  12  67
ATOM     67  O12 DGX d         -10.361  27.727  26.293  0.00  0.00    -0.395 OA
ATOM     68  H18 DGX d         -10.377  28.636  26.020  0.00  0.00     0.210 HD
ENDBRANCH  12  67
BRANCH  13  69
ATOM     69  C18 DGX d         -10.176  25.668  28.418  0.00  0.00    -0.063 C 
ATOM     70  H25 DGX d          -9.314  25.834  27.755  0.00  0.00     0.028 H 
ATOM     71  H26 DGX d         -10.193  24.616  28.738  0.00  0.00     0.028 H 
ATOM     72  H27 DGX d         -10.089  26.318  29.300  0.00  0.00     0.028 H 
ENDBRANCH  13  69
BRANCH  17  73
ATOM     73  C20 DGX d         -11.008  23.893  26.202  0.00  0.00    -0.045 A 
ATOM     74  C22 DGX d          -9.899  23.659  25.487  0.00  0.00    -0.006 A 
ATOM     75  C23 DGX d          -9.467  22.293  25.719  0.00  0.00     0.283 A 
ATOM     76  H33 DGX d          -9.401  24.377  24.836  0.00  0.00     0.093 H 
ATOM     77  O21 DGX d         -10.287  21.720  26.600  0.00  0.00    -0.314 OA
ATOM     78  O23 DGX d          -8.493  21.685  25.294  0.00  0.00    -0.260 OA
ATOM     79  C21 DGX d         -11.352  22.645  26.917  0.00  0.00     0.050 A 
ATOM     80  H31 DGX d         -12.318  22.254  26.567  0.00  0.00     0.082 H 
ATOM     81  H32 DGX d         -11.399  22.822  28.001  0.00  0.00     0.082 H 
ENDBRANCH  17  73
TORSDOF 10
ENDMDL
