MODEL 1
REMARK VINA RESULT:      -8.2      0.000      0.000
REMARK  10 active torsions:
REMARK  status: ('A' for Active; 'I' for Inactive)
REMARK    1  A    between atoms: C3_3  and  O3_4 
REMARK    2  A    between atoms: O3_4  and  C1X_29 
REMARK    3  A    between atoms: C10_11  and  C19_22 
REMARK    4  A    between atoms: C12_13  and  O12_14 
REMARK    5  A    between atoms: C13_15  and  C18_21 
REMARK    6  A    between atoms: C14_16  and  O14_17 
REMARK    7  A    between atoms: C17_20  and  C20_23 
REMARK    8  A    between atoms: C3X_31  and  O3X_32 
REMARK    9  A    between atoms: C4X_33  and  O4X_34 
REMARK   10  A    between atoms: C5X_35  and  C6X_37 
ROOT
ATOM      1  C1  DGX d         -12.587  30.819  29.508  0.00  0.00    -0.055 C 
ATOM      2  C2  DGX d         -13.954  31.140  28.910  0.00  0.00    -0.040 C 
ATOM      3  C3  DGX d         -15.067  30.928  29.928  0.00  0.00     0.042 C 
ATOM      4  C4  DGX d         -15.090  29.468  30.351  0.00  0.00    -0.037 C 
ATOM      5  C5  DGX d         -13.764  29.103  31.010  0.00  0.00    -0.044 C 
ATOM      6  C6  DGX d         -13.786  27.698  31.599  0.00  0.00    -0.060 C 
ATOM      7  C7  DGX d         -13.756  26.638  30.510  0.00  0.00    -0.058 C 
ATOM      8  C8  DGX d         -12.549  26.854  29.595  0.00  0.00    -0.019 C 
ATOM      9  C9  DGX d         -12.475  28.275  29.027  0.00  0.00    -0.038 C 
ATOM     10  C10 DGX d         -12.528  29.401  30.101  0.00  0.00    -0.036 C 
ATOM     11  C11 DGX d         -11.239  28.406  28.152  0.00  0.00    -0.036 C 
ATOM     12  C12 DGX d         -11.311  27.397  27.025  0.00  0.00     0.046 C 
ATOM     13  C13 DGX d         -11.262  25.933  27.546  0.00  0.00     0.021 C 
ATOM     14  C14 DGX d         -12.459  25.719  28.537  0.00  0.00     0.072 C 
ATOM     15  C15 DGX d         -13.672  25.534  27.604  0.00  0.00    -0.035 C 
ATOM     16  C16 DGX d         -13.152  24.975  26.280  0.00  0.00    -0.054 C 
ATOM     17  C17 DGX d         -11.622  25.076  26.291  0.00  0.00    -0.018 C 
ATOM     18  H1  DGX d         -11.827  30.904  28.717  0.00  0.00     0.034 H 
ATOM     19  H2  DGX d         -12.371  31.545  30.305  0.00  0.00     0.034 H 
ATOM     20  H3  DGX d         -14.131  30.484  28.045  0.00  0.00     0.036 H 
ATOM     21  H4  DGX d         -13.964  32.190  28.582  0.00  0.00     0.036 H 
ATOM     22  H5  DGX d         -16.032  31.202  29.478  0.00  0.00     0.083 H 
ATOM     23  H6  DGX d         -15.245  28.834  29.466  0.00  0.00     0.037 H 
ATOM     24  H7  DGX d         -15.910  29.308  31.066  0.00  0.00     0.037 H 
ATOM     25  H8  DGX d         -13.663  29.779  31.871  0.00  0.00     0.041 H 
ATOM     26  H9  DGX d         -14.703  27.574  32.193  0.00  0.00     0.033 H 
ATOM     27  H10 DGX d         -12.907  27.569  32.248  0.00  0.00     0.033 H 
ATOM     28  H11 DGX d         -14.678  26.702  29.915  0.00  0.00     0.033 H 
ATOM     29  H12 DGX d         -13.687  25.643  30.973  0.00  0.00     0.033 H 
ATOM     30  H13 DGX d         -11.658  26.746  30.230  0.00  0.00     0.045 H 
ATOM     31  H14 DGX d         -13.356  28.412  28.382  0.00  0.00     0.042 H 
ATOM     32  H15 DGX d         -10.340  28.217  28.758  0.00  0.00     0.037 H 
ATOM     33  H16 DGX d         -11.192  29.422  27.733  0.00  0.00     0.037 H 
ATOM     34  H17 DGX d         -12.284  27.533  26.531  0.00  0.00     0.084 H 
ATOM     35  H20 DGX d         -14.167  26.502  27.436  0.00  0.00     0.037 H 
ATOM     36  H21 DGX d         -14.388  24.830  28.054  0.00  0.00     0.037 H 
ATOM     37  H22 DGX d         -13.558  25.560  25.442  0.00  0.00     0.034 H 
ATOM     38  H23 DGX d         -13.457  23.923  26.174  0.00  0.00     0.034 H 
ATOM     39  H24 DGX d         -11.347  25.681  25.415  0.00  0.00     0.048 H 
ENDROOT
BRANCH   3  40
ATOM     40  O3  DGX d         -14.837  31.728  31.100  0.00  0.00    -0.356 OA
BRANCH  40  41
ATOM     41  C1X DGX d         -15.863  32.644  31.497  0.00  0.00     0.134 C 
ATOM     42  O5X DGX d         -17.089  32.168  30.964  0.00  0.00    -0.354 OA
ATOM     43  C5X DGX d         -18.234  32.950  31.237  0.00  0.00     0.065 C 
ATOM     44  C4X DGX d         -18.025  34.408  30.794  0.00  0.00     0.085 C 
ATOM     45  H41 DGX d         -18.485  32.924  32.307  0.00  0.00     0.086 H 
ATOM     46  C3X DGX d         -16.688  34.994  31.262  0.00  0.00     0.067 C 
ATOM     47  H39 DGX d         -18.056  34.445  29.695  0.00  0.00     0.090 H 
ATOM     48  C2X DGX d         -15.577  34.020  30.893  0.00  0.00     0.007 C 
ATOM     49  H37 DGX d         -16.514  35.941  30.729  0.00  0.00     0.087 H 
ATOM     50  H35 DGX d         -15.518  33.933  29.798  0.00  0.00     0.044 H 
ATOM     51  H36 DGX d         -14.620  34.396  31.283  0.00  0.00     0.044 H 
ATOM     52  H34 DGX d         -15.915  32.712  32.594  0.00  0.00     0.129 H 
BRANCH  43  53
ATOM     53  C6X DGX d         -19.309  32.274  30.406  0.00  0.00    -0.050 C 
ATOM     54  H42 DGX d         -19.419  31.229  30.731  0.00  0.00     0.031 H 
ATOM     55  H43 DGX d         -19.023  32.300  29.345  0.00  0.00     0.031 H 
ATOM     56  H44 DGX d         -20.263  32.803  30.542  0.00  0.00     0.031 H 
ENDBRANCH  43  53
BRANCH  44  57
ATOM     57  O4X DGX d         -19.088  35.214  31.326  0.00  0.00    -0.390 OA
ATOM     58  H40 DGX d         -19.263  35.936  30.735  0.00  0.00     0.210 HD
ENDBRANCH  44  57
BRANCH  46  59
ATOM     59  O3X DGX d         -16.710  35.278  32.678  0.00  0.00    -0.393 OA
ATOM     60  H38 DGX d         -16.099  34.703  33.124  0.00  0.00     0.210 HD
ENDBRANCH  46  59
ENDBRANCH  40  41
ENDBRANCH   3  40
BRANCH  10  61
ATOM     61  C19 DGX d         -11.218  29.466  30.907  0.00  0.00    -0.068 C 
ATOM     62  H28 DGX d         -10.675  28.516  30.802  0.00  0.00     0.028 H 
ATOM     63  H29 DGX d         -11.449  29.641  31.968  0.00  0.00     0.028 H 
ATOM     64  H30 DGX d         -10.595  30.289  30.528  0.00  0.00     0.028 H 
ENDBRANCH  10  61
BRANCH  14  65
ATOM     65  O14 DGX d         -12.339  24.461  29.252  0.00  0.00    -0.389 OA
ATOM     66  H19 DGX d         -13.201  24.080  29.367  0.00  0.00     0.210 HD
ENDBRANCH  14  65
BRANCH  12  67
ATOM     67  O12 DGX d         -10.299  27.644  26.044  0.00  0.00    -0.395 OA
ATOM     68  H18 DGX d         -10.664  27.517  25.176  0.00  0.00     0.210 HD
ENDBRANCH  12  67
BRANCH  13  69
ATOM     69  C18 DGX d          -9.889  25.651  28.199  0.00  0.00    -0.063 C 
ATOM     70  H25 DGX d          -9.876  24.625  28.596  0.00  0.00     0.028 H 
ATOM     71  H26 DGX d          -9.720  26.363  29.020  0.00  0.00     0.028 H 
ATOM     72  H27 DGX d          -9.095  25.763  27.447  0.00  0.00     0.028 H 
ENDBRANCH  13  69
BRANCH  17  73
ATOM     73  C20 DGX d         -10.864  23.797  26.108  0.00  0.00    -0.045 A 
ATOM     74  C22 DGX d          -9.749  23.591  25.394  0.00  0.00    -0.006 A 
ATOM     75  C23 DGX d          -9.306  22.225  25.594  0.00  0.00     0.283 A 
ATOM     76  H33 DGX d          -9.256  24.331  24.764  0.00  0.00     0.093 H 
ATOM     77  O21 DGX d         -10.124  21.621  26.456  0.00  0.00    -0.314 OA
ATOM     78  O23 DGX d          -8.324  21.637  25.159  0.00  0.00    -0.260 OA
ATOM     79  C21 DGX d         -11.200  22.528  26.790  0.00  0.00     0.050 A 
ATOM     80  H31 DGX d         -12.161  22.137  26.426  0.00  0.00     0.082 H 
ATOM     81  H32 DGX d         -11.255  22.678  27.878  0.00  0.00     0.082 H 
ENDBRANCH  17  73
TORSDOF 10
ENDMDL
MODEL 2
REMARK VINA RESULT:      -6.9      2.083      3.234
REMARK  10 active torsions:
REMARK  status: ('A' for Active; 'I' for Inactive)
REMARK    1  A    between atoms: C3_3  and  O3_4 
REMARK    2  A    between atoms: O3_4  and  C1X_29 
REMARK    3  A    between atoms: C10_11  and  C19_22 
REMARK    4  A    between atoms: C12_13  and  O12_14 
REMARK    5  A    between atoms: C13_15  and  C18_21 
REMARK    6  A    between atoms: C14_16  and  O14_17 
REMARK    7  A    between atoms: C17_20  and  C20_23 
REMARK    8  A    between atoms: C3X_31  and  O3X_32 
REMARK    9  A    between atoms: C4X_33  and  O4X_34 
REMARK   10  A    between atoms: C5X_35  and  C6X_37 
ROOT
ATOM      1  C1  DGX d         -11.972  30.833  29.632  0.00  0.00    -0.055 C 
ATOM      2  C2  DGX d         -13.307  31.274  29.040  0.00  0.00    -0.040 C 
ATOM      3  C3  DGX d         -14.435  31.134  30.053  0.00  0.00     0.042 C 
ATOM      4  C4  DGX d         -14.576  29.673  30.449  0.00  0.00    -0.037 C 
ATOM      5  C5  DGX d         -13.286  29.190  31.102  0.00  0.00    -0.044 C 
ATOM      6  C6  DGX d         -13.422  27.782  31.665  0.00  0.00    -0.060 C 
ATOM      7  C7  DGX d         -13.475  26.742  30.557  0.00  0.00    -0.058 C 
ATOM      8  C8  DGX d         -12.254  26.877  29.647  0.00  0.00    -0.019 C 
ATOM      9  C9  DGX d         -12.064  28.297  29.104  0.00  0.00    -0.038 C 
ATOM     10  C10 DGX d         -12.027  29.404  30.199  0.00  0.00    -0.036 C 
ATOM     11  C11 DGX d         -10.820  28.344  28.233  0.00  0.00    -0.036 C 
ATOM     12  C12 DGX d         -10.971  27.365  27.088  0.00  0.00     0.046 C 
ATOM     13  C13 DGX d         -11.041  25.892  27.581  0.00  0.00     0.021 C 
ATOM     14  C14 DGX d         -12.253  25.758  28.568  0.00  0.00     0.072 C 
ATOM     15  C15 DGX d         -13.476  25.688  27.632  0.00  0.00    -0.035 C 
ATOM     16  C16 DGX d         -13.000  25.114  26.298  0.00  0.00    -0.054 C 
ATOM     17  C17 DGX d         -11.467  25.090  26.311  0.00  0.00    -0.018 C 
ATOM     18  H1  DGX d         -11.205  30.871  28.843  0.00  0.00     0.034 H 
ATOM     19  H2  DGX d         -11.698  31.525  30.442  0.00  0.00     0.034 H 
ATOM     20  H3  DGX d         -13.535  30.650  28.163  0.00  0.00     0.036 H 
ATOM     21  H4  DGX d         -13.231  32.327  28.731  0.00  0.00     0.036 H 
ATOM     22  H5  DGX d         -15.374  31.493  29.607  0.00  0.00     0.083 H 
ATOM     23  H6  DGX d         -14.781  29.070  29.553  0.00  0.00     0.037 H 
ATOM     24  H7  DGX d         -15.408  29.567  31.161  0.00  0.00     0.037 H 
ATOM     25  H8  DGX d         -13.132  29.841  31.975  0.00  0.00     0.041 H 
ATOM     26  H9  DGX d         -14.347  27.721  32.257  0.00  0.00     0.033 H 
ATOM     27  H10 DGX d         -12.558  27.570  32.312  0.00  0.00     0.033 H 
ATOM     28  H11 DGX d         -14.389  26.891  29.963  0.00  0.00     0.033 H 
ATOM     29  H12 DGX d         -13.488  25.737  31.002  0.00  0.00     0.033 H 
ATOM     30  H13 DGX d         -11.375  26.685  30.280  0.00  0.00     0.045 H 
ATOM     31  H14 DGX d         -12.930  28.516  28.462  0.00  0.00     0.042 H 
ATOM     32  H15 DGX d          -9.940  28.072  28.835  0.00  0.00     0.037 H 
ATOM     33  H16 DGX d         -10.690  29.361  27.833  0.00  0.00     0.037 H 
ATOM     34  H17 DGX d         -11.929  27.587  26.596  0.00  0.00     0.084 H 
ATOM     35  H20 DGX d         -13.891  26.696  27.480  0.00  0.00     0.037 H 
ATOM     36  H21 DGX d         -14.247  25.036  28.068  0.00  0.00     0.037 H 
ATOM     37  H22 DGX d         -13.356  25.745  25.470  0.00  0.00     0.034 H 
ATOM     38  H23 DGX d         -13.388  24.092  26.172  0.00  0.00     0.034 H 
ATOM     39  H24 DGX d         -11.142  25.687  25.446  0.00  0.00     0.048 H 
ENDROOT
BRANCH   3  40
ATOM     40  O3  DGX d         -14.144  31.892  31.240  0.00  0.00    -0.356 OA
BRANCH  40  41
ATOM     41  C1X DGX d         -12.978  32.721  31.235  0.00  0.00     0.134 C 
ATOM     42  O5X DGX d         -12.042  32.147  32.135  0.00  0.00    -0.354 OA
ATOM     43  C5X DGX d         -10.816  32.834  32.283  0.00  0.00     0.065 C 
ATOM     44  C4X DGX d         -11.050  34.304  32.670  0.00  0.00     0.085 C 
ATOM     45  H41 DGX d         -10.223  32.789  31.358  0.00  0.00     0.086 H 
ATOM     46  C3X DGX d         -12.104  34.997  31.798  0.00  0.00     0.067 C 
ATOM     47  H39 DGX d         -11.388  34.338  33.716  0.00  0.00     0.090 H 
ATOM     48  C2X DGX d         -13.345  34.116  31.746  0.00  0.00     0.007 C 
ATOM     49  H37 DGX d         -12.374  35.954  32.268  0.00  0.00     0.087 H 
ATOM     50  H35 DGX d         -13.775  34.033  32.755  0.00  0.00     0.044 H 
ATOM     51  H36 DGX d         -14.084  34.568  31.068  0.00  0.00     0.044 H 
ATOM     52  H34 DGX d         -12.555  32.785  30.221  0.00  0.00     0.129 H 
BRANCH  43  53
ATOM     53  C6X DGX d         -10.138  32.073  33.406  0.00  0.00    -0.050 C 
ATOM     54  H42 DGX d          -9.510  31.276  32.982  0.00  0.00     0.031 H 
ATOM     55  H43 DGX d         -10.901  31.630  34.062  0.00  0.00     0.031 H 
ATOM     56  H44 DGX d          -9.510  32.763  33.989  0.00  0.00     0.031 H 
ENDBRANCH  43  53
BRANCH  44  57
ATOM     57  O4X DGX d          -9.812  35.021  32.547  0.00  0.00    -0.390 OA
ATOM     58  H40 DGX d          -9.313  34.928  33.350  0.00  0.00     0.210 HD
ENDBRANCH  44  57
BRANCH  46  59
ATOM     59  O3X DGX d         -11.585  35.278  30.479  0.00  0.00    -0.393 OA
ATOM     60  H38 DGX d         -11.241  36.163  30.458  0.00  0.00     0.210 HD
ENDBRANCH  46  59
ENDBRANCH  40  41
ENDBRANCH   3  40
BRANCH  10  61
ATOM     61  C19 DGX d         -10.718  29.349  31.007  0.00  0.00    -0.068 C 
ATOM     62  H28 DGX d          -9.946  28.832  30.418  0.00  0.00     0.028 H 
ATOM     63  H29 DGX d         -10.889  28.803  31.946  0.00  0.00     0.028 H 
ATOM     64  H30 DGX d         -10.384  30.372  31.234  0.00  0.00     0.028 H 
ENDBRANCH  10  61
BRANCH  14  65
ATOM     65  O14 DGX d         -12.236  24.482  29.260  0.00  0.00    -0.389 OA
ATOM     66  H19 DGX d         -11.672  24.543  30.021  0.00  0.00     0.210 HD
ENDBRANCH  14  65
BRANCH  12  67
ATOM     67  O12 DGX d          -9.941  27.547  26.111  0.00  0.00    -0.395 OA
ATOM     68  H18 DGX d          -9.130  27.781  26.547  0.00  0.00     0.210 HD
ENDBRANCH  12  67
BRANCH  13  69
ATOM     69  C18 DGX d          -9.697  25.488  28.230  0.00  0.00    -0.063 C 
ATOM     70  H25 DGX d          -9.054  25.010  27.476  0.00  0.00     0.028 H 
ATOM     71  H26 DGX d          -9.884  24.782  29.052  0.00  0.00     0.028 H 
ATOM     72  H27 DGX d          -9.196  26.384  28.623  0.00  0.00     0.028 H 
ENDBRANCH  13  69
BRANCH  17  73
ATOM     73  C20 DGX d         -10.814  23.758  26.105  0.00  0.00    -0.045 A 
ATOM     74  C22 DGX d          -9.606  23.500  25.585  0.00  0.00    -0.006 A 
ATOM     75  C23 DGX d          -9.344  22.077  25.684  0.00  0.00     0.283 A 
ATOM     76  H33 DGX d          -8.930  24.240  25.158  0.00  0.00     0.093 H 
ATOM     77  O21 DGX d         -10.369  21.485  26.297  0.00  0.00    -0.314 OA
ATOM     78  O23 DGX d          -8.357  21.427  25.364  0.00  0.00    -0.260 OA
ATOM     79  C21 DGX d         -11.397  22.471  26.543  0.00  0.00     0.050 A 
ATOM     80  H31 DGX d         -12.301  22.239  25.962  0.00  0.00     0.082 H 
ATOM     81  H32 DGX d         -11.649  22.506  27.614  0.00  0.00     0.082 H 
ENDBRANCH  17  73
TORSDOF 10
ENDMDL
MODEL 3
REMARK VINA RESULT:      -6.9      1.270      1.560
REMARK  10 active torsions:
REMARK  status: ('A' for Active; 'I' for Inactive)
REMARK    1  A    between atoms: C3_3  and  O3_4 
REMARK    2  A    between atoms: O3_4  and  C1X_29 
REMARK    3  A    between atoms: C10_11  and  C19_22 
REMARK    4  A    between atoms: C12_13  and  O12_14 
REMARK    5  A    between atoms: C13_15  and  C18_21 
REMARK    6  A    between atoms: C14_16  and  O14_17 
REMARK    7  A    between atoms: C17_20  and  C20_23 
REMARK    8  A    between atoms: C3X_31  and  O3X_32 
REMARK    9  A    between atoms: C4X_33  and  O4X_34 
REMARK   10  A    between atoms: C5X_35  and  C6X_37 
ROOT
ATOM      1  C1  DGX d         -12.871  31.864  29.589  0.00  0.00    -0.055 C 
ATOM      2  C2  DGX d         -14.244  32.147  28.986  0.00  0.00    -0.040 C 
ATOM      3  C3  DGX d         -15.351  31.939  30.011  0.00  0.00     0.042 C 
ATOM      4  C4  DGX d         -15.347  30.489  30.467  0.00  0.00    -0.037 C 
ATOM      5  C5  DGX d         -14.015  30.163  31.133  0.00  0.00    -0.044 C 
ATOM      6  C6  DGX d         -14.011  28.773  31.754  0.00  0.00    -0.060 C 
ATOM      7  C7  DGX d         -13.963  27.687  30.690  0.00  0.00    -0.058 C 
ATOM      8  C8  DGX d         -12.761  27.904  29.769  0.00  0.00    -0.019 C 
ATOM      9  C9  DGX d         -12.713  29.312  29.167  0.00  0.00    -0.038 C 
ATOM     10  C10 DGX d         -12.785  30.461  30.215  0.00  0.00    -0.036 C 
ATOM     11  C11 DGX d         -11.481  29.445  28.289  0.00  0.00    -0.036 C 
ATOM     12  C12 DGX d         -11.536  28.409  27.185  0.00  0.00     0.046 C 
ATOM     13  C13 DGX d         -11.460  26.958  27.740  0.00  0.00     0.021 C 
ATOM     14  C14 DGX d         -12.652  26.746  28.737  0.00  0.00     0.072 C 
ATOM     15  C15 DGX d         -13.863  26.518  27.811  0.00  0.00    -0.035 C 
ATOM     16  C16 DGX d         -13.334  25.937  26.500  0.00  0.00    -0.054 C 
ATOM     17  C17 DGX d         -11.806  26.066  26.506  0.00  0.00    -0.018 C 
ATOM     18  H1  DGX d         -12.113  31.945  28.796  0.00  0.00     0.034 H 
ATOM     19  H2  DGX d         -12.666  32.613  30.368  0.00  0.00     0.034 H 
ATOM     20  H3  DGX d         -14.410  31.467  28.137  0.00  0.00     0.036 H 
ATOM     21  H4  DGX d         -14.273  33.188  28.634  0.00  0.00     0.036 H 
ATOM     22  H5  DGX d         -16.321  32.185  29.555  0.00  0.00     0.083 H 
ATOM     23  H6  DGX d         -15.493  29.832  29.598  0.00  0.00     0.037 H 
ATOM     24  H7  DGX d         -16.164  30.331  31.187  0.00  0.00     0.037 H 
ATOM     25  H8  DGX d         -13.925  30.861  31.977  0.00  0.00     0.041 H 
ATOM     26  H9  DGX d         -14.925  28.645  32.353  0.00  0.00     0.033 H 
ATOM     27  H10 DGX d         -13.129  28.675  32.405  0.00  0.00     0.033 H 
ATOM     28  H11 DGX d         -14.887  27.721  30.095  0.00  0.00     0.033 H 
ATOM     29  H12 DGX d         -13.876  26.705  31.176  0.00  0.00     0.033 H 
ATOM     30  H13 DGX d         -11.867  27.826  30.405  0.00  0.00     0.045 H 
ATOM     31  H14 DGX d         -13.597  29.418  28.521  0.00  0.00     0.042 H 
ATOM     32  H15 DGX d         -10.578  29.287  28.897  0.00  0.00     0.037 H 
ATOM     33  H16 DGX d         -11.453  30.452  27.846  0.00  0.00     0.037 H 
ATOM     34  H17 DGX d         -12.512  28.515  26.690  0.00  0.00     0.084 H 
ATOM     35  H20 DGX d         -14.375  27.472  27.621  0.00  0.00     0.037 H 
ATOM     36  H21 DGX d         -14.565  25.812  28.278  0.00  0.00     0.037 H 
ATOM     37  H22 DGX d         -13.752  26.496  25.649  0.00  0.00     0.034 H 
ATOM     38  H23 DGX d         -13.620  24.878  26.419  0.00  0.00     0.034 H 
ATOM     39  H24 DGX d         -11.542  26.655  25.615  0.00  0.00     0.048 H 
ENDROOT
BRANCH   3  40
ATOM     40  O3  DGX d         -15.135  32.770  31.163  0.00  0.00    -0.356 OA
BRANCH  40  41
ATOM     41  C1X DGX d         -16.278  33.161  31.930  0.00  0.00     0.134 C 
ATOM     42  O5X DGX d         -16.945  31.976  32.335  0.00  0.00    -0.354 OA
ATOM     43  C5X DGX d         -18.120  32.152  33.101  0.00  0.00     0.065 C 
ATOM     44  C4X DGX d         -19.119  33.070  32.377  0.00  0.00     0.085 C 
ATOM     45  H41 DGX d         -17.888  32.571  34.091  0.00  0.00     0.086 H 
ATOM     46  C3X DGX d         -18.477  34.352  31.835  0.00  0.00     0.067 C 
ATOM     47  H39 DGX d         -19.552  32.514  31.533  0.00  0.00     0.090 H 
ATOM     48  C2X DGX d         -17.228  33.973  31.048  0.00  0.00     0.007 C 
ATOM     49  H37 DGX d         -19.187  34.838  31.150  0.00  0.00     0.087 H 
ATOM     50  H35 DGX d         -17.518  33.370  30.175  0.00  0.00     0.044 H 
ATOM     51  H36 DGX d         -16.720  34.887  30.711  0.00  0.00     0.044 H 
ATOM     52  H34 DGX d         -15.970  33.753  32.805  0.00  0.00     0.129 H 
BRANCH  43  53
ATOM     53  C6X DGX d         -18.659  30.739  33.219  0.00  0.00    -0.050 C 
ATOM     54  H42 DGX d         -19.670  30.696  32.787  0.00  0.00     0.031 H 
ATOM     55  H43 DGX d         -18.700  30.449  34.279  0.00  0.00     0.031 H 
ATOM     56  H44 DGX d         -17.999  30.048  32.675  0.00  0.00     0.031 H 
ENDBRANCH  43  53
BRANCH  44  57
ATOM     57  O4X DGX d         -20.164  33.434  33.292  0.00  0.00    -0.390 OA
ATOM     58  H40 DGX d         -19.793  33.578  34.154  0.00  0.00     0.210 HD
ENDBRANCH  44  57
BRANCH  46  59
ATOM     59  O3X DGX d         -18.181  35.278  32.903  0.00  0.00    -0.393 OA
ATOM     60  H38 DGX d         -18.490  34.920  33.726  0.00  0.00     0.210 HD
ENDBRANCH  46  59
ENDBRANCH  40  41
ENDBRANCH   3  40
BRANCH  10  61
ATOM     61  C19 DGX d         -11.476  30.570  31.018  0.00  0.00    -0.068 C 
ATOM     62  H28 DGX d         -10.995  31.536  30.806  0.00  0.00     0.028 H 
ATOM     63  H29 DGX d         -10.800  29.752  30.728  0.00  0.00     0.028 H 
ATOM     64  H30 DGX d         -11.698  30.498  32.093  0.00  0.00     0.028 H 
ENDBRANCH  10  61
BRANCH  14  65
ATOM     65  O14 DGX d         -12.508  25.508  29.482  0.00  0.00    -0.389 OA
ATOM     66  H19 DGX d         -13.316  25.323  29.945  0.00  0.00     0.210 HD
ENDBRANCH  14  65
BRANCH  12  67
ATOM     67  O12 DGX d         -10.530  28.651  26.197  0.00  0.00    -0.395 OA
ATOM     68  H18 DGX d         -10.357  29.583  26.144  0.00  0.00     0.210 HD
ENDBRANCH  12  67
BRANCH  13  69
ATOM     69  C18 DGX d         -10.082  26.716  28.397  0.00  0.00    -0.063 C 
ATOM     70  H25 DGX d         -10.120  25.798  29.002  0.00  0.00     0.028 H 
ATOM     71  H26 DGX d          -9.828  27.569  29.043  0.00  0.00     0.028 H 
ATOM     72  H27 DGX d          -9.316  26.608  27.616  0.00  0.00     0.028 H 
ENDBRANCH  13  69
BRANCH  17  73
ATOM     73  C20 DGX d         -11.025  24.797  26.352  0.00  0.00    -0.045 A 
ATOM     74  C22 DGX d         -11.382  23.557  26.716  0.00  0.00    -0.006 A 
ATOM     75  C23 DGX d         -10.364  22.624  26.272  0.00  0.00     0.283 A 
ATOM     76  H33 DGX d         -12.289  23.293  27.258  0.00  0.00     0.093 H 
ATOM     77  O21 DGX d          -9.419  23.291  25.608  0.00  0.00    -0.314 OA
ATOM     78  O23 DGX d         -10.309  21.404  26.366  0.00  0.00    -0.260 OA
ATOM     79  C21 DGX d          -9.718  24.704  25.667  0.00  0.00     0.050 A 
ATOM     80  H31 DGX d          -8.944  25.238  26.237  0.00  0.00     0.082 H 
ATOM     81  H32 DGX d          -9.783  25.127  24.653  0.00  0.00     0.082 H 
ENDBRANCH  17  73
TORSDOF 10
ENDMDL
MODEL 4
REMARK VINA RESULT:      -5.9      1.469     10.317
REMARK  10 active torsions:
REMARK  status: ('A' for Active; 'I' for Inactive)
REMARK    1  A    between atoms: C3_3  and  O3_4 
REMARK    2  A    between atoms: O3_4  and  C1X_29 
REMARK    3  A    between atoms: C10_11  and  C19_22 
REMARK    4  A    between atoms: C12_13  and  O12_14 
REMARK    5  A    between atoms: C13_15  and  C18_21 
REMARK    6  A    between atoms: C14_16  and  O14_17 
REMARK    7  A    between atoms: C17_20  and  C20_23 
REMARK    8  A    between atoms: C3X_31  and  O3X_32 
REMARK    9  A    between atoms: C4X_33  and  O4X_34 
REMARK   10  A    between atoms: C5X_35  and  C6X_37 
ROOT
ATOM      1  C1  DGX d         -13.487  27.397  28.758  0.00  0.00    -0.055 C 
ATOM      2  C2  DGX d         -12.846  27.903  27.469  0.00  0.00    -0.040 C 
ATOM      3  C3  DGX d         -11.345  28.097  27.636  0.00  0.00     0.042 C 
ATOM      4  C4  DGX d         -11.090  29.143  28.708  0.00  0.00    -0.037 C 
ATOM      5  C5  DGX d         -11.660  28.666  30.039  0.00  0.00    -0.044 C 
ATOM      6  C6  DGX d         -11.295  29.599  31.186  0.00  0.00    -0.060 C 
ATOM      7  C7  DGX d         -12.066  30.906  31.107  0.00  0.00    -0.058 C 
ATOM      8  C8  DGX d         -13.569  30.630  31.054  0.00  0.00    -0.019 C 
ATOM      9  C9  DGX d         -13.961  29.655  29.938  0.00  0.00    -0.038 C 
ATOM     10  C10 DGX d         -13.180  28.308  29.960  0.00  0.00    -0.036 C 
ATOM     11  C11 DGX d         -15.462  29.421  29.974  0.00  0.00    -0.036 C 
ATOM     12  C12 DGX d         -16.181  30.741  29.787  0.00  0.00     0.046 C 
ATOM     13  C13 DGX d         -15.915  31.724  30.962  0.00  0.00     0.021 C 
ATOM     14  C14 DGX d         -14.369  31.963  31.068  0.00  0.00     0.072 C 
ATOM     15  C15 DGX d         -14.079  32.965  29.932  0.00  0.00    -0.035 C 
ATOM     16  C16 DGX d         -15.359  33.762  29.686  0.00  0.00    -0.054 C 
ATOM     17  C17 DGX d         -16.497  33.081  30.456  0.00  0.00    -0.018 C 
ATOM     18  H1  DGX d         -14.577  27.352  28.617  0.00  0.00     0.034 H 
ATOM     19  H2  DGX d         -13.103  26.389  28.971  0.00  0.00     0.034 H 
ATOM     20  H3  DGX d         -13.303  28.865  27.194  0.00  0.00     0.036 H 
ATOM     21  H4  DGX d         -13.026  27.170  26.668  0.00  0.00     0.036 H 
ATOM     22  H5  DGX d         -10.911  28.427  26.681  0.00  0.00     0.083 H 
ATOM     23  H6  DGX d         -11.576  30.087  28.420  0.00  0.00     0.037 H 
ATOM     24  H7  DGX d         -10.007  29.305  28.811  0.00  0.00     0.037 H 
ATOM     25  H8  DGX d         -11.149  27.717  30.259  0.00  0.00     0.041 H 
ATOM     26  H9  DGX d         -10.218  29.816  31.141  0.00  0.00     0.033 H 
ATOM     27  H10 DGX d         -11.529  29.102  32.139  0.00  0.00     0.033 H 
ATOM     28  H11 DGX d         -11.765  31.452  30.201  0.00  0.00     0.033 H 
ATOM     29  H12 DGX d         -11.840  31.516  31.994  0.00  0.00     0.033 H 
ATOM     30  H13 DGX d         -13.822  30.117  31.993  0.00  0.00     0.045 H 
ATOM     31  H14 DGX d         -13.721  30.144  28.983  0.00  0.00     0.042 H 
ATOM     32  H15 DGX d         -15.742  28.984  30.943  0.00  0.00     0.037 H 
ATOM     33  H16 DGX d         -15.745  28.732  29.165  0.00  0.00     0.037 H 
ATOM     34  H17 DGX d         -15.773  31.206  28.878  0.00  0.00     0.084 H 
ATOM     35  H20 DGX d         -13.791  32.424  29.019  0.00  0.00     0.037 H 
ATOM     36  H21 DGX d         -13.265  33.643  30.228  0.00  0.00     0.037 H 
ATOM     37  H22 DGX d         -15.591  33.774  28.611  0.00  0.00     0.034 H 
ATOM     38  H23 DGX d         -15.230  34.794  30.045  0.00  0.00     0.034 H 
ATOM     39  H24 DGX d         -17.266  32.829  29.711  0.00  0.00     0.048 H 
ENDROOT
BRANCH   3  40
ATOM     40  O3  DGX d         -10.721  26.871  28.052  0.00  0.00    -0.356 OA
BRANCH  40  41
ATOM     41  C1X DGX d         -10.698  25.783  27.123  0.00  0.00     0.134 C 
ATOM     42  O5X DGX d         -12.011  25.247  27.062  0.00  0.00    -0.354 OA
ATOM     43  C5X DGX d         -12.195  24.143  26.199  0.00  0.00     0.065 C 
ATOM     44  C4X DGX d         -11.206  23.013  26.530  0.00  0.00     0.085 C 
ATOM     45  H41 DGX d         -12.076  24.438  25.147  0.00  0.00     0.086 H 
ATOM     46  C3X DGX d          -9.762  23.503  26.689  0.00  0.00     0.067 C 
ATOM     47  H39 DGX d         -11.519  22.542  27.473  0.00  0.00     0.090 H 
ATOM     48  C2X DGX d          -9.757  24.693  27.639  0.00  0.00     0.007 C 
ATOM     49  H37 DGX d          -9.164  22.696  27.136  0.00  0.00     0.087 H 
ATOM     50  H35 DGX d         -10.091  24.365  28.635  0.00  0.00     0.044 H 
ATOM     51  H36 DGX d          -8.737  25.098  27.710  0.00  0.00     0.044 H 
ATOM     52  H34 DGX d         -10.373  26.129  26.131  0.00  0.00     0.129 H 
BRANCH  43  53
ATOM     53  C6X DGX d         -13.624  23.723  26.491  0.00  0.00    -0.050 C 
ATOM     54  H42 DGX d         -14.094  23.358  25.566  0.00  0.00     0.031 H 
ATOM     55  H43 DGX d         -14.188  24.585  26.875  0.00  0.00     0.031 H 
ATOM     56  H44 DGX d         -13.624  22.920  27.243  0.00  0.00     0.031 H 
ENDBRANCH  43  53
BRANCH  44  57
ATOM     57  O4X DGX d         -11.243  22.037  25.476  0.00  0.00    -0.390 OA
ATOM     58  H40 DGX d         -11.354  21.172  25.852  0.00  0.00     0.210 HD
ENDBRANCH  44  57
BRANCH  46  59
ATOM     59  O3X DGX d          -9.179  23.832  25.408  0.00  0.00    -0.393 OA
ATOM     60  H38 DGX d          -9.483  24.689  25.135  0.00  0.00     0.210 HD
ENDBRANCH  46  59
ENDBRANCH  40  41
ENDBRANCH   3  40
BRANCH  10  61
ATOM     61  C19 DGX d         -13.628  27.419  31.134  0.00  0.00    -0.068 C 
ATOM     62  H28 DGX d         -12.750  27.126  31.728  0.00  0.00     0.028 H 
ATOM     63  H29 DGX d         -14.124  26.519  30.743  0.00  0.00     0.028 H 
ATOM     64  H30 DGX d         -14.331  27.978  31.769  0.00  0.00     0.028 H 
ENDBRANCH  10  61
BRANCH  14  65
ATOM     65  O14 DGX d         -14.022  32.669  32.289  0.00  0.00    -0.389 OA
ATOM     66  H19 DGX d         -14.602  33.413  32.399  0.00  0.00     0.210 HD
ENDBRANCH  14  65
BRANCH  12  67
ATOM     67  O12 DGX d         -17.581  30.543  29.570  0.00  0.00    -0.395 OA
ATOM     68  H18 DGX d         -17.807  29.643  29.773  0.00  0.00     0.210 HD
ENDBRANCH  12  67
BRANCH  13  69
ATOM     69  C18 DGX d         -16.522  31.161  32.268  0.00  0.00    -0.063 C 
ATOM     70  H25 DGX d         -17.585  30.930  32.109  0.00  0.00     0.028 H 
ATOM     71  H26 DGX d         -16.425  31.909  33.070  0.00  0.00     0.028 H 
ATOM     72  H27 DGX d         -15.987  30.245  32.556  0.00  0.00     0.028 H 
ENDBRANCH  13  69
BRANCH  17  73
ATOM     73  C20 DGX d         -17.223  33.921  31.462  0.00  0.00    -0.045 A 
ATOM     74  C22 DGX d         -18.541  33.970  31.702  0.00  0.00    -0.006 A 
ATOM     75  C23 DGX d         -18.781  34.838  32.839  0.00  0.00     0.283 A 
ATOM     76  H33 DGX d         -19.307  33.444  31.134  0.00  0.00     0.093 H 
ATOM     77  O21 DGX d         -17.613  35.277  33.309  0.00  0.00    -0.314 OA
ATOM     78  O23 DGX d         -19.825  35.132  33.407  0.00  0.00    -0.260 OA
ATOM     79  C21 DGX d         -16.555  34.800  32.447  0.00  0.00     0.050 A 
ATOM     80  H31 DGX d         -16.061  35.642  31.941  0.00  0.00     0.082 H 
ATOM     81  H32 DGX d         -15.811  34.234  33.027  0.00  0.00     0.082 H 
ENDBRANCH  17  73
TORSDOF 10
ENDMDL
MODEL 5
REMARK VINA RESULT:      -5.3      1.535      2.252
REMARK  10 active torsions:
REMARK  status: ('A' for Active; 'I' for Inactive)
REMARK    1  A    between atoms: C3_3  and  O3_4 
REMARK    2  A    between atoms: O3_4  and  C1X_29 
REMARK    3  A    between atoms: C10_11  and  C19_22 
REMARK    4  A    between atoms: C12_13  and  O12_14 
REMARK    5  A    between atoms: C13_15  and  C18_21 
REMARK    6  A    between atoms: C14_16  and  O14_17 
REMARK    7  A    between atoms: C17_20  and  C20_23 
REMARK    8  A    between atoms: C3X_31  and  O3X_32 
REMARK    9  A    between atoms: C4X_33  and  O4X_34 
REMARK   10  A    between atoms: C5X_35  and  C6X_37 
ROOT
ATOM      1  C1  DGX d         -12.095  30.290  31.384  0.00  0.00    -0.055 C 
ATOM      2  C2  DGX d         -11.831  31.552  30.568  0.00  0.00    -0.040 C 
ATOM      3  C3  DGX d         -13.132  32.210  30.128  0.00  0.00     0.042 C 
ATOM      4  C4  DGX d         -13.905  31.250  29.239  0.00  0.00    -0.037 C 
ATOM      5  C5  DGX d         -14.249  29.988  30.021  0.00  0.00    -0.044 C 
ATOM      6  C6  DGX d         -15.161  29.057  29.233  0.00  0.00    -0.060 C 
ATOM      7  C7  DGX d         -14.415  28.378  28.096  0.00  0.00    -0.058 C 
ATOM      8  C8  DGX d         -13.184  27.648  28.633  0.00  0.00    -0.019 C 
ATOM      9  C9  DGX d         -12.271  28.549  29.472  0.00  0.00    -0.038 C 
ATOM     10  C10 DGX d         -12.993  29.289  30.637  0.00  0.00    -0.036 C 
ATOM     11  C11 DGX d         -11.091  27.740  29.982  0.00  0.00    -0.036 C 
ATOM     12  C12 DGX d         -10.324  27.174  28.806  0.00  0.00     0.046 C 
ATOM     13  C13 DGX d         -11.169  26.153  27.992  0.00  0.00     0.021 C 
ATOM     14  C14 DGX d         -12.468  26.874  27.491  0.00  0.00     0.072 C 
ATOM     15  C15 DGX d         -11.981  27.700  26.284  0.00  0.00    -0.035 C 
ATOM     16  C16 DGX d         -10.755  26.992  25.708  0.00  0.00    -0.054 C 
ATOM     17  C17 DGX d         -10.323  25.908  26.702  0.00  0.00    -0.018 C 
ATOM     18  H1  DGX d         -11.133  29.805  31.607  0.00  0.00     0.034 H 
ATOM     19  H2  DGX d         -12.589  30.575  32.324  0.00  0.00     0.034 H 
ATOM     20  H3  DGX d         -11.245  31.286  29.675  0.00  0.00     0.036 H 
ATOM     21  H4  DGX d         -11.260  32.263  31.182  0.00  0.00     0.036 H 
ATOM     22  H5  DGX d         -12.906  33.133  29.575  0.00  0.00     0.083 H 
ATOM     23  H6  DGX d         -13.289  30.984  28.367  0.00  0.00     0.037 H 
ATOM     24  H7  DGX d         -14.832  31.734  28.898  0.00  0.00     0.037 H 
ATOM     25  H8  DGX d         -14.846  30.324  30.881  0.00  0.00     0.041 H 
ATOM     26  H9  DGX d         -15.994  29.641  28.816  0.00  0.00     0.033 H 
ATOM     27  H10 DGX d         -15.557  28.286  29.911  0.00  0.00     0.033 H 
ATOM     28  H11 DGX d         -14.098  29.137  27.366  0.00  0.00     0.033 H 
ATOM     29  H12 DGX d         -15.082  27.653  27.605  0.00  0.00     0.033 H 
ATOM     30  H13 DGX d         -13.558  26.882  29.328  0.00  0.00     0.045 H 
ATOM     31  H14 DGX d         -11.878  29.326  28.800  0.00  0.00     0.042 H 
ATOM     32  H15 DGX d         -11.456  26.917  30.614  0.00  0.00     0.037 H 
ATOM     33  H16 DGX d         -10.428  28.390  30.573  0.00  0.00     0.037 H 
ATOM     34  H17 DGX d         -10.096  28.013  28.133  0.00  0.00     0.084 H 
ATOM     35  H20 DGX d         -11.711  28.716  26.609  0.00  0.00     0.037 H 
ATOM     36  H21 DGX d         -12.773  27.757  25.523  0.00  0.00     0.037 H 
ATOM     37  H22 DGX d          -9.939  27.715  25.567  0.00  0.00     0.034 H 
ATOM     38  H23 DGX d         -11.010  26.533  24.741  0.00  0.00     0.034 H 
ATOM     39  H24 DGX d          -9.280  26.132  26.970  0.00  0.00     0.048 H 
ENDROOT
BRANCH   3  40
ATOM     40  O3  DGX d         -13.951  32.519  31.269  0.00  0.00    -0.356 OA
BRANCH  40  41
ATOM     41  C1X DGX d         -15.367  32.366  31.136  0.00  0.00     0.134 C 
ATOM     42  O5X DGX d         -15.914  33.652  30.884  0.00  0.00    -0.354 OA
ATOM     43  C5X DGX d         -17.317  33.715  30.735  0.00  0.00     0.065 C 
ATOM     44  C4X DGX d         -18.030  33.094  31.948  0.00  0.00     0.085 C 
ATOM     45  H41 DGX d         -17.641  33.203  29.817  0.00  0.00     0.086 H 
ATOM     46  C3X DGX d         -17.462  31.728  32.347  0.00  0.00     0.067 C 
ATOM     47  H39 DGX d         -17.922  33.779  32.802  0.00  0.00     0.090 H 
ATOM     48  C2X DGX d         -15.947  31.846  32.453  0.00  0.00     0.007 C 
ATOM     49  H37 DGX d         -17.861  31.457  33.335  0.00  0.00     0.087 H 
ATOM     50  H35 DGX d         -15.693  32.543  33.264  0.00  0.00     0.044 H 
ATOM     51  H36 DGX d         -15.520  30.856  32.672  0.00  0.00     0.044 H 
ATOM     52  H34 DGX d         -15.605  31.674  30.315  0.00  0.00     0.129 H 
BRANCH  43  53
ATOM     53  C6X DGX d         -17.579  35.207  30.650  0.00  0.00    -0.050 C 
ATOM     54  H42 DGX d         -16.884  35.660  29.928  0.00  0.00     0.031 H 
ATOM     55  H43 DGX d         -17.430  35.663  31.639  0.00  0.00     0.031 H 
ATOM     56  H44 DGX d         -18.614  35.379  30.319  0.00  0.00     0.031 H 
ENDBRANCH  43  53
BRANCH  44  57
ATOM     57  O4X DGX d         -19.424  32.937  31.639  0.00  0.00    -0.390 OA
ATOM     58  H40 DGX d         -19.720  32.086  31.942  0.00  0.00     0.210 HD
ENDBRANCH  44  57
BRANCH  46  59
ATOM     59  O3X DGX d         -17.860  30.703  31.409  0.00  0.00    -0.393 OA
ATOM     60  H38 DGX d         -17.553  30.935  30.541  0.00  0.00     0.210 HD
ENDBRANCH  46  59
ENDBRANCH  40  41
ENDBRANCH   3  40
BRANCH  10  61
ATOM     61  C19 DGX d         -13.368  28.317  31.770  0.00  0.00    -0.068 C 
ATOM     62  H28 DGX d         -13.503  28.879  32.706  0.00  0.00     0.028 H 
ATOM     63  H29 DGX d         -12.564  27.578  31.900  0.00  0.00     0.028 H 
ATOM     64  H30 DGX d         -14.304  27.798  31.514  0.00  0.00     0.028 H 
ENDBRANCH  10  61
BRANCH  14  65
ATOM     65  O14 DGX d         -13.422  25.928  26.939  0.00  0.00    -0.389 OA
ATOM     66  H19 DGX d         -13.012  25.075  26.863  0.00  0.00     0.210 HD
ENDBRANCH  14  65
BRANCH  12  67
ATOM     67  O12 DGX d          -9.075  26.613  29.222  0.00  0.00    -0.395 OA
ATOM     68  H18 DGX d          -8.548  27.288  29.634  0.00  0.00     0.210 HD
ENDBRANCH  12  67
BRANCH  13  69
ATOM     69  C18 DGX d         -11.473  24.910  28.860  0.00  0.00    -0.063 C 
ATOM     70  H25 DGX d         -11.527  24.018  28.218  0.00  0.00     0.028 H 
ATOM     71  H26 DGX d         -12.435  25.049  29.375  0.00  0.00     0.028 H 
ATOM     72  H27 DGX d         -10.675  24.778  29.604  0.00  0.00     0.028 H 
ENDBRANCH  13  69
BRANCH  17  73
ATOM     73  C20 DGX d         -10.276  24.503  26.185  0.00  0.00    -0.045 A 
ATOM     74  C22 DGX d          -9.198  23.735  25.975  0.00  0.00    -0.006 A 
ATOM     75  C23 DGX d          -9.633  22.410  25.576  0.00  0.00     0.283 A 
ATOM     76  H33 DGX d          -8.162  24.054  26.086  0.00  0.00     0.093 H 
ATOM     77  O21 DGX d         -10.965  22.366  25.584  0.00  0.00    -0.314 OA
ATOM     78  O23 DGX d          -8.983  21.404  25.322  0.00  0.00    -0.260 OA
ATOM     79  C21 DGX d         -11.473  23.684  25.894  0.00  0.00     0.050 A 
ATOM     80  H31 DGX d         -12.023  24.097  25.036  0.00  0.00     0.082 H 
ATOM     81  H32 DGX d         -12.136  23.646  26.771  0.00  0.00     0.082 H 
ENDBRANCH  17  73
TORSDOF 10
ENDMDL
