MODEL 1
REMARK VINA RESULT:      -6.0      0.000      0.000
REMARK  4 active torsions:
REMARK  status: ('A' for Active; 'I' for Inactive)
REMARK    1  A    between atoms: C4_4  and  C6_6 
REMARK    2  A    between atoms: C5_5  and  O8_8 
REMARK    3  A    between atoms: O8_8  and  C9_9 
REMARK    4  A    between atoms: C9_9  and  C10_10 
ROOT
ATOM      1  C1  MOL d          46.863  13.473   3.170  0.00  0.00    -0.024 A 
ATOM      2  C2  MOL d          45.641  13.853   2.571  0.00  0.00     0.052 A 
ATOM      3  S3  MOL d          47.243  14.590   4.391  0.00  0.00    -0.091 SA
ATOM      4  C4  MOL d          45.868  15.572   4.166  0.00  0.00     0.116 A 
ATOM      5  C5  MOL d          45.068  15.034   3.121  0.00  0.00     0.111 A 
ATOM      6 BR19 MOL d          44.861  12.867   1.173  0.00  0.00    -0.048 Br
ATOM      7  H1  MOL d          47.461  12.605   2.896  0.00  0.00     0.097 H 
ENDROOT
BRANCH   5   8
ATOM      8  O8  MOL d          43.816  15.553   2.615  0.00  0.00    -0.338 OA
BRANCH   8   9
ATOM      9  C9  MOL d          43.929  16.857   2.005  0.00  0.00     0.106 C 
ATOM     10  H2  MOL d          44.785  17.386   2.446  0.00  0.00     0.091 H 
ATOM     11  H3  MOL d          43.007  17.425   2.198  0.00  0.00     0.091 H 
BRANCH   9  12
ATOM     12  C10 MOL d          44.138  16.745   0.493  0.00  0.00     0.198 C 
ATOM     13  O13 MOL d          43.388  15.806  -0.105  0.00  0.00    -0.646 OA
ATOM     14  O15 MOL d          44.906  17.424  -0.113  0.00  0.00    -0.646 OA
ENDBRANCH   9  12
ENDBRANCH   8   9
ENDBRANCH   5   8
BRANCH   4  15
ATOM     15  C6  MOL d          45.644  16.716   4.941  0.00  0.00     0.219 C 
ATOM     16  O7  MOL d          46.753  17.257   5.478  0.00  0.00    -0.643 OA
ATOM     17  O14 MOL d          44.548  17.192   5.121  0.00  0.00    -0.643 OA
ENDBRANCH   4  15
TORSDOF 4
ENDMDL
MODEL 2
REMARK VINA RESULT:      -5.3      2.435      3.799
REMARK  4 active torsions:
REMARK  status: ('A' for Active; 'I' for Inactive)
REMARK    1  A    between atoms: C4_4  and  C6_6 
REMARK    2  A    between atoms: C5_5  and  O8_8 
REMARK    3  A    between atoms: O8_8  and  C9_9 
REMARK    4  A    between atoms: C9_9  and  C10_10 
ROOT
ATOM      1  C1  MOL d          44.243  15.314  -0.107  0.00  0.00    -0.024 A 
ATOM      2  C2  MOL d          44.704  14.218   0.656  0.00  0.00     0.052 A 
ATOM      3  S3  MOL d          44.157  16.680   0.899  0.00  0.00    -0.091 SA
ATOM      4  C4  MOL d          44.696  15.894   2.312  0.00  0.00     0.116 A 
ATOM      5  C5  MOL d          44.964  14.528   2.020  0.00  0.00     0.111 A 
ATOM      6 BR19 MOL d          44.948  12.510  -0.092  0.00  0.00    -0.048 Br
ATOM      7  H1  MOL d          43.986  15.288  -1.164  0.00  0.00     0.097 H 
ENDROOT
BRANCH   5   8
ATOM      8  O8  MOL d          45.443  13.512   2.932  0.00  0.00    -0.338 OA
BRANCH   8   9
ATOM      9  C9  MOL d          46.871  13.543   3.141  0.00  0.00     0.106 C 
ATOM     10  H2  MOL d          47.361  13.891   2.221  0.00  0.00     0.091 H 
ATOM     11  H3  MOL d          47.220  12.528   3.381  0.00  0.00     0.091 H 
BRANCH   9  12
ATOM     12  C10 MOL d          47.243  14.483   4.290  0.00  0.00     0.198 C 
ATOM     13  O13 MOL d          46.584  14.250   5.436  0.00  0.00    -0.646 OA
ATOM     14  O15 MOL d          48.044  15.358   4.186  0.00  0.00    -0.646 OA
ENDBRANCH   9  12
ENDBRANCH   8   9
ENDBRANCH   5   8
BRANCH   4  15
ATOM     15  C6  MOL d          44.823  16.571   3.529  0.00  0.00     0.219 C 
ATOM     16  O7  MOL d          45.684  17.607   3.509  0.00  0.00    -0.643 OA
ATOM     17  O14 MOL d          44.216  16.264   4.528  0.00  0.00    -0.643 OA
ENDBRANCH   4  15
TORSDOF 4
ENDMDL
MODEL 3
REMARK VINA RESULT:      -4.5      2.770      4.437
REMARK  4 active torsions:
REMARK  status: ('A' for Active; 'I' for Inactive)
REMARK    1  A    between atoms: C4_4  and  C6_6 
REMARK    2  A    between atoms: C5_5  and  O8_8 
REMARK    3  A    between atoms: O8_8  and  C9_9 
REMARK    4  A    between atoms: C9_9  and  C10_10 
ROOT
ATOM      1  C1  MOL d          44.161  14.996   0.735  0.00  0.00    -0.024 A 
ATOM      2  C2  MOL d          44.425  15.914   1.777  0.00  0.00     0.052 A 
ATOM      3  S3  MOL d          44.997  13.553   1.054  0.00  0.00    -0.091 SA
ATOM      4  C4  MOL d          45.709  14.080   2.511  0.00  0.00     0.116 A 
ATOM      5  C5  MOL d          45.295  15.413   2.785  0.00  0.00     0.111 A 
ATOM      6 BR19 MOL d          43.677  17.639   1.806  0.00  0.00    -0.048 Br
ATOM      7  H1  MOL d          43.525  15.183  -0.129  0.00  0.00     0.097 H 
ENDROOT
BRANCH   5   8
ATOM      8  O8  MOL d          45.662  16.231   3.920  0.00  0.00    -0.338 OA
BRANCH   8   9
ATOM      9  C9  MOL d          46.678  17.214   3.627  0.00  0.00     0.106 C 
ATOM     10  H2  MOL d          46.310  18.208   3.919  0.00  0.00     0.091 H 
ATOM     11  H3  MOL d          46.886  17.203   2.547  0.00  0.00     0.091 H 
BRANCH   9  12
ATOM     12  C10 MOL d          47.972  16.917   4.387  0.00  0.00     0.198 C 
ATOM     13  O13 MOL d          48.388  17.910   5.189  0.00  0.00    -0.646 OA
ATOM     14  O15 MOL d          48.576  15.896   4.277  0.00  0.00    -0.646 OA
ENDBRANCH   9  12
ENDBRANCH   8   9
ENDBRANCH   5   8
BRANCH   4  15
ATOM     15  C6  MOL d          46.558  13.255   3.257  0.00  0.00     0.219 C 
ATOM     16  O7  MOL d          47.278  12.383   2.527  0.00  0.00    -0.643 OA
ATOM     17  O14 MOL d          46.650  13.310   4.461  0.00  0.00    -0.643 OA
ENDBRANCH   4  15
TORSDOF 4
ENDMDL
MODEL 4
REMARK VINA RESULT:      -3.3      2.597      3.284
REMARK  4 active torsions:
REMARK  status: ('A' for Active; 'I' for Inactive)
REMARK    1  A    between atoms: C4_4  and  C6_6 
REMARK    2  A    between atoms: C5_5  and  O8_8 
REMARK    3  A    between atoms: O8_8  and  C9_9 
REMARK    4  A    between atoms: C9_9  and  C10_10 
ROOT
ATOM      1  C1  MOL d          46.417  17.380   2.963  0.00  0.00    -0.024 A 
ATOM      2  C2  MOL d          45.237  16.702   2.586  0.00  0.00     0.052 A 
ATOM      3  S3  MOL d          47.446  16.286   3.755  0.00  0.00    -0.091 SA
ATOM      4  C4  MOL d          46.403  14.943   3.634  0.00  0.00     0.116 A 
ATOM      5  C5  MOL d          45.213  15.328   2.956  0.00  0.00     0.111 A 
ATOM      6 BR19 MOL d          43.836  17.561   1.671  0.00  0.00    -0.048 Br
ATOM      7  H1  MOL d          46.632  18.431   2.776  0.00  0.00     0.097 H 
ENDROOT
BRANCH   5   8
ATOM      8  O8  MOL d          44.073  14.496   2.640  0.00  0.00    -0.338 OA
BRANCH   8   9
ATOM      9  C9  MOL d          44.406  13.317   1.876  0.00  0.00     0.106 C 
ATOM     10  H2  MOL d          43.517  12.674   1.803  0.00  0.00     0.091 H 
ATOM     11  H3  MOL d          45.211  12.772   2.390  0.00  0.00     0.091 H 
BRANCH   9  12
ATOM     12  C10 MOL d          44.874  13.683   0.466  0.00  0.00     0.198 C 
ATOM     13  O13 MOL d          45.702  12.790  -0.097  0.00  0.00    -0.646 OA
ATOM     14  O15 MOL d          44.543  14.681  -0.094  0.00  0.00    -0.646 OA
ENDBRANCH   9  12
ENDBRANCH   8   9
ENDBRANCH   5   8
BRANCH   4  15
ATOM     15  C6  MOL d          46.749  13.691   4.153  0.00  0.00     0.219 C 
ATOM     16  O7  MOL d          46.613  13.579   5.489  0.00  0.00    -0.643 OA
ATOM     17  O14 MOL d          47.139  12.773   3.472  0.00  0.00    -0.643 OA
ENDBRANCH   4  15
TORSDOF 4
ENDMDL
MODEL 5
REMARK VINA RESULT:      -3.3      2.050      3.978
REMARK  4 active torsions:
REMARK  status: ('A' for Active; 'I' for Inactive)
REMARK    1  A    between atoms: C4_4  and  C6_6 
REMARK    2  A    between atoms: C5_5  and  O8_8 
REMARK    3  A    between atoms: O8_8  and  C9_9 
REMARK    4  A    between atoms: C9_9  and  C10_10 
ROOT
ATOM      1  C1  MOL d          45.723  13.260   2.285  0.00  0.00    -0.024 A 
ATOM      2  C2  MOL d          46.389  14.345   2.896  0.00  0.00     0.052 A 
ATOM      3  S3  MOL d          44.493  13.867   1.284  0.00  0.00    -0.091 SA
ATOM      4  C4  MOL d          44.787  15.512   1.621  0.00  0.00     0.116 A 
ATOM      5  C5  MOL d          45.874  15.621   2.532  0.00  0.00     0.111 A 
ATOM      6 BR19 MOL d          47.829  14.099   4.081  0.00  0.00    -0.048 Br
ATOM      7  H1  MOL d          45.959  12.207   2.432  0.00  0.00     0.097 H 
ENDROOT
BRANCH   5   8
ATOM      8  O8  MOL d          46.450  16.833   3.073  0.00  0.00    -0.338 OA
BRANCH   8   9
ATOM      9  C9  MOL d          46.422  16.900   4.515  0.00  0.00     0.106 C 
ATOM     10  H2  MOL d          46.671  17.923   4.832  0.00  0.00     0.091 H 
ATOM     11  H3  MOL d          47.165  16.198   4.921  0.00  0.00     0.091 H 
BRANCH   9  12
ATOM     12  C10 MOL d          45.040  16.532   5.060  0.00  0.00     0.198 C 
ATOM     13  O13 MOL d          44.936  15.273   5.511  0.00  0.00    -0.646 OA
ATOM     14  O15 MOL d          44.122  17.291   5.081  0.00  0.00    -0.646 OA
ENDBRANCH   9  12
ENDBRANCH   8   9
ENDBRANCH   5   8
BRANCH   4  15
ATOM     15  C6  MOL d          44.024  16.532   1.042  0.00  0.00     0.219 C 
ATOM     16  O7  MOL d          43.877  17.628   1.810  0.00  0.00    -0.643 OA
ATOM     17  O14 MOL d          43.531  16.451  -0.058  0.00  0.00    -0.643 OA
ENDBRANCH   4  15
TORSDOF 4
ENDMDL
