MODEL 1
REMARK VINA RESULT:     -10.1      0.000      0.000
REMARK  7 active torsions:
REMARK  status: ('A' for Active; 'I' for Inactive)
REMARK    1  A    between atoms: N12_26  and  C2_2 
REMARK       I    between atoms: C13_5  and  N12_26 
REMARK       I    between atoms: N14_27  and  C13_5 
REMARK    2  A    between atoms: C16_6  and  N14_27 
REMARK    3  A    between atoms: O22_12  and  C19_9 
REMARK    4  A    between atoms: C23_29  and  O22_12 
REMARK    5  A    between atoms: C29_31  and  C27_15 
REMARK    6  A    between atoms: N30_17  and  C31_18 
REMARK       I    between atoms: N30_17  and  C29_31 
REMARK    7  A    between atoms: C6_20  and  C7_21 
ROOT
ATOM      1  C16 BAX d         -21.283  -3.470  19.502  0.00  0.00     0.036 A 
ATOM      2  C17 BAX d         -20.451  -2.427  19.903  0.00  0.00    -0.054 A 
ATOM      3  C18 BAX d         -20.930  -1.385  20.704  0.00  0.00    -0.048 A 
ATOM      4  C19 BAX d         -22.289  -1.372  21.051  0.00  0.00     0.076 A 
ATOM      5  C20 BAX d         -23.126  -2.401  20.655  0.00  0.00    -0.048 A 
ATOM      6  C21 BAX d         -22.633  -3.446  19.885  0.00  0.00    -0.054 A 
ATOM      7  H4  BAX d         -19.414  -2.423  19.589  0.00  0.00     0.087 H 
ATOM      8  H5  BAX d         -20.264  -0.602  21.048  0.00  0.00     0.087 H 
ATOM      9  H6  BAX d         -24.170  -2.392  20.948  0.00  0.00     0.087 H 
ATOM     10  H7  BAX d         -23.295  -4.248  19.577  0.00  0.00     0.087 H 
ENDROOT
BRANCH   1  11
ATOM     11  N14 BAX d         -20.831  -4.487  18.750  0.00  0.00    -0.309 N 
ATOM     12  C13 BAX d         -19.549  -4.878  18.600  0.00  0.00     0.325 C 
ATOM     13  N12 BAX d         -19.364  -5.942  17.789  0.00  0.00    -0.309 N 
ATOM     14  O15 BAX d         -18.614  -4.308  19.189  0.00  0.00    -0.247 OA
ATOM     15  H15 BAX d         -20.177  -6.352  17.376  0.00  0.00     0.170 HD
ATOM     16  H16 BAX d         -21.519  -5.010  18.246  0.00  0.00     0.170 HD
BRANCH  13  17
ATOM     17  C2  BAX d         -18.155  -6.504  17.489  0.00  0.00     0.037 A 
ATOM     18  C1  BAX d         -17.366  -7.138  18.465  0.00  0.00    -0.041 A 
ATOM     19  C6  BAX d         -16.121  -7.701  18.137  0.00  0.00     0.071 A 
ATOM     20  H1  BAX d         -17.723  -7.193  19.487  0.00  0.00     0.088 H 
ATOM     21  C5  BAX d         -15.701  -7.643  16.813  0.00  0.00     0.049 A 
ATOM     22  C4  BAX d         -16.492  -7.040  15.810  0.00  0.00    -0.059 A 
ATOM     23 CL11 BAX d         -14.194  -8.341  16.402  0.00  0.00    -0.083 Cl
ATOM     24  C3  BAX d         -17.709  -6.473  16.167  0.00  0.00    -0.055 A 
ATOM     25  H3  BAX d         -16.155  -7.020  14.780  0.00  0.00     0.086 H 
ATOM     26  H2  BAX d         -18.321  -6.001  15.408  0.00  0.00     0.087 H 
BRANCH  19  27
ATOM     27  C7  BAX d         -15.262  -8.394  19.232  0.00  0.00     0.419 C 
ATOM     28  F8  BAX d         -16.082  -8.949  20.069  0.00  0.00    -0.166 F 
ATOM     29  F9  BAX d         -14.468  -9.338  18.727  0.00  0.00    -0.166 F 
ATOM     30  F10 BAX d         -14.533  -7.580  19.969  0.00  0.00    -0.166 F 
ENDBRANCH  19  27
ENDBRANCH  13  17
ENDBRANCH   1  11
BRANCH   4  31
ATOM     31  O22 BAX d         -22.830  -0.399  21.863  0.00  0.00    -0.311 OA
BRANCH  31  32
ATOM     32  C23 BAX d         -22.479   0.883  21.773  0.00  0.00     0.079 A 
ATOM     33  C24 BAX d         -22.074   1.608  22.885  0.00  0.00    -0.033 A 
ATOM     34  C25 BAX d         -21.695   2.940  22.696  0.00  0.00     0.006 A 
ATOM     35  H8  BAX d         -22.052   1.155  23.870  0.00  0.00     0.090 H 
ATOM     36  N26 BAX d         -21.727   3.473  21.478  0.00  0.00    -0.255 NA
ATOM     37  H9  BAX d         -21.376   3.538  23.542  0.00  0.00     0.114 H 
ATOM     38  C27 BAX d         -22.097   2.787  20.379  0.00  0.00     0.126 A 
ATOM     39  C28 BAX d         -22.476   1.452  20.509  0.00  0.00    -0.017 A 
ATOM     40  H10 BAX d         -22.763   0.870  19.640  0.00  0.00     0.091 H 
BRANCH  38  41
ATOM     41  C29 BAX d         -22.100   3.472  19.000  0.00  0.00     0.269 C 
ATOM     42  N30 BAX d         -22.124   2.645  17.952  0.00  0.00    -0.360 N 
ATOM     43  H11 BAX d         -22.141   1.653  18.079  0.00  0.00     0.162 HD
ATOM     44  O32 BAX d         -22.086   4.696  18.911  0.00  0.00    -0.266 OA
BRANCH  42  45
ATOM     45  C31 BAX d         -22.124   3.234  16.603  0.00  0.00    -0.018 C 
ATOM     46  H12 BAX d         -21.299   2.803  16.015  0.00  0.00     0.056 H 
ATOM     47  H13 BAX d         -21.990   4.323  16.678  0.00  0.00     0.056 H 
ATOM     48  H14 BAX d         -23.081   3.015  16.107  0.00  0.00     0.056 H 
ENDBRANCH  42  45
ENDBRANCH  38  41
ENDBRANCH  31  32
ENDBRANCH   4  31
TORSDOF 7
ENDMDL
MODEL 2
REMARK VINA RESULT:      -9.2      1.746      2.183
REMARK  7 active torsions:
REMARK  status: ('A' for Active; 'I' for Inactive)
REMARK    1  A    between atoms: N12_26  and  C2_2 
REMARK       I    between atoms: C13_5  and  N12_26 
REMARK       I    between atoms: N14_27  and  C13_5 
REMARK    2  A    between atoms: C16_6  and  N14_27 
REMARK    3  A    between atoms: O22_12  and  C19_9 
REMARK    4  A    between atoms: C23_29  and  O22_12 
REMARK    5  A    between atoms: C29_31  and  C27_15 
REMARK    6  A    between atoms: N30_17  and  C31_18 
REMARK       I    between atoms: N30_17  and  C29_31 
REMARK    7  A    between atoms: C6_20  and  C7_21 
ROOT
ATOM      1  C16 BAX d         -21.730  -3.141  19.255  0.00  0.00     0.036 A 
ATOM      2  C17 BAX d         -21.569  -1.863  18.725  0.00  0.00    -0.054 A 
ATOM      3  C18 BAX d         -22.123  -0.743  19.354  0.00  0.00    -0.048 A 
ATOM      4  C19 BAX d         -22.902  -0.932  20.504  0.00  0.00     0.076 A 
ATOM      5  C20 BAX d         -23.072  -2.199  21.038  0.00  0.00    -0.048 A 
ATOM      6  C21 BAX d         -22.493  -3.300  20.422  0.00  0.00    -0.054 A 
ATOM      7  H4  BAX d         -21.004  -1.734  17.809  0.00  0.00     0.087 H 
ATOM      8  H5  BAX d         -21.954   0.253  18.958  0.00  0.00     0.087 H 
ATOM      9  H6  BAX d         -23.659  -2.330  21.941  0.00  0.00     0.087 H 
ATOM     10  H7  BAX d         -22.632  -4.289  20.845  0.00  0.00     0.087 H 
ENDROOT
BRANCH   1  11
ATOM     11  N14 BAX d         -21.186  -4.222  18.672  0.00  0.00    -0.309 N 
ATOM     12  C13 BAX d         -19.885  -4.578  18.674  0.00  0.00     0.325 C 
ATOM     13  N12 BAX d         -19.602  -5.724  18.019  0.00  0.00    -0.309 N 
ATOM     14  O15 BAX d         -19.020  -3.904  19.261  0.00  0.00    -0.247 OA
ATOM     15  H15 BAX d         -20.365  -6.213  17.596  0.00  0.00     0.170 HD
ATOM     16  H16 BAX d         -21.814  -4.829  18.184  0.00  0.00     0.170 HD
BRANCH  13  17
ATOM     17  C2  BAX d         -18.356  -6.269  17.887  0.00  0.00     0.037 A 
ATOM     18  C1  BAX d         -17.790  -6.538  16.628  0.00  0.00    -0.041 A 
ATOM     19  C6  BAX d         -16.511  -7.108  16.515  0.00  0.00     0.071 A 
ATOM     20  H1  BAX d         -18.350  -6.301  15.730  0.00  0.00     0.088 H 
ATOM     21  C5  BAX d         -15.803  -7.374  17.681  0.00  0.00     0.049 A 
ATOM     22  C4  BAX d         -16.339  -7.082  18.956  0.00  0.00    -0.059 A 
ATOM     23 CL11 BAX d         -14.238  -8.053  17.552  0.00  0.00    -0.083 Cl
ATOM     24  C3  BAX d         -17.614  -6.537  19.038  0.00  0.00    -0.055 A 
ATOM     25  H3  BAX d         -15.765  -7.281  19.853  0.00  0.00     0.086 H 
ATOM     26  H2  BAX d         -18.038  -6.317  20.010  0.00  0.00     0.087 H 
BRANCH  19  27
ATOM     27  C7  BAX d         -15.905  -7.400  15.113  0.00  0.00     0.419 C 
ATOM     28  F8  BAX d         -15.752  -8.685  15.021  0.00  0.00    -0.166 F 
ATOM     29  F9  BAX d         -16.704  -6.997  14.125  0.00  0.00    -0.166 F 
ATOM     30  F10 BAX d         -14.700  -6.905  14.910  0.00  0.00    -0.166 F 
ENDBRANCH  19  27
ENDBRANCH  13  17
ENDBRANCH   1  11
BRANCH   4  31
ATOM     31  O22 BAX d         -23.455   0.121  21.199  0.00  0.00    -0.311 OA
BRANCH  31  32
ATOM     32  C23 BAX d         -22.770   1.228  21.482  0.00  0.00     0.079 A 
ATOM     33  C24 BAX d         -22.296   1.485  22.760  0.00  0.00    -0.033 A 
ATOM     34  C25 BAX d         -21.562   2.657  22.963  0.00  0.00     0.006 A 
ATOM     35  H8  BAX d         -22.489   0.798  23.577  0.00  0.00     0.090 H 
ATOM     36  N26 BAX d         -21.335   3.483  21.946  0.00  0.00    -0.255 NA
ATOM     37  H9  BAX d         -21.178   2.893  23.949  0.00  0.00     0.114 H 
ATOM     38  C27 BAX d         -21.767   3.249  20.691  0.00  0.00     0.126 A 
ATOM     39  C28 BAX d         -22.497   2.090  20.431  0.00  0.00    -0.017 A 
ATOM     40  H10 BAX d         -22.843   1.867  19.428  0.00  0.00     0.091 H 
BRANCH  38  41
ATOM     41  C29 BAX d         -21.458   4.250  19.563  0.00  0.00     0.269 C 
ATOM     42  N30 BAX d         -22.233   4.148  18.481  0.00  0.00    -0.360 N 
ATOM     43  H11 BAX d         -22.960   3.463  18.432  0.00  0.00     0.162 HD
ATOM     44  O32 BAX d         -20.555   5.073  19.689  0.00  0.00    -0.266 OA
BRANCH  42  45
ATOM     45  C31 BAX d         -21.988   5.073  17.362  0.00  0.00    -0.018 C 
ATOM     46  H12 BAX d         -22.775   5.842  17.344  0.00  0.00     0.056 H 
ATOM     47  H13 BAX d         -22.000   4.514  16.415  0.00  0.00     0.056 H 
ATOM     48  H14 BAX d         -21.007   5.553  17.491  0.00  0.00     0.056 H 
ENDBRANCH  42  45
ENDBRANCH  38  41
ENDBRANCH  31  32
ENDBRANCH   4  31
TORSDOF 7
ENDMDL
MODEL 3
REMARK VINA RESULT:      -7.4      2.161      3.403
REMARK  7 active torsions:
REMARK  status: ('A' for Active; 'I' for Inactive)
REMARK    1  A    between atoms: N12_26  and  C2_2 
REMARK       I    between atoms: C13_5  and  N12_26 
REMARK       I    between atoms: N14_27  and  C13_5 
REMARK    2  A    between atoms: C16_6  and  N14_27 
REMARK    3  A    between atoms: O22_12  and  C19_9 
REMARK    4  A    between atoms: C23_29  and  O22_12 
REMARK    5  A    between atoms: C29_31  and  C27_15 
REMARK    6  A    between atoms: N30_17  and  C31_18 
REMARK       I    between atoms: N30_17  and  C29_31 
REMARK    7  A    between atoms: C6_20  and  C7_21 
ROOT
ATOM      1  C16 BAX d         -21.628  -3.081  19.285  0.00  0.00     0.036 A 
ATOM      2  C17 BAX d         -21.272  -2.026  18.449  0.00  0.00    -0.054 A 
ATOM      3  C18 BAX d         -21.849  -0.760  18.595  0.00  0.00    -0.048 A 
ATOM      4  C19 BAX d         -22.845  -0.581  19.566  0.00  0.00     0.076 A 
ATOM      5  C20 BAX d         -23.209  -1.624  20.401  0.00  0.00    -0.048 A 
ATOM      6  C21 BAX d         -22.609  -2.869  20.266  0.00  0.00    -0.054 A 
ATOM      7  H4  BAX d         -20.535  -2.188  17.671  0.00  0.00     0.087 H 
ATOM      8  H5  BAX d         -21.532   0.067  17.970  0.00  0.00     0.087 H 
ATOM      9  H6  BAX d         -23.965  -1.468  21.163  0.00  0.00     0.087 H 
ATOM     10  H7  BAX d         -22.900  -3.682  20.922  0.00  0.00     0.087 H 
ENDROOT
BRANCH   1  11
ATOM     11  N14 BAX d         -21.067  -4.297  19.168  0.00  0.00    -0.309 N 
ATOM     12  C13 BAX d         -19.830  -4.579  18.711  0.00  0.00     0.325 C 
ATOM     13  N12 BAX d         -19.506  -5.890  18.705  0.00  0.00    -0.309 N 
ATOM     14  O15 BAX d         -19.043  -3.688  18.347  0.00  0.00    -0.247 OA
ATOM     15  H15 BAX d         -20.193  -6.535  19.038  0.00  0.00     0.170 HD
ATOM     16  H16 BAX d         -21.628  -5.076  19.450  0.00  0.00     0.170 HD
BRANCH  13  17
ATOM     17  C2  BAX d         -18.314  -6.405  18.280  0.00  0.00     0.037 A 
ATOM     18  C1  BAX d         -18.031  -6.602  16.917  0.00  0.00    -0.041 A 
ATOM     19  C6  BAX d         -16.802  -7.142  16.502  0.00  0.00     0.071 A 
ATOM     20  H1  BAX d         -18.773  -6.332  16.174  0.00  0.00     0.088 H 
ATOM     21  C5  BAX d         -15.857  -7.451  17.472  0.00  0.00     0.049 A 
ATOM     22  C4  BAX d         -16.107  -7.231  18.846  0.00  0.00    -0.059 A 
ATOM     23 CL11 BAX d         -14.352  -8.094  16.975  0.00  0.00    -0.083 Cl
ATOM     24  C3  BAX d         -17.338  -6.715  19.229  0.00  0.00    -0.055 A 
ATOM     25  H3  BAX d         -15.351  -7.462  19.588  0.00  0.00     0.086 H 
ATOM     26  H2  BAX d         -17.544  -6.550  20.280  0.00  0.00     0.087 H 
BRANCH  19  27
ATOM     27  C7  BAX d         -16.511  -7.355  14.989  0.00  0.00     0.419 C 
ATOM     28  F8  BAX d         -17.391  -8.197  14.544  0.00  0.00    -0.166 F 
ATOM     29  F9  BAX d         -16.616  -6.224  14.292  0.00  0.00    -0.166 F 
ATOM     30  F10 BAX d         -15.348  -7.913  14.716  0.00  0.00    -0.166 F 
ENDBRANCH  19  27
ENDBRANCH  13  17
ENDBRANCH   1  11
BRANCH   4  31
ATOM     31  O22 BAX d         -23.438   0.642  19.794  0.00  0.00    -0.311 OA
BRANCH  31  32
ATOM     32  C23 BAX d         -22.759   1.689  20.261  0.00  0.00     0.079 A 
ATOM     33  C24 BAX d         -22.025   2.515  19.422  0.00  0.00    -0.033 A 
ATOM     34  C25 BAX d         -21.366   3.608  19.992  0.00  0.00     0.006 A 
ATOM     35  H8  BAX d         -21.964   2.318  18.358  0.00  0.00     0.090 H 
ATOM     36  N26 BAX d         -21.458   3.830  21.300  0.00  0.00    -0.255 NA
ATOM     37  H9  BAX d         -20.780   4.273  19.369  0.00  0.00     0.114 H 
ATOM     38  C27 BAX d         -22.180   3.057  22.134  0.00  0.00     0.126 A 
ATOM     39  C28 BAX d         -22.864   1.958  21.617  0.00  0.00    -0.017 A 
ATOM     40  H10 BAX d         -23.466   1.327  22.262  0.00  0.00     0.091 H 
BRANCH  38  41
ATOM     41  C29 BAX d         -22.245   3.384  23.637  0.00  0.00     0.269 C 
ATOM     42  N30 BAX d         -22.311   4.683  23.936  0.00  0.00    -0.360 N 
ATOM     43  H11 BAX d         -22.320   5.377  23.216  0.00  0.00     0.162 HD
ATOM     44  O32 BAX d         -22.239   2.485  24.473  0.00  0.00    -0.266 OA
BRANCH  42  45
ATOM     45  C31 BAX d         -22.372   5.067  25.356  0.00  0.00    -0.018 C 
ATOM     46  H12 BAX d         -22.020   6.103  25.471  0.00  0.00     0.056 H 
ATOM     47  H13 BAX d         -21.730   4.395  25.945  0.00  0.00     0.056 H 
ATOM     48  H14 BAX d         -23.409   4.989  25.713  0.00  0.00     0.056 H 
ENDBRANCH  42  45
ENDBRANCH  38  41
ENDBRANCH  31  32
ENDBRANCH   4  31
TORSDOF 7
ENDMDL
