MODEL 1
REMARK VINA RESULT:      -7.9      0.000      0.000
REMARK  5 active torsions:
REMARK  status: ('A' for Active; 'I' for Inactive)
REMARK    1  A    between atoms: C4_1  and  O4_2 
REMARK    2  A    between atoms: C3_3  and  O3_4 
REMARK    3  A    between atoms: C2_5  and  O2_6 
REMARK    4  A    between atoms: C5_14  and  C6_15 
REMARK    5  A    between atoms: C6_15  and  O6_16 
ROOT
ATOM      1  C4  KIF d          31.421  66.679   6.964  0.00  0.00     0.084 C 
ATOM      2  C3  KIF d          32.448  66.775   8.157  0.00  0.00     0.090 C 
ATOM      3  C2  KIF d          32.120  65.990   9.472  0.00  0.00     0.099 C 
ATOM      4  C1  KIF d          30.629  65.222   9.287  0.00  0.00     0.111 A 
ATOM      5  N9  KIF d          30.093  64.992  10.628  0.00  0.00    -0.329 N 
ATOM      6  C8  KIF d          29.000  65.687  10.847  0.00  0.00     0.311 A 
ATOM      7  O8  KIF d          28.375  65.647  11.908  0.00  0.00    -0.262 OA
ATOM      8  C7  KIF d          28.704  66.487   9.595  0.00  0.00     0.313 A 
ATOM      9  O7  KIF d          27.748  67.265   9.422  0.00  0.00    -0.262 OA
ATOM     10  N   KIF d          29.686  66.191   8.717  0.00  0.00    -0.311 N 
ATOM     11  C5  KIF d          29.917  66.908   7.401  0.00  0.00     0.064 C 
ATOM     12  H1  KIF d          31.508  65.684   6.505  0.00  0.00     0.090 H 
ATOM     13  H3  KIF d          32.458  67.833   8.454  0.00  0.00     0.091 H 
ATOM     14  H5  KIF d          31.996  66.775  10.231  0.00  0.00     0.093 H 
ATOM     15  H7  KIF d          30.709  64.302   8.691  0.00  0.00     0.111 H 
ATOM     16  H8  KIF d          30.510  64.379  11.299  0.00  0.00     0.165 HD
ATOM     17  H9  KIF d          29.734  67.983   7.539  0.00  0.00     0.080 H 
ENDROOT
BRANCH  11  18
ATOM     18  C6  KIF d          28.971  66.375   6.290  0.00  0.00     0.038 C 
ATOM     19  H10 KIF d          28.856  65.288   6.412  0.00  0.00     0.077 H 
ATOM     20  H11 KIF d          29.419  66.588   5.309  0.00  0.00     0.077 H 
BRANCH  18  21
ATOM     21  O6  KIF d          27.673  66.989   6.352  0.00  0.00    -0.399 OA
ATOM     22  H12 KIF d          27.705  67.839   5.928  0.00  0.00     0.209 HD
ENDBRANCH  18  21
ENDBRANCH  11  18
BRANCH   1  23
ATOM     23  O4  KIF d          31.754  67.688   6.006  0.00  0.00    -0.391 OA
ATOM     24  H2  KIF d          31.261  67.539   5.208  0.00  0.00     0.210 HD
ENDBRANCH   1  23
BRANCH   2  25
ATOM     25  O3  KIF d          33.748  66.476   7.665  0.00  0.00    -0.390 OA
ATOM     26  H4  KIF d          33.971  65.580   7.889  0.00  0.00     0.210 HD
ENDBRANCH   2  25
BRANCH   3  27
ATOM     27  O2  KIF d          32.870  65.198   9.977  0.00  0.00    -0.389 OA
ATOM     28  H6  KIF d          33.044  65.457  10.875  0.00  0.00     0.210 HD
ENDBRANCH   3  27
TORSDOF 5
ENDMDL
