MODEL 1
REMARK VINA RESULT:      -6.4      0.000      0.000
REMARK  14 active torsions:
REMARK  status: ('A' for Active; 'I' for Inactive)
REMARK    1  A    between atoms: CA_2  and  N_1 
REMARK    2  A    between atoms: CA_2  and  CB_5 
REMARK    3  A    between atoms: CA_2  and  C_3 
REMARK    4  A    between atoms: CB_5  and  CG_6 
REMARK    5  A    between atoms: CG_6  and  CD_7 
REMARK       I    between atoms: CD_7  and  N_10 
REMARK    6  A    between atoms: N_10  and  CA_11 
REMARK    7  A    between atoms: CA_11  and  CB_12 
REMARK    8  A    between atoms: CA_11  and  C_21 
REMARK    9  A    between atoms: CB_12  and  SG_13 
REMARK   10  A    between atoms: SG_13  and  CD_14 
REMARK   11  A    between atoms: CD_14  and  CE_15 
REMARK       I    between atoms: C_21  and  N_23 
REMARK   12  A    between atoms: N_23  and  CA_24 
REMARK   13  A    between atoms: CA_24  and  CB_25 
REMARK   14  A    between atoms: CA_24  and  C_31 
ROOT
ATOM      1  CA  MOL d           8.463   7.041  27.170  0.00  0.00     0.097 C 
ATOM      2  H10 MOL d           8.737   7.110  28.234  0.00  0.00     0.088 H 
ENDROOT
BRANCH   1   3
ATOM      3  N   MOL d           9.511   7.657  26.368  0.00  0.00    -0.347 N 
ATOM      4  CD  MOL d          10.800   7.367  26.522  0.00  0.00     0.218 C 
ATOM      5  OE1 MOL d          11.214   6.520  27.312  0.00  0.00    -0.274 OA
ATOM      6  H9  MOL d           9.251   8.325  25.671  0.00  0.00     0.163 HD
BRANCH   4   7
ATOM      7  CG  MOL d          11.744   8.119  25.617  0.00  0.00     0.012 C 
ATOM      8  H7  MOL d          11.567   7.790  24.581  0.00  0.00     0.047 H 
ATOM      9  H8  MOL d          11.527   9.193  25.703  0.00  0.00     0.047 H 
BRANCH   7  10
ATOM     10  CB  MOL d          13.207   7.896  25.948  0.00  0.00    -0.021 C 
ATOM     11  H5  MOL d          13.302   7.742  27.033  0.00  0.00     0.037 H 
ATOM     12  H6  MOL d          13.554   6.997  25.418  0.00  0.00     0.037 H 
BRANCH  10  13
ATOM     13  CA  MOL d          14.092   9.076  25.542  0.00  0.00     0.183 C 
ATOM     14  H4  MOL d          13.731   9.977  26.060  0.00  0.00     0.101 H 
BRANCH  13  15
ATOM     15  N   MOL d          13.997   9.309  24.076  0.00  0.00    -0.065 N 
ATOM     16  H1  MOL d          14.679   8.739  23.600  0.00  0.00     0.275 HD
ATOM     17  H2  MOL d          14.176  10.282  23.878  0.00  0.00     0.275 HD
ATOM     18  H3  MOL d          13.073   9.066  23.756  0.00  0.00     0.275 HD
ENDBRANCH  13  15
BRANCH  13  19
ATOM     19  C   MOL d          15.543   8.823  25.969  0.00  0.00     0.204 C 
ATOM     20  O   MOL d          15.890   9.124  27.132  0.00  0.00    -0.646 OA
ATOM     21  OXT MOL d          16.325   8.342  25.126  0.00  0.00    -0.646 OA
ENDBRANCH  13  19
ENDBRANCH  10  13
ENDBRANCH   7  10
ENDBRANCH   4   7
ENDBRANCH   1   3
BRANCH   1  22
ATOM     22  CB  MOL d           7.131   7.752  26.929  0.00  0.00     0.004 C 
ATOM     23  H11 MOL d           6.541   7.136  26.235  0.00  0.00     0.052 H 
ATOM     24  H12 MOL d           7.346   8.725  26.465  0.00  0.00     0.052 H 
BRANCH  22  25
ATOM     25  SG  MOL d           6.135   8.047  28.382  0.00  0.00    -0.162 SA
BRANCH  25  26
ATOM     26  CD  MOL d           5.196   6.506  28.447  0.00  0.00     0.001 C 
ATOM     27  H13 MOL d           5.615   5.814  27.701  0.00  0.00     0.056 H 
ATOM     28  H14 MOL d           4.148   6.728  28.194  0.00  0.00     0.056 H 
BRANCH  26  29
ATOM     29  CE  MOL d           5.228   5.831  29.792  0.00  0.00    -0.049 A 
ATOM     30  CZ1 MOL d           4.065   5.294  30.338  0.00  0.00    -0.076 A 
ATOM     31  CT1 MOL d           4.083   4.669  31.582  0.00  0.00    -0.082 A 
ATOM     32  H15 MOL d           3.134   5.364  29.788  0.00  0.00     0.084 H 
ATOM     33  CH  MOL d           5.277   4.576  32.294  0.00  0.00    -0.083 A 
ATOM     34  H17 MOL d           3.169   4.256  31.995  0.00  0.00     0.083 H 
ATOM     35  CT2 MOL d           6.444   5.108  31.761  0.00  0.00    -0.082 A 
ATOM     36  H19 MOL d           5.295   4.089  33.263  0.00  0.00     0.083 H 
ATOM     37  CZ2 MOL d           6.416   5.733  30.513  0.00  0.00    -0.076 A 
ATOM     38  H18 MOL d           7.374   5.038  32.312  0.00  0.00     0.083 H 
ATOM     39  H16 MOL d           7.329   6.146  30.100  0.00  0.00     0.084 H 
ENDBRANCH  26  29
ENDBRANCH  25  26
ENDBRANCH  22  25
ENDBRANCH   1  22
BRANCH   1  40
ATOM     40  C   MOL d           8.273   5.586  26.787  0.00  0.00     0.242 C 
ATOM     41  O   MOL d           7.864   5.272  25.669  0.00  0.00    -0.271 OA
ATOM     42  N   MOL d           8.536   4.710  27.746  0.00  0.00    -0.341 N 
ATOM     43  H20 MOL d           8.865   5.048  28.627  0.00  0.00     0.163 HD
BRANCH  42  44
ATOM     44  CA  MOL d           8.364   3.280  27.569  0.00  0.00     0.122 C 
ATOM     45  H21 MOL d           7.880   3.171  26.587  0.00  0.00     0.097 H 
BRANCH  44  46
ATOM     46  CB  MOL d           7.385   2.709  28.543  0.00  0.00    -0.025 A 
ATOM     47  CG1 MOL d           6.039   2.589  28.217  0.00  0.00    -0.074 A 
ATOM     48  CD1 MOL d           5.144   1.988  29.098  0.00  0.00    -0.082 A 
ATOM     49  H22 MOL d           5.683   2.967  27.266  0.00  0.00     0.084 H 
ATOM     50  CE  MOL d           5.595   1.503  30.317  0.00  0.00    -0.083 A 
ATOM     51  H24 MOL d           4.097   1.900  28.831  0.00  0.00     0.083 H 
ATOM     52  CD2 MOL d           6.937   1.623  30.653  0.00  0.00    -0.082 A 
ATOM     53  H26 MOL d           4.902   1.032  31.005  0.00  0.00     0.083 H 
ATOM     54  CG2 MOL d           7.823   2.224  29.767  0.00  0.00    -0.074 A 
ATOM     55  H25 MOL d           7.294   1.249  31.605  0.00  0.00     0.083 H 
ATOM     56  H23 MOL d           8.869   2.315  30.036  0.00  0.00     0.084 H 
ENDBRANCH  44  46
BRANCH  44  57
ATOM     57  C   MOL d           9.674   2.506  27.438  0.00  0.00     0.201 C 
ATOM     58  O   MOL d          10.696   3.029  27.920  0.00  0.00    -0.646 OA
ATOM     59  OXT MOL d           9.670   1.393  26.867  0.00  0.00    -0.646 OA
ENDBRANCH  44  57
ENDBRANCH  42  44
ENDBRANCH   1  40
TORSDOF 14
ENDMDL
MODEL 2
REMARK VINA RESULT:      -6.2      2.879      5.014
REMARK  14 active torsions:
REMARK  status: ('A' for Active; 'I' for Inactive)
REMARK    1  A    between atoms: CA_2  and  N_1 
REMARK    2  A    between atoms: CA_2  and  CB_5 
REMARK    3  A    between atoms: CA_2  and  C_3 
REMARK    4  A    between atoms: CB_5  and  CG_6 
REMARK    5  A    between atoms: CG_6  and  CD_7 
REMARK       I    between atoms: CD_7  and  N_10 
REMARK    6  A    between atoms: N_10  and  CA_11 
REMARK    7  A    between atoms: CA_11  and  CB_12 
REMARK    8  A    between atoms: CA_11  and  C_21 
REMARK    9  A    between atoms: CB_12  and  SG_13 
REMARK   10  A    between atoms: SG_13  and  CD_14 
REMARK   11  A    between atoms: CD_14  and  CE_15 
REMARK       I    between atoms: C_21  and  N_23 
REMARK   12  A    between atoms: N_23  and  CA_24 
REMARK   13  A    between atoms: CA_24  and  CB_25 
REMARK   14  A    between atoms: CA_24  and  C_31 
ROOT
ATOM      1  CA  MOL d           8.679   7.117  26.092  0.00  0.00     0.097 C 
ATOM      2  H10 MOL d           9.062   8.094  25.762  0.00  0.00     0.088 H 
ENDROOT
BRANCH   1   3
ATOM      3  N   MOL d           9.352   6.064  25.344  0.00  0.00    -0.347 N 
ATOM      4  CD  MOL d          10.084   6.306  24.261  0.00  0.00     0.218 C 
ATOM      5  OE1 MOL d          10.302   7.437  23.829  0.00  0.00    -0.274 OA
ATOM      6  H9  MOL d           9.260   5.119  25.658  0.00  0.00     0.163 HD
BRANCH   4   7
ATOM      7  CG  MOL d          10.689   5.090  23.605  0.00  0.00     0.012 C 
ATOM      8  H7  MOL d          10.774   5.283  22.525  0.00  0.00     0.047 H 
ATOM      9  H8  MOL d          11.691   4.927  24.028  0.00  0.00     0.047 H 
BRANCH   7  10
ATOM     10  CB  MOL d           9.874   3.827  23.803  0.00  0.00    -0.021 C 
ATOM     11  H5  MOL d           9.076   4.034  24.532  0.00  0.00     0.037 H 
ATOM     12  H6  MOL d           9.426   3.543  22.840  0.00  0.00     0.037 H 
BRANCH  10  13
ATOM     13  CA  MOL d          10.712   2.655  24.316  0.00  0.00     0.183 C 
ATOM     14  H4  MOL d          11.773   2.878  24.130  0.00  0.00     0.101 H 
BRANCH  13  15
ATOM     15  N   MOL d          10.359   1.410  23.583  0.00  0.00    -0.065 N 
ATOM     16  H1  MOL d           9.414   1.143  23.810  0.00  0.00     0.275 HD
ATOM     17  H2  MOL d          10.990   0.671  23.852  0.00  0.00     0.275 HD
ATOM     18  H3  MOL d          10.434   1.571  22.591  0.00  0.00     0.275 HD
ENDBRANCH  13  15
BRANCH  13  19
ATOM     19  C   MOL d          10.516   2.482  25.827  0.00  0.00     0.204 C 
ATOM     20  O   MOL d          10.653   3.478  26.571  0.00  0.00    -0.646 OA
ATOM     21  OXT MOL d          10.243   1.343  26.254  0.00  0.00    -0.646 OA
ENDBRANCH  13  19
ENDBRANCH  10  13
ENDBRANCH   7  10
ENDBRANCH   4   7
ENDBRANCH   1   3
BRANCH   1  22
ATOM     22  CB  MOL d           7.170   7.045  25.858  0.00  0.00     0.004 C 
ATOM     23  H11 MOL d           6.905   7.817  25.121  0.00  0.00     0.052 H 
ATOM     24  H12 MOL d           6.669   7.263  26.814  0.00  0.00     0.052 H 
BRANCH  22  25
ATOM     25  SG  MOL d           6.550   5.481  25.260  0.00  0.00    -0.162 SA
BRANCH  25  26
ATOM     26  CD  MOL d           5.386   5.071  26.578  0.00  0.00     0.001 C 
ATOM     27  H13 MOL d           4.461   4.692  26.118  0.00  0.00     0.056 H 
ATOM     28  H14 MOL d           5.165   5.989  27.143  0.00  0.00     0.056 H 
BRANCH  26  29
ATOM     29  CE  MOL d           5.898   4.032  27.539  0.00  0.00    -0.049 A 
ATOM     30  CZ1 MOL d           5.009   3.286  28.309  0.00  0.00    -0.076 A 
ATOM     31  CT1 MOL d           5.471   2.324  29.202  0.00  0.00    -0.082 A 
ATOM     32  H15 MOL d           3.943   3.456  28.211  0.00  0.00     0.084 H 
ATOM     33  CH  MOL d           6.841   2.099  29.332  0.00  0.00    -0.083 A 
ATOM     34  H17 MOL d           4.767   1.751  29.795  0.00  0.00     0.083 H 
ATOM     35  CT2 MOL d           7.738   2.837  28.571  0.00  0.00    -0.082 A 
ATOM     36  H19 MOL d           7.205   1.350  30.026  0.00  0.00     0.083 H 
ATOM     37  CZ2 MOL d           7.264   3.799  27.678  0.00  0.00    -0.076 A 
ATOM     38  H18 MOL d           8.803   2.666  28.670  0.00  0.00     0.083 H 
ATOM     39  H16 MOL d           7.968   4.373  27.085  0.00  0.00     0.084 H 
ENDBRANCH  26  29
ENDBRANCH  25  26
ENDBRANCH  22  25
ENDBRANCH   1  22
BRANCH   1  40
ATOM     40  C   MOL d           8.912   6.956  27.582  0.00  0.00     0.242 C 
ATOM     41  O   MOL d           9.988   6.547  28.016  0.00  0.00    -0.271 OA
ATOM     42  N   MOL d           7.871   7.243  28.350  0.00  0.00    -0.341 N 
ATOM     43  H20 MOL d           7.031   7.571  27.918  0.00  0.00     0.163 HD
BRANCH  42  44
ATOM     44  CA  MOL d           7.901   7.101  29.794  0.00  0.00     0.122 C 
ATOM     45  H21 MOL d           8.660   6.328  29.989  0.00  0.00     0.097 H 
BRANCH  44  46
ATOM     46  CB  MOL d           6.627   6.529  30.328  0.00  0.00    -0.025 A 
ATOM     47  CG1 MOL d           5.397   6.906  29.801  0.00  0.00    -0.074 A 
ATOM     48  CD1 MOL d           4.220   6.316  30.249  0.00  0.00    -0.082 A 
ATOM     49  H22 MOL d           5.356   7.668  29.031  0.00  0.00     0.084 H 
ATOM     50  CE  MOL d           4.268   5.341  31.235  0.00  0.00    -0.083 A 
ATOM     51  H24 MOL d           3.267   6.619  29.829  0.00  0.00     0.083 H 
ATOM     52  CD2 MOL d           5.492   4.961  31.770  0.00  0.00    -0.082 A 
ATOM     53  H26 MOL d           3.353   4.877  31.586  0.00  0.00     0.083 H 
ATOM     54  CG2 MOL d           6.661   5.556  31.316  0.00  0.00    -0.074 A 
ATOM     55  H25 MOL d           5.534   4.202  32.542  0.00  0.00     0.083 H 
ATOM     56  H23 MOL d           7.614   5.255  31.738  0.00  0.00     0.084 H 
ENDBRANCH  44  46
BRANCH  44  57
ATOM     57  C   MOL d           8.416   8.335  30.532  0.00  0.00     0.201 C 
ATOM     58  O   MOL d           9.646   8.420  30.710  0.00  0.00    -0.646 OA
ATOM     59  OXT MOL d           7.601   9.200  30.918  0.00  0.00    -0.646 OA
ENDBRANCH  44  57
ENDBRANCH  42  44
ENDBRANCH   1  40
TORSDOF 14
ENDMDL
MODEL 3
REMARK VINA RESULT:      -6.0      1.497      2.225
REMARK  14 active torsions:
REMARK  status: ('A' for Active; 'I' for Inactive)
REMARK    1  A    between atoms: CA_2  and  N_1 
REMARK    2  A    between atoms: CA_2  and  CB_5 
REMARK    3  A    between atoms: CA_2  and  C_3 
REMARK    4  A    between atoms: CB_5  and  CG_6 
REMARK    5  A    between atoms: CG_6  and  CD_7 
REMARK       I    between atoms: CD_7  and  N_10 
REMARK    6  A    between atoms: N_10  and  CA_11 
REMARK    7  A    between atoms: CA_11  and  CB_12 
REMARK    8  A    between atoms: CA_11  and  C_21 
REMARK    9  A    between atoms: CB_12  and  SG_13 
REMARK   10  A    between atoms: SG_13  and  CD_14 
REMARK   11  A    between atoms: CD_14  and  CE_15 
REMARK       I    between atoms: C_21  and  N_23 
REMARK   12  A    between atoms: N_23  and  CA_24 
REMARK   13  A    between atoms: CA_24  and  CB_25 
REMARK   14  A    between atoms: CA_24  and  C_31 
ROOT
ATOM      1  CA  MOL d           9.041   7.604  25.836  0.00  0.00     0.097 C 
ATOM      2  H10 MOL d           9.022   7.881  26.900  0.00  0.00     0.088 H 
ENDROOT
BRANCH   1   3
ATOM      3  N   MOL d          10.291   8.065  25.245  0.00  0.00    -0.347 N 
ATOM      4  CD  MOL d          11.470   7.898  25.836  0.00  0.00     0.218 C 
ATOM      5  OE1 MOL d          11.617   7.297  26.899  0.00  0.00    -0.274 OA
ATOM      6  H9  MOL d          10.260   8.526  24.359  0.00  0.00     0.163 HD
BRANCH   4   7
ATOM      7  CG  MOL d          12.653   8.459  25.087  0.00  0.00     0.012 C 
ATOM      8  H7  MOL d          12.920   7.757  24.283  0.00  0.00     0.047 H 
ATOM      9  H8  MOL d          12.361   9.424  24.648  0.00  0.00     0.047 H 
BRANCH   7  10
ATOM     10  CB  MOL d          13.874   8.679  25.958  0.00  0.00    -0.021 C 
ATOM     11  H5  MOL d          13.539   8.910  26.981  0.00  0.00     0.037 H 
ATOM     12  H6  MOL d          14.469   7.754  25.968  0.00  0.00     0.037 H 
BRANCH  10  13
ATOM     13  CA  MOL d          14.758   9.824  25.462  0.00  0.00     0.183 C 
ATOM     14  H4  MOL d          14.182  10.422  24.740  0.00  0.00     0.101 H 
BRANCH  13  15
ATOM     15  N   MOL d          15.959   9.284  24.770  0.00  0.00    -0.065 N 
ATOM     16  H1  MOL d          16.296   8.473  25.265  0.00  0.00     0.275 HD
ATOM     17  H2  MOL d          16.681   9.988  24.751  0.00  0.00     0.275 HD
ATOM     18  H3  MOL d          15.716   9.026  23.827  0.00  0.00     0.275 HD
ENDBRANCH  13  15
BRANCH  13  19
ATOM     19  C   MOL d          15.155  10.734  26.631  0.00  0.00     0.204 C 
ATOM     20  O   MOL d          14.687  11.893  26.679  0.00  0.00    -0.646 OA
ATOM     21  OXT MOL d          15.947  10.282  27.480  0.00  0.00    -0.646 OA
ENDBRANCH  13  19
ENDBRANCH  10  13
ENDBRANCH   7  10
ENDBRANCH   4   7
ENDBRANCH   1   3
BRANCH   1  22
ATOM     22  CB  MOL d           7.853   8.238  25.113  0.00  0.00     0.004 C 
ATOM     23  H11 MOL d           7.799   7.803  24.104  0.00  0.00     0.052 H 
ATOM     24  H12 MOL d           8.042   9.319  25.036  0.00  0.00     0.052 H 
BRANCH  22  25
ATOM     25  SG  MOL d           6.261   8.014  25.891  0.00  0.00    -0.162 SA
BRANCH  25  26
ATOM     26  CD  MOL d           6.537   8.890  27.445  0.00  0.00     0.001 C 
ATOM     27  H13 MOL d           5.757   9.659  27.554  0.00  0.00     0.056 H 
ATOM     28  H14 MOL d           7.525   9.373  27.400  0.00  0.00     0.056 H 
BRANCH  26  29
ATOM     29  CE  MOL d           6.499   8.000  28.659  0.00  0.00    -0.049 A 
ATOM     30  CZ1 MOL d           7.678   7.647  29.310  0.00  0.00    -0.076 A 
ATOM     31  CT1 MOL d           7.655   6.823  30.433  0.00  0.00    -0.082 A 
ATOM     32  H15 MOL d           8.626   8.017  28.938  0.00  0.00     0.084 H 
ATOM     33  CH  MOL d           6.439   6.345  30.917  0.00  0.00    -0.083 A 
ATOM     34  H17 MOL d           8.581   6.556  30.929  0.00  0.00     0.083 H 
ATOM     35  CT2 MOL d           5.256   6.690  30.276  0.00  0.00    -0.082 A 
ATOM     36  H19 MOL d           6.416   5.704  31.791  0.00  0.00     0.083 H 
ATOM     37  CZ2 MOL d           5.289   7.516  29.151  0.00  0.00    -0.076 A 
ATOM     38  H18 MOL d           4.308   6.319  30.649  0.00  0.00     0.083 H 
ATOM     39  H16 MOL d           4.363   7.784  28.655  0.00  0.00     0.084 H 
ENDBRANCH  26  29
ENDBRANCH  25  26
ENDBRANCH  22  25
ENDBRANCH   1  22
BRANCH   1  40
ATOM     40  C   MOL d           8.901   6.100  25.698  0.00  0.00     0.242 C 
ATOM     41  O   MOL d           8.743   5.575  24.597  0.00  0.00    -0.271 OA
ATOM     42  N   MOL d           8.919   5.424  26.839  0.00  0.00    -0.341 N 
ATOM     43  H20 MOL d           9.053   5.928  27.692  0.00  0.00     0.163 HD
BRANCH  42  44
ATOM     44  CA  MOL d           8.751   3.985  26.899  0.00  0.00     0.122 C 
ATOM     45  H21 MOL d           8.277   3.713  25.943  0.00  0.00     0.097 H 
BRANCH  44  46
ATOM     46  CB  MOL d           7.763   3.578  27.944  0.00  0.00    -0.025 A 
ATOM     47  CG1 MOL d           8.185   3.133  29.192  0.00  0.00    -0.074 A 
ATOM     48  CD1 MOL d           7.262   2.827  30.187  0.00  0.00    -0.082 A 
ATOM     49  H22 MOL d           9.244   3.024  29.391  0.00  0.00     0.084 H 
ATOM     50  CE  MOL d           5.904   2.965  29.936  0.00  0.00    -0.083 A 
ATOM     51  H24 MOL d           7.603   2.482  31.156  0.00  0.00     0.083 H 
ATOM     52  CD2 MOL d           5.474   3.404  28.691  0.00  0.00    -0.082 A 
ATOM     53  H26 MOL d           5.181   2.730  30.709  0.00  0.00     0.083 H 
ATOM     54  CG2 MOL d           6.403   3.708  27.704  0.00  0.00    -0.074 A 
ATOM     55  H25 MOL d           4.415   3.511  28.489  0.00  0.00     0.083 H 
ATOM     56  H23 MOL d           6.060   4.050  26.734  0.00  0.00     0.084 H 
ENDBRANCH  44  46
BRANCH  44  57
ATOM     57  C   MOL d          10.063   3.203  26.908  0.00  0.00     0.201 C 
ATOM     58  O   MOL d          11.066   3.778  27.372  0.00  0.00    -0.646 OA
ATOM     59  OXT MOL d          10.081   2.034  26.465  0.00  0.00    -0.646 OA
ENDBRANCH  44  57
ENDBRANCH  42  44
ENDBRANCH   1  40
TORSDOF 14
ENDMDL
MODEL 4
REMARK VINA RESULT:      -6.0      2.823      7.649
REMARK  14 active torsions:
REMARK  status: ('A' for Active; 'I' for Inactive)
REMARK    1  A    between atoms: CA_2  and  N_1 
REMARK    2  A    between atoms: CA_2  and  CB_5 
REMARK    3  A    between atoms: CA_2  and  C_3 
REMARK    4  A    between atoms: CB_5  and  CG_6 
REMARK    5  A    between atoms: CG_6  and  CD_7 
REMARK       I    between atoms: CD_7  and  N_10 
REMARK    6  A    between atoms: N_10  and  CA_11 
REMARK    7  A    between atoms: CA_11  and  CB_12 
REMARK    8  A    between atoms: CA_11  and  C_21 
REMARK    9  A    between atoms: CB_12  and  SG_13 
REMARK   10  A    between atoms: SG_13  and  CD_14 
REMARK   11  A    between atoms: CD_14  and  CE_15 
REMARK       I    between atoms: C_21  and  N_23 
REMARK   12  A    between atoms: N_23  and  CA_24 
REMARK   13  A    between atoms: CA_24  and  CB_25 
REMARK   14  A    between atoms: CA_24  and  C_31 
ROOT
ATOM      1  CA  MOL d          10.861   5.381  28.075  0.00  0.00     0.097 C 
ATOM      2  H10 MOL d          11.616   5.452  28.873  0.00  0.00     0.088 H 
ENDROOT
BRANCH   1   3
ATOM      3  N   MOL d           9.738   6.248  28.404  0.00  0.00    -0.347 N 
ATOM      4  CD  MOL d           9.835   7.254  29.268  0.00  0.00     0.218 C 
ATOM      5  OE1 MOL d          10.886   7.574  29.821  0.00  0.00    -0.274 OA
ATOM      6  H9  MOL d           8.857   6.080  27.961  0.00  0.00     0.163 HD
BRANCH   4   7
ATOM      7  CG  MOL d           8.563   8.031  29.499  0.00  0.00     0.012 C 
ATOM      8  H7  MOL d           8.828   9.024  29.892  0.00  0.00     0.047 H 
ATOM      9  H8  MOL d           8.044   8.145  28.536  0.00  0.00     0.047 H 
BRANCH   7  10
ATOM     10  CB  MOL d           7.616   7.365  30.479  0.00  0.00    -0.021 C 
ATOM     11  H5  MOL d           7.949   6.329  30.641  0.00  0.00     0.037 H 
ATOM     12  H6  MOL d           7.651   7.915  31.430  0.00  0.00     0.037 H 
BRANCH  10  13
ATOM     13  CA  MOL d           6.170   7.341  29.981  0.00  0.00     0.183 C 
ATOM     14  H4  MOL d           5.933   6.321  29.645  0.00  0.00     0.101 H 
BRANCH  13  15
ATOM     15  N   MOL d           6.008   8.264  28.825  0.00  0.00    -0.065 N 
ATOM     16  H1  MOL d           6.887   8.720  28.634  0.00  0.00     0.275 HD
ATOM     17  H2  MOL d           5.311   8.958  29.044  0.00  0.00     0.275 HD
ATOM     18  H3  MOL d           5.718   7.740  28.014  0.00  0.00     0.275 HD
ENDBRANCH  13  15
BRANCH  13  19
ATOM     19  C   MOL d           5.209   7.707  31.119  0.00  0.00     0.204 C 
ATOM     20  O   MOL d           5.352   8.806  31.698  0.00  0.00    -0.646 OA
ATOM     21  OXT MOL d           4.333   6.879  31.433  0.00  0.00    -0.646 OA
ENDBRANCH  13  19
ENDBRANCH  10  13
ENDBRANCH   7  10
ENDBRANCH   4   7
ENDBRANCH   1   3
BRANCH   1  22
ATOM     22  CB  MOL d          10.386   3.934  27.939  0.00  0.00     0.004 C 
ATOM     23  H11 MOL d          10.688   3.392  28.847  0.00  0.00     0.052 H 
ATOM     24  H12 MOL d          10.888   3.494  27.065  0.00  0.00     0.052 H 
BRANCH  22  25
ATOM     25  SG  MOL d           8.626   3.711  27.728  0.00  0.00    -0.162 SA
BRANCH  25  26
ATOM     26  CD  MOL d           8.379   2.192  28.671  0.00  0.00     0.001 C 
ATOM     27  H13 MOL d           9.366   1.768  28.910  0.00  0.00     0.056 H 
ATOM     28  H14 MOL d           7.816   1.483  28.046  0.00  0.00     0.056 H 
BRANCH  26  29
ATOM     29  CE  MOL d           7.625   2.392  29.959  0.00  0.00    -0.049 A 
ATOM     30  CZ1 MOL d           7.365   1.312  30.798  0.00  0.00    -0.076 A 
ATOM     31  CT1 MOL d           6.667   1.486  31.990  0.00  0.00    -0.082 A 
ATOM     32  H15 MOL d           7.711   0.324  30.520  0.00  0.00     0.084 H 
ATOM     33  CH  MOL d           6.220   2.755  32.354  0.00  0.00    -0.083 A 
ATOM     34  H17 MOL d           6.472   0.635  32.633  0.00  0.00     0.083 H 
ATOM     35  CT2 MOL d           6.473   3.840  31.525  0.00  0.00    -0.082 A 
ATOM     36  H19 MOL d           5.677   2.894  33.282  0.00  0.00     0.083 H 
ATOM     37  CZ2 MOL d           7.173   3.656  30.332  0.00  0.00    -0.076 A 
ATOM     38  H18 MOL d           6.126   4.829  31.804  0.00  0.00     0.083 H 
ATOM     39  H16 MOL d           7.369   4.507  29.689  0.00  0.00     0.084 H 
ENDBRANCH  26  29
ENDBRANCH  25  26
ENDBRANCH  22  25
ENDBRANCH   1  22
BRANCH   1  40
ATOM     40  C   MOL d          11.481   5.778  26.750  0.00  0.00     0.242 C 
ATOM     41  O   MOL d          11.612   4.960  25.840  0.00  0.00    -0.271 OA
ATOM     42  N   MOL d          11.898   7.034  26.674  0.00  0.00    -0.341 N 
ATOM     43  H20 MOL d          11.753   7.635  27.460  0.00  0.00     0.163 HD
BRANCH  42  44
ATOM     44  CA  MOL d          12.556   7.571  25.499  0.00  0.00     0.122 C 
ATOM     45  H21 MOL d          13.025   6.702  25.012  0.00  0.00     0.097 H 
BRANCH  44  46
ATOM     46  CB  MOL d          13.696   8.470  25.856  0.00  0.00    -0.025 A 
ATOM     47  CG1 MOL d          13.759   9.084  27.101  0.00  0.00    -0.074 A 
ATOM     48  CD1 MOL d          14.858   9.860  27.457  0.00  0.00    -0.082 A 
ATOM     49  H22 MOL d          12.944   8.957  27.803  0.00  0.00     0.084 H 
ATOM     50  CE  MOL d          15.905  10.028  26.561  0.00  0.00    -0.083 A 
ATOM     51  H24 MOL d          14.896  10.333  28.432  0.00  0.00     0.083 H 
ATOM     52  CD2 MOL d          15.847   9.422  25.313  0.00  0.00    -0.082 A 
ATOM     53  H26 MOL d          16.764  10.630  26.835  0.00  0.00     0.083 H 
ATOM     54  CG2 MOL d          14.747   8.649  24.967  0.00  0.00    -0.074 A 
ATOM     55  H25 MOL d          16.661   9.552  24.609  0.00  0.00     0.083 H 
ATOM     56  H23 MOL d          14.708   8.179  23.991  0.00  0.00     0.084 H 
ENDBRANCH  44  46
BRANCH  44  57
ATOM     57  C   MOL d          11.599   8.126  24.445  0.00  0.00     0.201 C 
ATOM     58  O   MOL d          11.123   9.259  24.649  0.00  0.00    -0.646 OA
ATOM     59  OXT MOL d          11.339   7.438  23.435  0.00  0.00    -0.646 OA
ENDBRANCH  44  57
ENDBRANCH  42  44
ENDBRANCH   1  40
TORSDOF 14
ENDMDL
MODEL 5
REMARK VINA RESULT:      -5.6      3.243      6.698
REMARK  14 active torsions:
REMARK  status: ('A' for Active; 'I' for Inactive)
REMARK    1  A    between atoms: CA_2  and  N_1 
REMARK    2  A    between atoms: CA_2  and  CB_5 
REMARK    3  A    between atoms: CA_2  and  C_3 
REMARK    4  A    between atoms: CB_5  and  CG_6 
REMARK    5  A    between atoms: CG_6  and  CD_7 
REMARK       I    between atoms: CD_7  and  N_10 
REMARK    6  A    between atoms: N_10  and  CA_11 
REMARK    7  A    between atoms: CA_11  and  CB_12 
REMARK    8  A    between atoms: CA_11  and  C_21 
REMARK    9  A    between atoms: CB_12  and  SG_13 
REMARK   10  A    between atoms: SG_13  and  CD_14 
REMARK   11  A    between atoms: CD_14  and  CE_15 
REMARK       I    between atoms: C_21  and  N_23 
REMARK   12  A    between atoms: N_23  and  CA_24 
REMARK   13  A    between atoms: CA_24  and  CB_25 
REMARK   14  A    between atoms: CA_24  and  C_31 
ROOT
ATOM      1  CA  MOL d           8.000   6.746  27.228  0.00  0.00     0.097 C 
ATOM      2  H10 MOL d           7.873   7.304  26.288  0.00  0.00     0.088 H 
ENDROOT
BRANCH   1   3
ATOM      3  N   MOL d           7.076   7.273  28.224  0.00  0.00    -0.347 N 
ATOM      4  CD  MOL d           5.911   7.828  27.901  0.00  0.00     0.218 C 
ATOM      5  OE1 MOL d           5.490   7.898  26.748  0.00  0.00    -0.274 OA
ATOM      6  H9  MOL d           7.327   7.213  29.190  0.00  0.00     0.163 HD
BRANCH   4   7
ATOM      7  CG  MOL d           5.095   8.337  29.063  0.00  0.00     0.012 C 
ATOM      8  H7  MOL d           5.039   9.433  28.996  0.00  0.00     0.047 H 
ATOM      9  H8  MOL d           4.083   7.912  28.990  0.00  0.00     0.047 H 
BRANCH   7  10
ATOM     10  CB  MOL d           5.672   7.968  30.416  0.00  0.00    -0.021 C 
ATOM     11  H5  MOL d           6.743   7.747  30.293  0.00  0.00     0.037 H 
ATOM     12  H6  MOL d           5.550   8.825  31.095  0.00  0.00     0.037 H 
BRANCH  10  13
ATOM     13  CA  MOL d           4.990   6.749  31.039  0.00  0.00     0.183 C 
ATOM     14  H4  MOL d           4.258   6.354  30.320  0.00  0.00     0.101 H 
BRANCH  13  15
ATOM     15  N   MOL d           4.265   7.142  32.277  0.00  0.00    -0.065 N 
ATOM     16  H1  MOL d           4.930   7.344  33.007  0.00  0.00     0.275 HD
ATOM     17  H2  MOL d           3.665   6.387  32.570  0.00  0.00     0.275 HD
ATOM     18  H3  MOL d           3.708   7.962  32.094  0.00  0.00     0.275 HD
ENDBRANCH  13  15
BRANCH  13  19
ATOM     19  C   MOL d           6.022   5.652  31.327  0.00  0.00     0.204 C 
ATOM     20  O   MOL d           7.012   5.542  30.572  0.00  0.00    -0.646 OA
ATOM     21  OXT MOL d           5.817   4.899  32.299  0.00  0.00    -0.646 OA
ENDBRANCH  13  19
ENDBRANCH  10  13
ENDBRANCH   7  10
ENDBRANCH   4   7
ENDBRANCH   1   3
BRANCH   1  22
ATOM     22  CB  MOL d           9.440   6.885  27.723  0.00  0.00     0.004 C 
ATOM     23  H11 MOL d           9.760   5.906  28.109  0.00  0.00     0.052 H 
ATOM     24  H12 MOL d           9.447   7.622  28.540  0.00  0.00     0.052 H 
BRANCH  22  25
ATOM     25  SG  MOL d          10.633   7.409  26.502  0.00  0.00    -0.162 SA
BRANCH  25  26
ATOM     26  CD  MOL d          11.677   5.938  26.421  0.00  0.00     0.001 C 
ATOM     27  H13 MOL d          11.656   5.443  27.403  0.00  0.00     0.056 H 
ATOM     28  H14 MOL d          12.705   6.255  26.191  0.00  0.00     0.056 H 
BRANCH  26  29
ATOM     29  CE  MOL d          11.243   4.942  25.378  0.00  0.00    -0.049 A 
ATOM     30  CZ1 MOL d          10.290   5.291  24.424  0.00  0.00    -0.076 A 
ATOM     31  CT1 MOL d           9.881   4.378  23.457  0.00  0.00    -0.082 A 
ATOM     32  H15 MOL d           9.862   6.287  24.435  0.00  0.00     0.084 H 
ATOM     33  CH  MOL d          10.428   3.096  23.436  0.00  0.00    -0.083 A 
ATOM     34  H17 MOL d           9.138   4.664  22.721  0.00  0.00     0.083 H 
ATOM     35  CT2 MOL d          11.379   2.736  24.383  0.00  0.00    -0.082 A 
ATOM     36  H19 MOL d          10.113   2.383  22.684  0.00  0.00     0.083 H 
ATOM     37  CZ2 MOL d          11.783   3.659  25.349  0.00  0.00    -0.076 A 
ATOM     38  H18 MOL d          11.807   1.740  24.371  0.00  0.00     0.083 H 
ATOM     39  H16 MOL d          12.527   3.373  26.085  0.00  0.00     0.084 H 
ENDBRANCH  26  29
ENDBRANCH  25  26
ENDBRANCH  22  25
ENDBRANCH   1  22
BRANCH   1  40
ATOM     40  C   MOL d           7.748   5.271  26.984  0.00  0.00     0.242 C 
ATOM     41  O   MOL d           7.022   4.894  26.065  0.00  0.00    -0.271 OA
ATOM     42  N   MOL d           8.326   4.448  27.848  0.00  0.00    -0.341 N 
ATOM     43  H20 MOL d           8.903   4.836  28.567  0.00  0.00     0.163 HD
BRANCH  42  44
ATOM     44  CA  MOL d           8.156   3.009  27.792  0.00  0.00     0.122 C 
ATOM     45  H21 MOL d           7.650   2.818  26.834  0.00  0.00     0.097 H 
BRANCH  44  46
ATOM     46  CB  MOL d           7.202   2.516  28.832  0.00  0.00    -0.025 A 
ATOM     47  CG1 MOL d           7.642   2.194  30.111  0.00  0.00    -0.074 A 
ATOM     48  CD1 MOL d           6.740   1.808  31.098  0.00  0.00    -0.082 A 
ATOM     49  H22 MOL d           8.699   2.244  30.342  0.00  0.00     0.084 H 
ATOM     50  CE  MOL d           5.384   1.741  30.806  0.00  0.00    -0.083 A 
ATOM     51  H24 MOL d           7.095   1.559  32.091  0.00  0.00     0.083 H 
ATOM     52  CD2 MOL d           4.937   2.057  29.530  0.00  0.00    -0.082 A 
ATOM     53  H26 MOL d           4.678   1.443  31.572  0.00  0.00     0.083 H 
ATOM     54  CG2 MOL d           5.845   2.442  28.553  0.00  0.00    -0.074 A 
ATOM     55  H25 MOL d           3.880   2.003  29.297  0.00  0.00     0.083 H 
ATOM     56  H23 MOL d           5.489   2.687  27.558  0.00  0.00     0.084 H 
ENDBRANCH  44  46
BRANCH  44  57
ATOM     57  C   MOL d           9.466   2.228  27.693  0.00  0.00     0.201 C 
ATOM     58  O   MOL d          10.440   2.668  28.332  0.00  0.00    -0.646 OA
ATOM     59  OXT MOL d           9.507   1.194  26.993  0.00  0.00    -0.646 OA
ENDBRANCH  44  57
ENDBRANCH  42  44
ENDBRANCH   1  40
TORSDOF 14
ENDMDL
MODEL 6
REMARK VINA RESULT:      -5.5      2.895      6.806
REMARK  14 active torsions:
REMARK  status: ('A' for Active; 'I' for Inactive)
REMARK    1  A    between atoms: CA_2  and  N_1 
REMARK    2  A    between atoms: CA_2  and  CB_5 
REMARK    3  A    between atoms: CA_2  and  C_3 
REMARK    4  A    between atoms: CB_5  and  CG_6 
REMARK    5  A    between atoms: CG_6  and  CD_7 
REMARK       I    between atoms: CD_7  and  N_10 
REMARK    6  A    between atoms: N_10  and  CA_11 
REMARK    7  A    between atoms: CA_11  and  CB_12 
REMARK    8  A    between atoms: CA_11  and  C_21 
REMARK    9  A    between atoms: CB_12  and  SG_13 
REMARK   10  A    between atoms: SG_13  and  CD_14 
REMARK   11  A    between atoms: CD_14  and  CE_15 
REMARK       I    between atoms: C_21  and  N_23 
REMARK   12  A    between atoms: N_23  and  CA_24 
REMARK   13  A    between atoms: CA_24  and  CB_25 
REMARK   14  A    between atoms: CA_24  and  C_31 
ROOT
ATOM      1  CA  MOL d           8.338   7.033  25.582  0.00  0.00     0.097 C 
ATOM      2  H10 MOL d           7.919   7.229  24.584  0.00  0.00     0.088 H 
ENDROOT
BRANCH   1   3
ATOM      3  N   MOL d           7.545   7.738  26.579  0.00  0.00    -0.347 N 
ATOM      4  CD  MOL d           6.359   8.275  26.307  0.00  0.00     0.218 C 
ATOM      5  OE1 MOL d           5.807   8.178  25.212  0.00  0.00    -0.274 OA
ATOM      6  H9  MOL d           7.906   7.822  27.508  0.00  0.00     0.163 HD
BRANCH   4   7
ATOM      7  CG  MOL d           5.691   8.984  27.459  0.00  0.00     0.012 C 
ATOM      8  H7  MOL d           6.075  10.014  27.502  0.00  0.00     0.047 H 
ATOM      9  H8  MOL d           4.607   9.004  27.274  0.00  0.00     0.047 H 
BRANCH   7  10
ATOM     10  CB  MOL d           5.937   8.323  28.801  0.00  0.00    -0.021 C 
ATOM     11  H5  MOL d           4.975   8.225  29.325  0.00  0.00     0.037 H 
ATOM     12  H6  MOL d           6.364   7.325  28.628  0.00  0.00     0.037 H 
BRANCH  10  13
ATOM     13  CA  MOL d           6.897   9.119  29.686  0.00  0.00     0.183 C 
ATOM     14  H4  MOL d           6.395   9.333  30.642  0.00  0.00     0.101 H 
BRANCH  13  15
ATOM     15  N   MOL d           7.240  10.414  29.039  0.00  0.00    -0.065 N 
ATOM     16  H1  MOL d           6.668  10.542  28.219  0.00  0.00     0.275 HD
ATOM     17  H2  MOL d           8.212  10.409  28.772  0.00  0.00     0.275 HD
ATOM     18  H3  MOL d           7.073  11.168  29.686  0.00  0.00     0.275 HD
ENDBRANCH  13  15
BRANCH  13  19
ATOM     19  C   MOL d           8.157   8.296  29.979  0.00  0.00     0.204 C 
ATOM     20  O   MOL d           9.031   8.194  29.089  0.00  0.00    -0.646 OA
ATOM     21  OXT MOL d           8.249   7.744  31.092  0.00  0.00    -0.646 OA
ENDBRANCH  13  19
ENDBRANCH  10  13
ENDBRANCH   7  10
ENDBRANCH   4   7
ENDBRANCH   1   3
BRANCH   1  22
ATOM     22  CB  MOL d           9.791   7.506  25.637  0.00  0.00     0.004 C 
ATOM     23  H11 MOL d          10.323   6.880  26.368  0.00  0.00     0.052 H 
ATOM     24  H12 MOL d           9.794   8.552  25.978  0.00  0.00     0.052 H 
BRANCH  22  25
ATOM     25  SG  MOL d          10.691   7.431  24.096  0.00  0.00    -0.162 SA
BRANCH  25  26
ATOM     26  CD  MOL d          11.466   9.061  24.097  0.00  0.00     0.001 C 
ATOM     27  H13 MOL d          10.964   9.684  24.853  0.00  0.00     0.056 H 
ATOM     28  H14 MOL d          11.329   9.511  23.102  0.00  0.00     0.056 H 
BRANCH  26  29
ATOM     29  CE  MOL d          12.939   9.033  24.407  0.00  0.00    -0.049 A 
ATOM     30  CZ1 MOL d          13.866   9.471  23.464  0.00  0.00    -0.076 A 
ATOM     31  CT1 MOL d          15.230   9.448  23.739  0.00  0.00    -0.082 A 
ATOM     32  H15 MOL d          13.520   9.834  22.503  0.00  0.00     0.084 H 
ATOM     33  CH  MOL d          15.681   8.984  24.974  0.00  0.00    -0.083 A 
ATOM     34  H17 MOL d          15.940   9.791  22.995  0.00  0.00     0.083 H 
ATOM     35  CT2 MOL d          14.767   8.544  25.923  0.00  0.00    -0.082 A 
ATOM     36  H19 MOL d          16.743   8.965  25.193  0.00  0.00     0.083 H 
ATOM     37  CZ2 MOL d          13.401   8.571  25.637  0.00  0.00    -0.076 A 
ATOM     38  H18 MOL d          15.114   8.181  26.883  0.00  0.00     0.083 H 
ATOM     39  H16 MOL d          12.691   8.228  26.381  0.00  0.00     0.084 H 
ENDBRANCH  26  29
ENDBRANCH  25  26
ENDBRANCH  22  25
ENDBRANCH   1  22
BRANCH   1  40
ATOM     40  C   MOL d           8.341   5.540  25.849  0.00  0.00     0.242 C 
ATOM     41  O   MOL d           8.104   4.734  24.950  0.00  0.00    -0.271 OA
ATOM     42  N   MOL d           8.570   5.192  27.107  0.00  0.00    -0.341 N 
ATOM     43  H20 MOL d           8.754   5.910  27.778  0.00  0.00     0.163 HD
BRANCH  42  44
ATOM     44  CA  MOL d           8.563   3.811  27.551  0.00  0.00     0.122 C 
ATOM     45  H21 MOL d           7.877   3.294  26.863  0.00  0.00     0.097 H 
BRANCH  44  46
ATOM     46  CB  MOL d           7.937   3.659  28.900  0.00  0.00    -0.025 A 
ATOM     47  CG1 MOL d           7.338   4.739  29.537  0.00  0.00    -0.074 A 
ATOM     48  CD1 MOL d           6.692   4.577  30.759  0.00  0.00    -0.082 A 
ATOM     49  H22 MOL d           7.375   5.719  29.077  0.00  0.00     0.084 H 
ATOM     50  CE  MOL d           6.642   3.323  31.353  0.00  0.00    -0.083 A 
ATOM     51  H24 MOL d           6.228   5.427  31.245  0.00  0.00     0.083 H 
ATOM     52  CD2 MOL d           7.242   2.239  30.725  0.00  0.00    -0.082 A 
ATOM     53  H26 MOL d           6.137   3.192  32.303  0.00  0.00     0.083 H 
ATOM     54  CG2 MOL d           7.884   2.411  29.506  0.00  0.00    -0.074 A 
ATOM     55  H25 MOL d           7.208   1.259  31.186  0.00  0.00     0.083 H 
ATOM     56  H23 MOL d           8.350   1.561  29.022  0.00  0.00     0.084 H 
ENDBRANCH  44  46
BRANCH  44  57
ATOM     57  C   MOL d           9.897   3.090  27.371  0.00  0.00     0.201 C 
ATOM     58  O   MOL d           9.887   2.026  26.724  0.00  0.00    -0.646 OA
ATOM     59  OXT MOL d          10.931   3.589  27.865  0.00  0.00    -0.646 OA
ENDBRANCH  44  57
ENDBRANCH  42  44
ENDBRANCH   1  40
TORSDOF 14
ENDMDL
MODEL 7
REMARK VINA RESULT:      -5.3      2.277      5.838
REMARK  14 active torsions:
REMARK  status: ('A' for Active; 'I' for Inactive)
REMARK    1  A    between atoms: CA_2  and  N_1 
REMARK    2  A    between atoms: CA_2  and  CB_5 
REMARK    3  A    between atoms: CA_2  and  C_3 
REMARK    4  A    between atoms: CB_5  and  CG_6 
REMARK    5  A    between atoms: CG_6  and  CD_7 
REMARK       I    between atoms: CD_7  and  N_10 
REMARK    6  A    between atoms: N_10  and  CA_11 
REMARK    7  A    between atoms: CA_11  and  CB_12 
REMARK    8  A    between atoms: CA_11  and  C_21 
REMARK    9  A    between atoms: CB_12  and  SG_13 
REMARK   10  A    between atoms: SG_13  and  CD_14 
REMARK   11  A    between atoms: CD_14  and  CE_15 
REMARK       I    between atoms: C_21  and  N_23 
REMARK   12  A    between atoms: N_23  and  CA_24 
REMARK   13  A    between atoms: CA_24  and  CB_25 
REMARK   14  A    between atoms: CA_24  and  C_31 
ROOT
ATOM      1  CA  MOL d           7.204   7.356  27.397  0.00  0.00     0.097 C 
ATOM      2  H10 MOL d           6.203   7.711  27.107  0.00  0.00     0.088 H 
ENDROOT
BRANCH   1   3
ATOM      3  N   MOL d           7.108   5.972  27.840  0.00  0.00    -0.347 N 
ATOM      4  CD  MOL d           5.970   5.285  27.815  0.00  0.00     0.218 C 
ATOM      5  OE1 MOL d           4.917   5.735  27.367  0.00  0.00    -0.274 OA
ATOM      6  H9  MOL d           7.934   5.519  28.178  0.00  0.00     0.163 HD
BRANCH   4   7
ATOM      7  CG  MOL d           6.058   3.871  28.333  0.00  0.00     0.012 C 
ATOM      8  H7  MOL d           6.344   3.906  29.395  0.00  0.00     0.047 H 
ATOM      9  H8  MOL d           5.067   3.402  28.235  0.00  0.00     0.047 H 
BRANCH   7  10
ATOM     10  CB  MOL d           7.068   3.016  27.592  0.00  0.00    -0.021 C 
ATOM     11  H5  MOL d           6.534   2.190  27.099  0.00  0.00     0.037 H 
ATOM     12  H6  MOL d           7.564   3.637  26.833  0.00  0.00     0.037 H 
BRANCH  10  13
ATOM     13  CA  MOL d           8.135   2.427  28.516  0.00  0.00     0.183 C 
ATOM     14  H4  MOL d           8.245   1.357  28.284  0.00  0.00     0.101 H 
BRANCH  13  15
ATOM     15  N   MOL d           7.714   2.556  29.937  0.00  0.00    -0.065 N 
ATOM     16  H1  MOL d           8.050   3.432  30.308  0.00  0.00     0.275 HD
ATOM     17  H2  MOL d           8.101   1.795  30.473  0.00  0.00     0.275 HD
ATOM     18  H3  MOL d           6.709   2.530  29.994  0.00  0.00     0.275 HD
ENDBRANCH  13  15
BRANCH  13  19
ATOM     19  C   MOL d           9.485   3.113  28.274  0.00  0.00     0.204 C 
ATOM     20  O   MOL d           9.527   4.362  28.230  0.00  0.00    -0.646 OA
ATOM     21  OXT MOL d          10.487   2.389  28.111  0.00  0.00    -0.646 OA
ENDBRANCH  13  19
ENDBRANCH  10  13
ENDBRANCH   7  10
ENDBRANCH   4   7
ENDBRANCH   1   3
BRANCH   1  22
ATOM     22  CB  MOL d           7.760   8.231  28.520  0.00  0.00     0.004 C 
ATOM     23  H11 MOL d           7.082   9.087  28.649  0.00  0.00     0.052 H 
ATOM     24  H12 MOL d           8.751   8.592  28.208  0.00  0.00     0.052 H 
BRANCH  22  25
ATOM     25  SG  MOL d           7.943   7.433  30.108  0.00  0.00    -0.162 SA
BRANCH  25  26
ATOM     26  CD  MOL d           6.303   7.726  30.804  0.00  0.00     0.001 C 
ATOM     27  H13 MOL d           5.713   8.298  30.073  0.00  0.00     0.056 H 
ATOM     28  H14 MOL d           6.418   8.316  31.725  0.00  0.00     0.056 H 
BRANCH  26  29
ATOM     29  CE  MOL d           5.552   6.465  31.139  0.00  0.00    -0.049 A 
ATOM     30  CZ1 MOL d           4.197   6.352  30.841  0.00  0.00    -0.076 A 
ATOM     31  CT1 MOL d           3.492   5.191  31.147  0.00  0.00    -0.082 A 
ATOM     32  H15 MOL d           3.684   7.179  30.363  0.00  0.00     0.084 H 
ATOM     33  CH  MOL d           4.146   4.124  31.761  0.00  0.00    -0.083 A 
ATOM     34  H17 MOL d           2.437   5.118  30.910  0.00  0.00     0.083 H 
ATOM     35  CT2 MOL d           5.498   4.224  32.064  0.00  0.00    -0.082 A 
ATOM     36  H19 MOL d           3.601   3.218  32.000  0.00  0.00     0.083 H 
ATOM     37  CZ2 MOL d           6.196   5.392  31.752  0.00  0.00    -0.076 A 
ATOM     38  H18 MOL d           6.010   3.397  32.542  0.00  0.00     0.083 H 
ATOM     39  H16 MOL d           7.251   5.465  31.990  0.00  0.00     0.084 H 
ENDBRANCH  26  29
ENDBRANCH  25  26
ENDBRANCH  22  25
ENDBRANCH   1  22
BRANCH   1  40
ATOM     40  C   MOL d           8.149   7.482  26.218  0.00  0.00     0.242 C 
ATOM     41  O   MOL d           7.868   8.189  25.251  0.00  0.00    -0.271 OA
ATOM     42  N   MOL d           9.252   6.751  26.298  0.00  0.00    -0.341 N 
ATOM     43  H20 MOL d           9.406   6.202  27.119  0.00  0.00     0.163 HD
BRANCH  42  44
ATOM     44  CA  MOL d          10.245   6.713  25.240  0.00  0.00     0.122 C 
ATOM     45  H21 MOL d           9.761   7.194  24.377  0.00  0.00     0.097 H 
BRANCH  44  46
ATOM     46  CB  MOL d          10.531   5.317  24.789  0.00  0.00    -0.025 A 
ATOM     47  CG1 MOL d          11.555   4.575  25.365  0.00  0.00    -0.074 A 
ATOM     48  CD1 MOL d          11.770   3.251  24.994  0.00  0.00    -0.082 A 
ATOM     49  H22 MOL d          12.193   5.032  26.112  0.00  0.00     0.084 H 
ATOM     50  CE  MOL d          10.956   2.661  24.038  0.00  0.00    -0.083 A 
ATOM     51  H24 MOL d          12.572   2.682  25.452  0.00  0.00     0.083 H 
ATOM     52  CD2 MOL d           9.934   3.397  23.454  0.00  0.00    -0.082 A 
ATOM     53  H26 MOL d          11.119   1.629  23.748  0.00  0.00     0.083 H 
ATOM     54  CG2 MOL d           9.727   4.717  23.831  0.00  0.00    -0.074 A 
ATOM     55  H25 MOL d           9.297   2.941  22.705  0.00  0.00     0.083 H 
ATOM     56  H23 MOL d           8.927   5.286  23.370  0.00  0.00     0.084 H 
ENDBRANCH  44  46
BRANCH  44  57
ATOM     57  C   MOL d          11.479   7.572  25.512  0.00  0.00     0.201 C 
ATOM     58  O   MOL d          11.713   7.874  26.697  0.00  0.00    -0.646 OA
ATOM     59  OXT MOL d          12.198   7.927  24.553  0.00  0.00    -0.646 OA
ENDBRANCH  44  57
ENDBRANCH  42  44
ENDBRANCH   1  40
TORSDOF 14
ENDMDL
MODEL 8
REMARK VINA RESULT:      -5.2      3.108      5.655
REMARK  14 active torsions:
REMARK  status: ('A' for Active; 'I' for Inactive)
REMARK    1  A    between atoms: CA_2  and  N_1 
REMARK    2  A    between atoms: CA_2  and  CB_5 
REMARK    3  A    between atoms: CA_2  and  C_3 
REMARK    4  A    between atoms: CB_5  and  CG_6 
REMARK    5  A    between atoms: CG_6  and  CD_7 
REMARK       I    between atoms: CD_7  and  N_10 
REMARK    6  A    between atoms: N_10  and  CA_11 
REMARK    7  A    between atoms: CA_11  and  CB_12 
REMARK    8  A    between atoms: CA_11  and  C_21 
REMARK    9  A    between atoms: CB_12  and  SG_13 
REMARK   10  A    between atoms: SG_13  and  CD_14 
REMARK   11  A    between atoms: CD_14  and  CE_15 
REMARK       I    between atoms: C_21  and  N_23 
REMARK   12  A    between atoms: N_23  and  CA_24 
REMARK   13  A    between atoms: CA_24  and  CB_25 
REMARK   14  A    between atoms: CA_24  and  C_31 
ROOT
ATOM      1  CA  MOL d           7.770   7.383  28.695  0.00  0.00     0.097 C 
ATOM      2  H10 MOL d           8.125   8.423  28.730  0.00  0.00     0.088 H 
ENDROOT
BRANCH   1   3
ATOM      3  N   MOL d           8.852   6.525  28.231  0.00  0.00    -0.347 N 
ATOM      4  CD  MOL d          10.118   6.702  28.596  0.00  0.00     0.218 C 
ATOM      5  OE1 MOL d          10.478   7.565  29.395  0.00  0.00    -0.274 OA
ATOM      6  H9  MOL d           8.633   5.771  27.611  0.00  0.00     0.163 HD
BRANCH   4   7
ATOM      7  CG  MOL d          11.105   5.730  27.999  0.00  0.00     0.012 C 
ATOM      8  H7  MOL d          12.084   6.226  27.931  0.00  0.00     0.047 H 
ATOM      9  H8  MOL d          11.180   4.858  28.665  0.00  0.00     0.047 H 
BRANCH   7  10
ATOM     10  CB  MOL d          10.716   5.245  26.616  0.00  0.00    -0.021 C 
ATOM     11  H5  MOL d           9.931   5.907  26.220  0.00  0.00     0.037 H 
ATOM     12  H6  MOL d          11.600   5.295  25.965  0.00  0.00     0.037 H 
BRANCH  10  13
ATOM     13  CA  MOL d          10.190   3.809  26.618  0.00  0.00     0.183 C 
ATOM     14  H4  MOL d           9.091   3.840  26.577  0.00  0.00     0.101 H 
BRANCH  13  15
ATOM     15  N   MOL d          10.592   3.116  27.872  0.00  0.00    -0.065 N 
ATOM     16  H1  MOL d          11.430   2.581  27.706  0.00  0.00     0.275 HD
ATOM     17  H2  MOL d           9.852   2.497  28.166  0.00  0.00     0.275 HD
ATOM     18  H3  MOL d          10.765   3.798  28.593  0.00  0.00     0.275 HD
ENDBRANCH  13  15
BRANCH  13  19
ATOM     19  C   MOL d          10.697   3.055  25.382  0.00  0.00     0.204 C 
ATOM     20  O   MOL d           9.877   2.413  24.690  0.00  0.00    -0.646 OA
ATOM     21  OXT MOL d          11.917   3.101  25.130  0.00  0.00    -0.646 OA
ENDBRANCH  13  19
ENDBRANCH  10  13
ENDBRANCH   7  10
ENDBRANCH   4   7
ENDBRANCH   1   3
BRANCH   1  22
ATOM     22  CB  MOL d           6.572   7.275  27.752  0.00  0.00     0.004 C 
ATOM     23  H11 MOL d           5.731   6.852  28.321  0.00  0.00     0.052 H 
ATOM     24  H12 MOL d           6.844   6.589  26.936  0.00  0.00     0.052 H 
BRANCH  22  25
ATOM     25  SG  MOL d           6.020   8.807  27.018  0.00  0.00    -0.162 SA
BRANCH  25  26
ATOM     26  CD  MOL d           7.317   9.059  25.788  0.00  0.00     0.001 C 
ATOM     27  H13 MOL d           8.216   9.431  26.302  0.00  0.00     0.056 H 
ATOM     28  H14 MOL d           6.969   9.812  25.066  0.00  0.00     0.056 H 
BRANCH  26  29
ATOM     29  CE  MOL d           7.687   7.811  25.031  0.00  0.00    -0.049 A 
ATOM     30  CZ1 MOL d           8.943   7.689  24.444  0.00  0.00    -0.076 A 
ATOM     31  CT1 MOL d           9.295   6.541  23.740  0.00  0.00    -0.082 A 
ATOM     32  H15 MOL d           9.657   8.499  24.536  0.00  0.00     0.084 H 
ATOM     33  CH  MOL d           8.382   5.495  23.619  0.00  0.00    -0.083 A 
ATOM     34  H17 MOL d          10.277   6.461  23.288  0.00  0.00     0.083 H 
ATOM     35  CT2 MOL d           7.125   5.604  24.199  0.00  0.00    -0.082 A 
ATOM     36  H19 MOL d           8.652   4.598  23.072  0.00  0.00     0.083 H 
ATOM     37  CZ2 MOL d           6.782   6.760  24.903  0.00  0.00    -0.076 A 
ATOM     38  H18 MOL d           6.411   4.793  24.106  0.00  0.00     0.083 H 
ATOM     39  H16 MOL d           5.800   6.840  25.355  0.00  0.00     0.084 H 
ENDBRANCH  26  29
ENDBRANCH  25  26
ENDBRANCH  22  25
ENDBRANCH   1  22
BRANCH   1  40
ATOM     40  C   MOL d           7.298   6.959  30.073  0.00  0.00     0.242 C 
ATOM     41  O   MOL d           7.659   7.564  31.082  0.00  0.00    -0.271 OA
ATOM     42  N   MOL d           6.521   5.886  30.098  0.00  0.00    -0.341 N 
ATOM     43  H20 MOL d           6.273   5.452  29.232  0.00  0.00     0.163 HD
BRANCH  42  44
ATOM     44  CA  MOL d           6.015   5.314  31.332  0.00  0.00     0.122 C 
ATOM     45  H21 MOL d           6.589   5.807  32.131  0.00  0.00     0.097 H 
BRANCH  44  46
ATOM     46  CB  MOL d           6.355   3.863  31.458  0.00  0.00    -0.025 A 
ATOM     47  CG1 MOL d           6.967   3.179  30.415  0.00  0.00    -0.074 A 
ATOM     48  CD1 MOL d           7.348   1.849  30.563  0.00  0.00    -0.082 A 
ATOM     49  H22 MOL d           7.148   3.687  29.475  0.00  0.00     0.084 H 
ATOM     50  CE  MOL d           7.116   1.193  31.764  0.00  0.00    -0.083 A 
ATOM     51  H24 MOL d           7.825   1.326  29.742  0.00  0.00     0.083 H 
ATOM     52  CD2 MOL d           6.501   1.868  32.810  0.00  0.00    -0.082 A 
ATOM     53  H26 MOL d           7.414   0.158  31.885  0.00  0.00     0.083 H 
ATOM     54  CG2 MOL d           6.125   3.196  32.653  0.00  0.00    -0.074 A 
ATOM     55  H25 MOL d           6.316   1.360  33.749  0.00  0.00     0.083 H 
ATOM     56  H23 MOL d           5.644   3.717  33.473  0.00  0.00     0.084 H 
ENDBRANCH  44  46
BRANCH  44  57
ATOM     57  C   MOL d           4.560   5.667  31.635  0.00  0.00     0.201 C 
ATOM     58  O   MOL d           4.304   6.092  32.777  0.00  0.00    -0.646 OA
ATOM     59  OXT MOL d           3.700   5.526  30.740  0.00  0.00    -0.646 OA
ENDBRANCH  44  57
ENDBRANCH  42  44
ENDBRANCH   1  40
TORSDOF 14
ENDMDL
MODEL 9
REMARK VINA RESULT:      -5.2      4.338      8.142
REMARK  14 active torsions:
REMARK  status: ('A' for Active; 'I' for Inactive)
REMARK    1  A    between atoms: CA_2  and  N_1 
REMARK    2  A    between atoms: CA_2  and  CB_5 
REMARK    3  A    between atoms: CA_2  and  C_3 
REMARK    4  A    between atoms: CB_5  and  CG_6 
REMARK    5  A    between atoms: CG_6  and  CD_7 
REMARK       I    between atoms: CD_7  and  N_10 
REMARK    6  A    between atoms: N_10  and  CA_11 
REMARK    7  A    between atoms: CA_11  and  CB_12 
REMARK    8  A    between atoms: CA_11  and  C_21 
REMARK    9  A    between atoms: CB_12  and  SG_13 
REMARK   10  A    between atoms: SG_13  and  CD_14 
REMARK   11  A    between atoms: CD_14  and  CE_15 
REMARK       I    between atoms: C_21  and  N_23 
REMARK   12  A    between atoms: N_23  and  CA_24 
REMARK   13  A    between atoms: CA_24  and  CB_25 
REMARK   14  A    between atoms: CA_24  and  C_31 
ROOT
ATOM      1  CA  MOL d           7.945   3.516  29.145  0.00  0.00     0.097 C 
ATOM      2  H10 MOL d           8.657   4.352  29.070  0.00  0.00     0.088 H 
ENDROOT
BRANCH   1   3
ATOM      3  N   MOL d           7.255   3.593  30.426  0.00  0.00    -0.347 N 
ATOM      4  CD  MOL d           6.817   2.517  31.072  0.00  0.00     0.218 C 
ATOM      5  OE1 MOL d           7.001   1.367  30.678  0.00  0.00    -0.274 OA
ATOM      6  H9  MOL d           7.104   4.492  30.836  0.00  0.00     0.163 HD
BRANCH   4   7
ATOM      7  CG  MOL d           6.106   2.791  32.374  0.00  0.00     0.012 C 
ATOM      8  H7  MOL d           5.068   2.436  32.286  0.00  0.00     0.047 H 
ATOM      9  H8  MOL d           6.617   2.234  33.174  0.00  0.00     0.047 H 
BRANCH   7  10
ATOM     10  CB  MOL d           6.081   4.259  32.753  0.00  0.00    -0.021 C 
ATOM     11  H5  MOL d           6.152   4.341  33.848  0.00  0.00     0.037 H 
ATOM     12  H6  MOL d           6.946   4.756  32.291  0.00  0.00     0.037 H 
BRANCH  10  13
ATOM     13  CA  MOL d           4.806   4.968  32.292  0.00  0.00     0.183 C 
ATOM     14  H4  MOL d           4.339   5.448  33.165  0.00  0.00     0.101 H 
BRANCH  13  15
ATOM     15  N   MOL d           3.844   3.982  31.730  0.00  0.00    -0.065 N 
ATOM     16  H1  MOL d           3.210   3.680  32.455  0.00  0.00     0.275 HD
ATOM     17  H2  MOL d           4.348   3.185  31.373  0.00  0.00     0.275 HD
ATOM     18  H3  MOL d           3.320   4.411  30.984  0.00  0.00     0.275 HD
ENDBRANCH  13  15
BRANCH  13  19
ATOM     19  C   MOL d           5.144   6.057  31.267  0.00  0.00     0.204 C 
ATOM     20  O   MOL d           5.192   5.750  30.055  0.00  0.00    -0.646 OA
ATOM     21  OXT MOL d           5.376   7.206  31.690  0.00  0.00    -0.646 OA
ENDBRANCH  13  19
ENDBRANCH  10  13
ENDBRANCH   7  10
ENDBRANCH   4   7
ENDBRANCH   1   3
BRANCH   1  22
ATOM     22  CB  MOL d           8.691   2.187  29.029  0.00  0.00     0.004 C 
ATOM     23  H11 MOL d           7.948   1.398  28.842  0.00  0.00     0.052 H 
ATOM     24  H12 MOL d           9.194   1.997  29.989  0.00  0.00     0.052 H 
BRANCH  22  25
ATOM     25  SG  MOL d           9.923   2.097  27.739  0.00  0.00    -0.162 SA
BRANCH  25  26
ATOM     26  CD  MOL d          10.399   3.835  27.628  0.00  0.00     0.001 C 
ATOM     27  H13 MOL d          11.428   3.938  28.006  0.00  0.00     0.056 H 
ATOM     28  H14 MOL d           9.716   4.423  28.260  0.00  0.00     0.056 H 
BRANCH  26  29
ATOM     29  CE  MOL d          10.349   4.391  26.230  0.00  0.00    -0.049 A 
ATOM     30  CZ1 MOL d           9.555   3.785  25.259  0.00  0.00    -0.076 A 
ATOM     31  CT1 MOL d           9.503   4.290  23.963  0.00  0.00    -0.082 A 
ATOM     32  H15 MOL d           8.972   2.909  25.516  0.00  0.00     0.084 H 
ATOM     33  CH  MOL d          10.250   5.417  23.627  0.00  0.00    -0.083 A 
ATOM     34  H17 MOL d           8.881   3.807  23.218  0.00  0.00     0.083 H 
ATOM     35  CT2 MOL d          11.046   6.031  24.586  0.00  0.00    -0.082 A 
ATOM     36  H19 MOL d          10.211   5.814  22.618  0.00  0.00     0.083 H 
ATOM     37  CZ2 MOL d          11.092   5.517  25.883  0.00  0.00    -0.076 A 
ATOM     38  H18 MOL d          11.629   6.907  24.328  0.00  0.00     0.083 H 
ATOM     39  H16 MOL d          11.713   6.000  26.628  0.00  0.00     0.084 H 
ENDBRANCH  26  29
ENDBRANCH  25  26
ENDBRANCH  22  25
ENDBRANCH   1  22
BRANCH   1  40
ATOM     40  C   MOL d           6.959   3.581  27.995  0.00  0.00     0.242 C 
ATOM     41  O   MOL d           6.422   2.562  27.561  0.00  0.00    -0.271 OA
ATOM     42  N   MOL d           6.766   4.788  27.483  0.00  0.00    -0.341 N 
ATOM     43  H20 MOL d           7.242   5.565  27.895  0.00  0.00     0.163 HD
BRANCH  42  44
ATOM     44  CA  MOL d           5.893   5.028  26.350  0.00  0.00     0.122 C 
ATOM     45  H21 MOL d           5.850   4.067  25.815  0.00  0.00     0.097 H 
BRANCH  44  46
ATOM     46  CB  MOL d           6.496   5.983  25.370  0.00  0.00    -0.025 A 
ATOM     47  CG1 MOL d           6.127   5.961  24.030  0.00  0.00    -0.074 A 
ATOM     48  CD1 MOL d           6.635   6.899  23.137  0.00  0.00    -0.082 A 
ATOM     49  H22 MOL d           5.437   5.204  23.677  0.00  0.00     0.084 H 
ATOM     50  CE  MOL d           7.521   7.869  23.583  0.00  0.00    -0.083 A 
ATOM     51  H24 MOL d           6.339   6.872  22.094  0.00  0.00     0.083 H 
ATOM     52  CD2 MOL d           7.898   7.896  24.919  0.00  0.00    -0.082 A 
ATOM     53  H26 MOL d           7.917   8.604  22.891  0.00  0.00     0.083 H 
ATOM     54  CG2 MOL d           7.386   6.955  25.803  0.00  0.00    -0.074 A 
ATOM     55  H25 MOL d           8.592   8.650  25.272  0.00  0.00     0.083 H 
ATOM     56  H23 MOL d           7.685   6.981  26.845  0.00  0.00     0.084 H 
ENDBRANCH  44  46
BRANCH  44  57
ATOM     57  C   MOL d           4.443   5.319  26.729  0.00  0.00     0.201 C 
ATOM     58  O   MOL d           3.679   4.342  26.853  0.00  0.00    -0.646 OA
ATOM     59  OXT MOL d           4.084   6.503  26.905  0.00  0.00    -0.646 OA
ENDBRANCH  44  57
ENDBRANCH  42  44
ENDBRANCH   1  40
TORSDOF 14
ENDMDL
MODEL 10
REMARK VINA RESULT:      -5.2      3.934      6.659
REMARK  14 active torsions:
REMARK  status: ('A' for Active; 'I' for Inactive)
REMARK    1  A    between atoms: CA_2  and  N_1 
REMARK    2  A    between atoms: CA_2  and  CB_5 
REMARK    3  A    between atoms: CA_2  and  C_3 
REMARK    4  A    between atoms: CB_5  and  CG_6 
REMARK    5  A    between atoms: CG_6  and  CD_7 
REMARK       I    between atoms: CD_7  and  N_10 
REMARK    6  A    between atoms: N_10  and  CA_11 
REMARK    7  A    between atoms: CA_11  and  CB_12 
REMARK    8  A    between atoms: CA_11  and  C_21 
REMARK    9  A    between atoms: CB_12  and  SG_13 
REMARK   10  A    between atoms: SG_13  and  CD_14 
REMARK   11  A    between atoms: CD_14  and  CE_15 
REMARK       I    between atoms: C_21  and  N_23 
REMARK   12  A    between atoms: N_23  and  CA_24 
REMARK   13  A    between atoms: CA_24  and  CB_25 
REMARK   14  A    between atoms: CA_24  and  C_31 
ROOT
ATOM      1  CA  MOL d           8.132   7.346  28.498  0.00  0.00     0.097 C 
ATOM      2  H10 MOL d           7.900   6.536  27.790  0.00  0.00     0.088 H 
ENDROOT
BRANCH   1   3
ATOM      3  N   MOL d           7.490   8.573  28.046  0.00  0.00    -0.347 N 
ATOM      4  CD  MOL d           6.697   8.619  26.980  0.00  0.00     0.218 C 
ATOM      5  OE1 MOL d           6.393   7.628  26.317  0.00  0.00    -0.274 OA
ATOM      6  H9  MOL d           7.651   9.415  28.560  0.00  0.00     0.163 HD
BRANCH   4   7
ATOM      7  CG  MOL d           6.136   9.980  26.651  0.00  0.00     0.012 C 
ATOM      8  H7  MOL d           6.868  10.741  26.959  0.00  0.00     0.047 H 
ATOM      9  H8  MOL d           5.982  10.039  25.563  0.00  0.00     0.047 H 
BRANCH   7  10
ATOM     10  CB  MOL d           4.818  10.275  27.339  0.00  0.00    -0.021 C 
ATOM     11  H5  MOL d           4.144  10.759  26.616  0.00  0.00     0.037 H 
ATOM     12  H6  MOL d           4.376   9.325  27.674  0.00  0.00     0.037 H 
BRANCH  10  13
ATOM     13  CA  MOL d           4.976  11.195  28.552  0.00  0.00     0.183 C 
ATOM     14  H4  MOL d           4.183  11.957  28.517  0.00  0.00     0.101 H 
BRANCH  13  15
ATOM     15  N   MOL d           6.293  11.886  28.505  0.00  0.00    -0.065 N 
ATOM     16  H1  MOL d           6.550  12.054  27.545  0.00  0.00     0.275 HD
ATOM     17  H2  MOL d           6.992  11.307  28.944  0.00  0.00     0.275 HD
ATOM     18  H3  MOL d           6.228  12.765  28.994  0.00  0.00     0.275 HD
ENDBRANCH  13  15
BRANCH  13  19
ATOM     19  C   MOL d           4.817  10.394  29.850  0.00  0.00     0.204 C 
ATOM     20  O   MOL d           4.647  11.014  30.923  0.00  0.00    -0.646 OA
ATOM     21  OXT MOL d           4.884   9.151  29.782  0.00  0.00    -0.646 OA
ENDBRANCH  13  19
ENDBRANCH  10  13
ENDBRANCH   7  10
ENDBRANCH   4   7
ENDBRANCH   1   3
BRANCH   1  22
ATOM     22  CB  MOL d           9.646   7.545  28.580  0.00  0.00     0.004 C 
ATOM     23  H11 MOL d          10.046   6.804  29.287  0.00  0.00     0.052 H 
ATOM     24  H12 MOL d           9.834   8.558  28.965  0.00  0.00     0.052 H 
BRANCH  22  25
ATOM     25  SG  MOL d          10.537   7.371  27.041  0.00  0.00    -0.162 SA
BRANCH  25  26
ATOM     26  CD  MOL d          11.596   5.965  27.440  0.00  0.00     0.001 C 
ATOM     27  H13 MOL d          11.804   5.983  28.521  0.00  0.00     0.056 H 
ATOM     28  H14 MOL d          12.538   6.071  26.883  0.00  0.00     0.056 H 
BRANCH  26  29
ATOM     29  CE  MOL d          10.989   4.630  27.097  0.00  0.00    -0.049 A 
ATOM     30  CZ1 MOL d          10.386   3.856  28.085  0.00  0.00    -0.076 A 
ATOM     31  CT1 MOL d           9.823   2.620  27.779  0.00  0.00    -0.082 A 
ATOM     32  H15 MOL d          10.355   4.219  29.105  0.00  0.00     0.084 H 
ATOM     33  CH  MOL d           9.859   2.146  26.468  0.00  0.00    -0.083 A 
ATOM     34  H17 MOL d           9.357   2.027  28.558  0.00  0.00     0.083 H 
ATOM     35  CT2 MOL d          10.458   2.909  25.474  0.00  0.00    -0.082 A 
ATOM     36  H19 MOL d           9.421   1.185  26.226  0.00  0.00     0.083 H 
ATOM     37  CZ2 MOL d          11.019   4.147  25.791  0.00  0.00    -0.076 A 
ATOM     38  H18 MOL d          10.489   2.544  24.454  0.00  0.00     0.083 H 
ATOM     39  H16 MOL d          11.485   4.740  25.011  0.00  0.00     0.084 H 
ENDBRANCH  26  29
ENDBRANCH  25  26
ENDBRANCH  22  25
ENDBRANCH   1  22
BRANCH   1  40
ATOM     40  C   MOL d           7.653   6.963  29.885  0.00  0.00     0.242 C 
ATOM     41  O   MOL d           8.060   7.557  30.883  0.00  0.00    -0.271 OA
ATOM     42  N   MOL d           6.818   5.935  29.930  0.00  0.00    -0.341 N 
ATOM     43  H20 MOL d           6.536   5.508  29.072  0.00  0.00     0.163 HD
BRANCH  42  44
ATOM     44  CA  MOL d           6.296   5.405  31.176  0.00  0.00     0.122 C 
ATOM     45  H21 MOL d           6.936   5.837  31.960  0.00  0.00     0.097 H 
BRANCH  44  46
ATOM     46  CB  MOL d           6.502   3.929  31.286  0.00  0.00    -0.025 A 
ATOM     47  CG1 MOL d           7.134   3.217  30.274  0.00  0.00    -0.074 A 
ATOM     48  CD1 MOL d           7.390   1.856  30.413  0.00  0.00    -0.082 A 
ATOM     49  H22 MOL d           7.432   3.727  29.366  0.00  0.00     0.084 H 
ATOM     50  CE  MOL d           7.010   1.197  31.574  0.00  0.00    -0.083 A 
ATOM     51  H24 MOL d           7.885   1.312  29.617  0.00  0.00     0.083 H 
ATOM     52  CD2 MOL d           6.374   1.900  32.589  0.00  0.00    -0.082 A 
ATOM     53  H26 MOL d           7.210   0.138  31.688  0.00  0.00     0.083 H 
ATOM     54  CG2 MOL d           6.123   3.257  32.440  0.00  0.00    -0.074 A 
ATOM     55  H25 MOL d           6.073   1.389  33.496  0.00  0.00     0.083 H 
ATOM     56  H23 MOL d           5.625   3.800  33.236  0.00  0.00     0.084 H 
ENDBRANCH  44  46
BRANCH  44  57
ATOM     57  C   MOL d           4.890   5.891  31.521  0.00  0.00     0.201 C 
ATOM     58  O   MOL d           4.797   6.910  32.231  0.00  0.00    -0.646 OA
ATOM     59  OXT MOL d           3.902   5.264  31.080  0.00  0.00    -0.646 OA
ENDBRANCH  44  57
ENDBRANCH  42  44
ENDBRANCH   1  40
TORSDOF 14
ENDMDL
