REMARK  8 active torsions:
REMARK  status: ('A' for Active; 'I' for Inactive)
REMARK    1  A    between atoms: C15_7  and  S14_8 
REMARK    2  A    between atoms: S14_8  and  C13_11 
REMARK    3  A    between atoms: C13_11  and  C11_12 
REMARK    4  A    between atoms: C11_12  and  O11_13 
REMARK    5  A    between atoms: C11_12  and  C12_14 
REMARK    6  A    between atoms: C11_12  and  C10_15 
REMARK       I    between atoms: C10_15  and  N9_17 
REMARK    7  A    between atoms: N9_17  and  C1_18 
REMARK    8  A    between atoms: C3_25  and  C7_26 
ROOT
ATOM      1  C1  MOL d          27.706   3.322   4.518  0.00  0.00     0.035 A 
ATOM      2  C2  MOL d          26.366   3.088   4.819  0.00  0.00    -0.041 A 
ATOM      3  C6  MOL d          28.095   4.603   4.142  0.00  0.00    -0.056 A 
ATOM      4  C5  MOL d          27.150   5.622   4.083  0.00  0.00    -0.060 A 
ATOM      5  C4  MOL d          25.815   5.373   4.388  0.00  0.00     0.059 A 
ATOM      6  C8  MOL d          24.933   6.499   4.324  0.00  0.00     0.100 C 
ATOM      7  N8  MOL d          24.243   7.402   4.263  0.00  0.00    -0.191 NA
ATOM      8  C3  MOL d          25.395   4.090   4.755  0.00  0.00     0.070 A 
ATOM      9  H12 MOL d          26.065   2.089   5.114  0.00  0.00     0.088 H 
ATOM     10  H13 MOL d          29.131   4.807   3.896  0.00  0.00     0.087 H 
ATOM     11  H14 MOL d          27.457   6.621   3.796  0.00  0.00     0.086 H 
ENDROOT
BRANCH   8  12
ATOM     12  C7  MOL d          23.931   3.731   5.075  0.00  0.00     0.419 C 
ATOM     13  F7B MOL d          23.714   3.872   6.379  0.00  0.00    -0.166 F 
ATOM     14  F7C MOL d          23.030   4.473   4.437  0.00  0.00    -0.166 F 
ATOM     15  F7A MOL d          23.640   2.474   4.749  0.00  0.00    -0.166 F 
ENDBRANCH   8  12
BRANCH   1  16
ATOM     16  N9  MOL d          28.625   2.357   4.466  0.00  0.00    -0.325 N 
ATOM     17  C10 MOL d          28.449   1.087   4.823  0.00  0.00     0.257 C 
ATOM     18  O10 MOL d          27.444   0.641   5.376  0.00  0.00    -0.270 OA
ATOM     19  H11 MOL d          29.531   2.611   4.127  0.00  0.00     0.169 HD
BRANCH  17  20
ATOM     20  C11 MOL d          29.681   0.203   4.612  0.00  0.00     0.148 C 
BRANCH  20  21
ATOM     21  C13 MOL d          30.257  -0.233   5.962  0.00  0.00     0.070 C 
ATOM     22  H5  MOL d          29.451  -0.707   6.541  0.00  0.00     0.062 H 
ATOM     23  H6  MOL d          31.053  -0.968   5.773  0.00  0.00     0.062 H 
BRANCH  21  24
ATOM     24  S14 MOL d          30.961   1.123   6.971  0.00  0.00     0.178 S 
ATOM     25  O14 MOL d          30.501   2.450   6.443  0.00  0.00    -0.222 OA
ATOM     26  O15 MOL d          32.458   1.053   6.927  0.00  0.00    -0.222 OA
BRANCH  24  27
ATOM     27  C15 MOL d          30.416   0.948   8.623  0.00  0.00     0.059 A 
ATOM     28  C16 MOL d          29.185   1.467   9.015  0.00  0.00    -0.059 A 
ATOM     29  C17 MOL d          28.748   1.307  10.327  0.00  0.00    -0.044 A 
ATOM     30  H1  MOL d          28.567   1.996   8.299  0.00  0.00     0.085 H 
ATOM     31  C18 MOL d          29.543   0.626  11.244  0.00  0.00     0.116 A 
ATOM     32  H2  MOL d          27.790   1.712  10.634  0.00  0.00     0.088 H 
ATOM     33  F18 MOL d          29.127   0.466  12.516  0.00  0.00    -0.206 F 
ATOM     34  C19 MOL d          30.773   0.107  10.852  0.00  0.00    -0.044 A 
ATOM     35  C20 MOL d          31.210   0.269   9.541  0.00  0.00    -0.059 A 
ATOM     36  H3  MOL d          31.391  -0.423  11.568  0.00  0.00     0.088 H 
ATOM     37  H4  MOL d          32.169  -0.134   9.235  0.00  0.00     0.085 H 
ENDBRANCH  24  27
ENDBRANCH  21  24
ENDBRANCH  20  21
BRANCH  20  38
ATOM     38  O11 MOL d          30.666   0.959   3.903  0.00  0.00    -0.380 OA
ATOM     39  H7  MOL d          30.902   1.726   4.412  0.00  0.00     0.211 HD
ENDBRANCH  20  38
BRANCH  20  40
ATOM     40  C12 MOL d          29.276  -1.021   3.788  0.00  0.00    -0.038 C 
ATOM     41  H8  MOL d          28.864  -0.693   2.822  0.00  0.00     0.032 H 
ATOM     42  H9  MOL d          28.514  -1.595   4.335  0.00  0.00     0.032 H 
ATOM     43  H10 MOL d          30.158  -1.655   3.614  0.00  0.00     0.032 H 
ENDBRANCH  20  40
ENDBRANCH  17  20
ENDBRANCH   1  16
TORSDOF 8
