MODEL 1
REMARK VINA RESULT:      -7.7      0.000      0.000
REMARK  8 active torsions:
REMARK  status: ('A' for Active; 'I' for Inactive)
REMARK    1  A    between atoms: C15_7  and  S14_8 
REMARK    2  A    between atoms: S14_8  and  C13_11 
REMARK    3  A    between atoms: C13_11  and  C11_12 
REMARK    4  A    between atoms: C11_12  and  O11_13 
REMARK    5  A    between atoms: C11_12  and  C12_14 
REMARK    6  A    between atoms: C11_12  and  C10_15 
REMARK       I    between atoms: C10_15  and  N9_17 
REMARK    7  A    between atoms: N9_17  and  C1_18 
REMARK    8  A    between atoms: C3_25  and  C7_26 
ROOT
ATOM      1  C1  MOL d          27.710   1.786   4.139  0.00  0.00     0.035 A 
ATOM      2  C2  MOL d          27.914   3.163   4.086  0.00  0.00    -0.041 A 
ATOM      3  C6  MOL d          26.438   1.308   4.433  0.00  0.00    -0.056 A 
ATOM      4  C5  MOL d          25.398   2.204   4.656  0.00  0.00    -0.060 A 
ATOM      5  C4  MOL d          25.617   3.577   4.598  0.00  0.00     0.059 A 
ATOM      6  C8  MOL d          24.471   4.408   4.814  0.00  0.00     0.100 C 
ATOM      7  N8  MOL d          23.552   5.055   4.994  0.00  0.00    -0.191 NA
ATOM      8  C3  MOL d          26.890   4.085   4.319  0.00  0.00     0.070 A 
ATOM      9  H12 MOL d          28.906   3.535   3.856  0.00  0.00     0.088 H 
ATOM     10  H13 MOL d          26.257   0.240   4.487  0.00  0.00     0.087 H 
ATOM     11  H14 MOL d          24.406   1.828   4.878  0.00  0.00     0.086 H 
ENDROOT
BRANCH   8  12
ATOM     12  C7  MOL d          27.216   5.590   4.270  0.00  0.00     0.419 C 
ATOM     13  F7B MOL d          28.506   5.756   3.994  0.00  0.00    -0.166 F 
ATOM     14  F7C MOL d          26.522   6.275   3.366  0.00  0.00    -0.166 F 
ATOM     15  F7A MOL d          26.968   6.195   5.430  0.00  0.00    -0.166 F 
ENDBRANCH   8  12
BRANCH   1  16
ATOM     16  N9  MOL d          28.696   0.895   4.030  0.00  0.00    -0.325 N 
ATOM     17  C10 MOL d          28.767  -0.276   4.659  0.00  0.00     0.257 C 
ATOM     18  O10 MOL d          27.992  -0.655   5.536  0.00  0.00    -0.270 OA
ATOM     19  H11 MOL d          29.452   1.127   3.418  0.00  0.00     0.169 HD
BRANCH  17  20
ATOM     20  C11 MOL d          30.004  -1.103   4.299  0.00  0.00     0.148 C 
BRANCH  20  21
ATOM     21  C13 MOL d          30.961  -1.170   5.493  0.00  0.00     0.070 C 
ATOM     22  H5  MOL d          30.463  -1.725   6.301  0.00  0.00     0.062 H 
ATOM     23  H6  MOL d          31.864  -1.713   5.177  0.00  0.00     0.062 H 
BRANCH  21  24
ATOM     24  S14 MOL d          31.477   0.457   6.155  0.00  0.00     0.178 S 
ATOM     25  O14 MOL d          31.202   1.534   5.148  0.00  0.00    -0.222 OA
ATOM     26  O15 MOL d          32.942   0.425   6.473  0.00  0.00    -0.222 OA
BRANCH  24  27
ATOM     27  C15 MOL d          30.571   0.795   7.611  0.00  0.00     0.059 A 
ATOM     28  C16 MOL d          30.891   0.151   8.803  0.00  0.00    -0.059 A 
ATOM     29  C17 MOL d          30.178   0.439   9.964  0.00  0.00    -0.044 A 
ATOM     30  H1  MOL d          31.696  -0.575   8.828  0.00  0.00     0.085 H 
ATOM     31  C18 MOL d          29.147   1.372   9.930  0.00  0.00     0.116 A 
ATOM     32  H2  MOL d          30.426  -0.063  10.893  0.00  0.00     0.088 H 
ATOM     33  F18 MOL d          28.452   1.657  11.049  0.00  0.00    -0.206 F 
ATOM     34  C19 MOL d          28.827   2.016   8.738  0.00  0.00    -0.044 A 
ATOM     35  C20 MOL d          29.538   1.726   7.579  0.00  0.00    -0.059 A 
ATOM     36  H3  MOL d          28.022   2.743   8.714  0.00  0.00     0.088 H 
ATOM     37  H4  MOL d          29.289   2.227   6.649  0.00  0.00     0.085 H 
ENDBRANCH  24  27
ENDBRANCH  21  24
ENDBRANCH  20  21
BRANCH  20  38
ATOM     38  O11 MOL d          30.667  -0.474   3.200  0.00  0.00    -0.380 OA
ATOM     39  H7  MOL d          30.602   0.470   3.290  0.00  0.00     0.211 HD
ENDBRANCH  20  38
BRANCH  20  40
ATOM     40  C12 MOL d          29.558  -2.511   3.898  0.00  0.00    -0.038 C 
ATOM     41  H8  MOL d          29.662  -3.188   4.759  0.00  0.00     0.032 H 
ATOM     42  H9  MOL d          30.186  -2.872   3.071  0.00  0.00     0.032 H 
ATOM     43  H10 MOL d          28.507  -2.485   3.576  0.00  0.00     0.032 H 
ENDBRANCH  20  40
ENDBRANCH  17  20
ENDBRANCH   1  16
TORSDOF 8
ENDMDL
MODEL 2
REMARK VINA RESULT:      -6.0      3.752      6.912
REMARK  8 active torsions:
REMARK  status: ('A' for Active; 'I' for Inactive)
REMARK    1  A    between atoms: C15_7  and  S14_8 
REMARK    2  A    between atoms: S14_8  and  C13_11 
REMARK    3  A    between atoms: C13_11  and  C11_12 
REMARK    4  A    between atoms: C11_12  and  O11_13 
REMARK    5  A    between atoms: C11_12  and  C12_14 
REMARK    6  A    between atoms: C11_12  and  C10_15 
REMARK       I    between atoms: C10_15  and  N9_17 
REMARK    7  A    between atoms: N9_17  and  C1_18 
REMARK    8  A    between atoms: C3_25  and  C7_26 
ROOT
ATOM      1  C1  MOL d          28.640   1.933   6.093  0.00  0.00     0.035 A 
ATOM      2  C2  MOL d          28.750   1.522   7.419  0.00  0.00    -0.041 A 
ATOM      3  C6  MOL d          29.749   1.822   5.262  0.00  0.00    -0.056 A 
ATOM      4  C5  MOL d          30.937   1.298   5.762  0.00  0.00    -0.060 A 
ATOM      5  C4  MOL d          31.031   0.891   7.090  0.00  0.00     0.059 A 
ATOM      6  C8  MOL d          32.290   0.340   7.492  0.00  0.00     0.100 C 
ATOM      7  N8  MOL d          33.298  -0.091   7.799  0.00  0.00    -0.191 NA
ATOM      8  C3  MOL d          29.934   1.005   7.950  0.00  0.00     0.070 A 
ATOM      9  H12 MOL d          27.883   1.608   8.065  0.00  0.00     0.088 H 
ATOM     10  H13 MOL d          29.689   2.141   4.228  0.00  0.00     0.087 H 
ATOM     11  H14 MOL d          31.798   1.206   5.111  0.00  0.00     0.086 H 
ENDROOT
BRANCH   8  12
ATOM     12  C7  MOL d          29.972   0.607   9.438  0.00  0.00     0.419 C 
ATOM     13  F7B MOL d          29.908  -0.717   9.545  0.00  0.00    -0.166 F 
ATOM     14  F7C MOL d          31.061   1.008  10.088  0.00  0.00    -0.166 F 
ATOM     15  F7A MOL d          28.951   1.119  10.121  0.00  0.00    -0.166 F 
ENDBRANCH   8  12
BRANCH   1  16
ATOM     16  N9  MOL d          27.555   2.529   5.598  0.00  0.00    -0.325 N 
ATOM     17  C10 MOL d          27.508   3.742   5.051  0.00  0.00     0.257 C 
ATOM     18  O10 MOL d          28.439   4.547   5.036  0.00  0.00    -0.270 OA
ATOM     19  H11 MOL d          26.696   2.018   5.641  0.00  0.00     0.169 HD
BRANCH  17  20
ATOM     20  C11 MOL d          26.123   4.141   4.535  0.00  0.00     0.148 C 
BRANCH  20  21
ATOM     21  C13 MOL d          25.677   3.186   3.424  0.00  0.00     0.070 C 
ATOM     22  H5  MOL d          24.874   3.676   2.854  0.00  0.00     0.062 H 
ATOM     23  H6  MOL d          26.537   3.006   2.762  0.00  0.00     0.062 H 
BRANCH  21  24
ATOM     24  S14 MOL d          25.056   1.565   4.006  0.00  0.00     0.178 S 
ATOM     25  O14 MOL d          23.900   1.122   3.159  0.00  0.00    -0.222 OA
ATOM     26  O15 MOL d          24.620   1.682   5.436  0.00  0.00    -0.222 OA
BRANCH  24  27
ATOM     27  C15 MOL d          26.339   0.384   3.881  0.00  0.00     0.059 A 
ATOM     28  C16 MOL d          27.310   0.504   2.890  0.00  0.00    -0.059 A 
ATOM     29  C17 MOL d          28.339  -0.430   2.808  0.00  0.00    -0.044 A 
ATOM     30  H1  MOL d          27.264   1.323   2.183  0.00  0.00     0.085 H 
ATOM     31  C18 MOL d          28.397  -1.480   3.719  0.00  0.00     0.116 A 
ATOM     32  H2  MOL d          29.096  -0.338   2.037  0.00  0.00     0.088 H 
ATOM     33  F18 MOL d          29.391  -2.387   3.648  0.00  0.00    -0.206 F 
ATOM     34  C19 MOL d          27.427  -1.600   4.710  0.00  0.00    -0.044 A 
ATOM     35  C20 MOL d          26.396  -0.668   4.790  0.00  0.00    -0.059 A 
ATOM     36  H3  MOL d          27.473  -2.419   5.418  0.00  0.00     0.088 H 
ATOM     37  H4  MOL d          25.639  -0.761   5.560  0.00  0.00     0.085 H 
ENDBRANCH  24  27
ENDBRANCH  21  24
ENDBRANCH  20  21
BRANCH  20  38
ATOM     38  O11 MOL d          26.198   5.469   4.011  0.00  0.00    -0.380 OA
ATOM     39  H7  MOL d          26.261   5.432   3.064  0.00  0.00     0.211 HD
ENDBRANCH  20  38
BRANCH  20  40
ATOM     40  C12 MOL d          25.131   4.099   5.699  0.00  0.00    -0.038 C 
ATOM     41  H8  MOL d          24.280   3.454   5.433  0.00  0.00     0.032 H 
ATOM     42  H9  MOL d          24.768   5.116   5.908  0.00  0.00     0.032 H 
ATOM     43  H10 MOL d          25.630   3.697   6.593  0.00  0.00     0.032 H 
ENDBRANCH  20  40
ENDBRANCH  17  20
ENDBRANCH   1  16
TORSDOF 8
ENDMDL
MODEL 3
REMARK VINA RESULT:      -5.4      1.405      1.882
REMARK  8 active torsions:
REMARK  status: ('A' for Active; 'I' for Inactive)
REMARK    1  A    between atoms: C15_7  and  S14_8 
REMARK    2  A    between atoms: S14_8  and  C13_11 
REMARK    3  A    between atoms: C13_11  and  C11_12 
REMARK    4  A    between atoms: C11_12  and  O11_13 
REMARK    5  A    between atoms: C11_12  and  C12_14 
REMARK    6  A    between atoms: C11_12  and  C10_15 
REMARK       I    between atoms: C10_15  and  N9_17 
REMARK    7  A    between atoms: N9_17  and  C1_18 
REMARK    8  A    between atoms: C3_25  and  C7_26 
ROOT
ATOM      1  C1  MOL d          26.347   1.919   4.603  0.00  0.00     0.035 A 
ATOM      2  C2  MOL d          27.020   3.073   4.207  0.00  0.00    -0.041 A 
ATOM      3  C6  MOL d          25.052   2.033   5.095  0.00  0.00    -0.056 A 
ATOM      4  C5  MOL d          24.451   3.286   5.173  0.00  0.00    -0.060 A 
ATOM      5  C4  MOL d          25.136   4.430   4.773  0.00  0.00     0.059 A 
ATOM      6  C8  MOL d          24.414   5.662   4.868  0.00  0.00     0.100 C 
ATOM      7  N8  MOL d          23.829   6.635   4.955  0.00  0.00    -0.191 NA
ATOM      8  C3  MOL d          26.445   4.344   4.288  0.00  0.00     0.070 A 
ATOM      9  H12 MOL d          28.029   2.982   3.822  0.00  0.00     0.088 H 
ATOM     10  H13 MOL d          24.511   1.150   5.415  0.00  0.00     0.087 H 
ATOM     11  H14 MOL d          23.439   3.371   5.551  0.00  0.00     0.086 H 
ENDROOT
BRANCH   8  12
ATOM     12  C7  MOL d          27.277   5.567   3.857  0.00  0.00     0.419 C 
ATOM     13  F7B MOL d          27.589   6.291   4.927  0.00  0.00    -0.166 F 
ATOM     14  F7C MOL d          28.412   5.268   3.230  0.00  0.00    -0.166 F 
ATOM     15  F7A MOL d          26.612   6.354   3.015  0.00  0.00    -0.166 F 
ENDBRANCH   8  12
BRANCH   1  16
ATOM     16  N9  MOL d          26.917   0.714   4.637  0.00  0.00    -0.325 N 
ATOM     17  C10 MOL d          27.379   0.035   3.589  0.00  0.00     0.257 C 
ATOM     18  O10 MOL d          27.233   0.366   2.413  0.00  0.00    -0.270 OA
ATOM     19  H11 MOL d          27.006   0.279   5.533  0.00  0.00     0.169 HD
BRANCH  17  20
ATOM     20  C11 MOL d          28.017  -1.309   3.949  0.00  0.00     0.148 C 
BRANCH  20  21
ATOM     21  C13 MOL d          28.585  -1.262   5.370  0.00  0.00     0.070 C 
ATOM     22  H5  MOL d          27.790  -0.916   6.045  0.00  0.00     0.062 H 
ATOM     23  H6  MOL d          28.887  -2.281   5.652  0.00  0.00     0.062 H 
BRANCH  21  24
ATOM     24  S14 MOL d          30.032  -0.160   5.583  0.00  0.00     0.178 S 
ATOM     25  O14 MOL d          29.968   0.970   4.597  0.00  0.00    -0.222 OA
ATOM     26  O15 MOL d          31.293  -0.944   5.371  0.00  0.00    -0.222 OA
BRANCH  24  27
ATOM     27  C15 MOL d          30.017   0.496   7.203  0.00  0.00     0.059 A 
ATOM     28  C16 MOL d          29.516   1.774   7.439  0.00  0.00    -0.059 A 
ATOM     29  C17 MOL d          29.488   2.283   8.734  0.00  0.00    -0.044 A 
ATOM     30  H1  MOL d          29.147   2.372   6.613  0.00  0.00     0.085 H 
ATOM     31  C18 MOL d          29.960   1.512   9.792  0.00  0.00     0.116 A 
ATOM     32  H2  MOL d          29.099   3.278   8.918  0.00  0.00     0.088 H 
ATOM     33  F18 MOL d          29.937   1.997  11.049  0.00  0.00    -0.206 F 
ATOM     34  C19 MOL d          30.461   0.235   9.556  0.00  0.00    -0.044 A 
ATOM     35  C20 MOL d          30.490  -0.273   8.261  0.00  0.00    -0.059 A 
ATOM     36  H3  MOL d          30.829  -0.364  10.382  0.00  0.00     0.088 H 
ATOM     37  H4  MOL d          30.881  -1.267   8.077  0.00  0.00     0.085 H 
ENDBRANCH  24  27
ENDBRANCH  21  24
ENDBRANCH  20  21
BRANCH  20  38
ATOM     38  O11 MOL d          29.079  -1.569   3.027  0.00  0.00    -0.380 OA
ATOM     39  H7  MOL d          29.734  -0.884   3.099  0.00  0.00     0.211 HD
ENDBRANCH  20  38
BRANCH  20  40
ATOM     40  C12 MOL d          26.956  -2.406   3.838  0.00  0.00    -0.038 C 
ATOM     41  H8  MOL d          27.441  -3.392   3.888  0.00  0.00     0.032 H 
ATOM     42  H9  MOL d          26.426  -2.307   2.880  0.00  0.00     0.032 H 
ATOM     43  H10 MOL d          26.238  -2.308   4.666  0.00  0.00     0.032 H 
ENDBRANCH  20  40
ENDBRANCH  17  20
ENDBRANCH   1  16
TORSDOF 8
ENDMDL
MODEL 4
REMARK VINA RESULT:      -5.3      3.759      6.758
REMARK  8 active torsions:
REMARK  status: ('A' for Active; 'I' for Inactive)
REMARK    1  A    between atoms: C15_7  and  S14_8 
REMARK    2  A    between atoms: S14_8  and  C13_11 
REMARK    3  A    between atoms: C13_11  and  C11_12 
REMARK    4  A    between atoms: C11_12  and  O11_13 
REMARK    5  A    between atoms: C11_12  and  C12_14 
REMARK    6  A    between atoms: C11_12  and  C10_15 
REMARK       I    between atoms: C10_15  and  N9_17 
REMARK    7  A    between atoms: N9_17  and  C1_18 
REMARK    8  A    between atoms: C3_25  and  C7_26 
ROOT
ATOM      1  C1  MOL d          28.750   2.002   6.938  0.00  0.00     0.035 A 
ATOM      2  C2  MOL d          29.971   1.484   6.511  0.00  0.00    -0.041 A 
ATOM      3  C6  MOL d          28.448   1.974   8.295  0.00  0.00    -0.056 A 
ATOM      4  C5  MOL d          29.365   1.443   9.196  0.00  0.00    -0.060 A 
ATOM      5  C4  MOL d          30.581   0.930   8.754  0.00  0.00     0.059 A 
ATOM      6  C8  MOL d          31.462   0.435   9.768  0.00  0.00     0.100 C 
ATOM      7  N8  MOL d          32.150   0.041  10.585  0.00  0.00    -0.191 NA
ATOM      8  C3  MOL d          30.904   0.933   7.392  0.00  0.00     0.070 A 
ATOM      9  H12 MOL d          30.206   1.508   5.452  0.00  0.00     0.088 H 
ATOM     10  H13 MOL d          27.501   2.366   8.650  0.00  0.00     0.087 H 
ATOM     11  H14 MOL d          29.130   1.429  10.253  0.00  0.00     0.086 H 
ENDROOT
BRANCH   8  12
ATOM     12  C7  MOL d          32.214   0.354   6.825  0.00  0.00     0.419 C 
ATOM     13  F7B MOL d          32.799   1.259   6.047  0.00  0.00    -0.166 F 
ATOM     14  F7C MOL d          33.099  -0.012   7.749  0.00  0.00    -0.166 F 
ATOM     15  F7A MOL d          32.005  -0.737   6.092  0.00  0.00    -0.166 F 
ENDBRANCH   8  12
BRANCH   1  16
ATOM     16  N9  MOL d          27.803   2.430   6.102  0.00  0.00    -0.325 N 
ATOM     17  C10 MOL d          27.853   3.533   5.359  0.00  0.00     0.257 C 
ATOM     18  O10 MOL d          28.732   4.392   5.427  0.00  0.00    -0.270 OA
ATOM     19  H11 MOL d          26.978   1.870   6.027  0.00  0.00     0.169 HD
BRANCH  17  20
ATOM     20  C11 MOL d          26.627   3.740   4.466  0.00  0.00     0.148 C 
BRANCH  20  21
ATOM     21  C13 MOL d          25.582   2.655   4.741  0.00  0.00     0.070 C 
ATOM     22  H5  MOL d          25.802   2.210   5.723  0.00  0.00     0.062 H 
ATOM     23  H6  MOL d          24.592   3.132   4.769  0.00  0.00     0.062 H 
BRANCH  21  24
ATOM     24  S14 MOL d          25.531   1.306   3.505  0.00  0.00     0.178 S 
ATOM     25  O14 MOL d          25.575   1.877   2.118  0.00  0.00    -0.222 OA
ATOM     26  O15 MOL d          24.272   0.511   3.684  0.00  0.00    -0.222 OA
BRANCH  24  27
ATOM     27  C15 MOL d          26.917   0.265   3.736  0.00  0.00     0.059 A 
ATOM     28  C16 MOL d          26.815  -0.874   4.528  0.00  0.00    -0.059 A 
ATOM     29  C17 MOL d          27.917  -1.709   4.692  0.00  0.00    -0.044 A 
ATOM     30  H1  MOL d          25.878  -1.112   5.019  0.00  0.00     0.085 H 
ATOM     31  C18 MOL d          29.118  -1.403   4.061  0.00  0.00     0.116 A 
ATOM     32  H2  MOL d          27.839  -2.597   5.311  0.00  0.00     0.088 H 
ATOM     33  F18 MOL d          30.190  -2.206   4.214  0.00  0.00    -0.206 F 
ATOM     34  C19 MOL d          29.220  -0.264   3.268  0.00  0.00    -0.044 A 
ATOM     35  C20 MOL d          28.119   0.571   3.106  0.00  0.00    -0.059 A 
ATOM     36  H3  MOL d          30.157  -0.027   2.777  0.00  0.00     0.088 H 
ATOM     37  H4  MOL d          28.198   1.460   2.490  0.00  0.00     0.085 H 
ENDBRANCH  24  27
ENDBRANCH  21  24
ENDBRANCH  20  21
BRANCH  20  38
ATOM     38  O11 MOL d          27.041   3.657   3.100  0.00  0.00    -0.380 OA
ATOM     39  H7  MOL d          27.379   2.786   2.924  0.00  0.00     0.211 HD
ENDBRANCH  20  38
BRANCH  20  40
ATOM     40  C12 MOL d          26.040   5.125   4.745  0.00  0.00    -0.038 C 
ATOM     41  H8  MOL d          24.999   5.020   5.088  0.00  0.00     0.032 H 
ATOM     42  H9  MOL d          26.063   5.725   3.824  0.00  0.00     0.032 H 
ATOM     43  H10 MOL d          26.633   5.625   5.524  0.00  0.00     0.032 H 
ENDBRANCH  20  40
ENDBRANCH  17  20
ENDBRANCH   1  16
TORSDOF 8
ENDMDL
