MODEL 1
REMARK VINA RESULT:      -5.3      0.000      0.000
REMARK  11 active torsions:
REMARK  status: ('A' for Active; 'I' for Inactive)
REMARK    1  A    between atoms: N1_1  and  CA1_2 
REMARK    2  A    between atoms: CA1_2  and  C1_3 
REMARK    3  A    between atoms: CA1_2  and  CB1_6 
REMARK    4  A    between atoms: CB1_6  and  CG1_7 
REMARK    5  A    between atoms: CG1_7  and  CD1_8 
REMARK       I    between atoms: CD1_8  and  N2_10 
REMARK    6  A    between atoms: N2_10  and  CA2_11 
REMARK    7  A    between atoms: CA2_11  and  C2_12 
REMARK    8  A    between atoms: CA2_11  and  CB2_14 
REMARK       I    between atoms: C2_12  and  N3_16 
REMARK    9  A    between atoms: CB2_14  and  SG2_15 
REMARK   10  A    between atoms: N3_16  and  CA3_17 
REMARK   11  A    between atoms: CA3_17  and  C3_18 
ROOT
ATOM      1  CD1 GSH d           8.259  34.416  -6.362  0.00  0.00     0.218 C 
ATOM      2  OE1 GSH d           7.125  34.042  -6.713  0.00  0.00    -0.274 OA
ATOM      3  N2  GSH d           8.558  34.762  -5.106  0.00  0.00    -0.347 N 
ATOM      4  H9  GSH d           9.493  35.048  -4.898  0.00  0.00     0.163 HD
ENDROOT
BRANCH   3   5
ATOM      5  CA2 GSH d           7.573  34.741  -4.022  0.00  0.00     0.097 C 
ATOM      6  H10 GSH d           6.593  34.459  -4.438  0.00  0.00     0.088 H 
BRANCH   5   7
ATOM      7  C2  GSH d           7.473  36.131  -3.393  0.00  0.00     0.241 C 
ATOM      8  O2  GSH d           6.370  36.647  -3.175  0.00  0.00    -0.271 OA
ATOM      9  N3  GSH d           8.641  36.718  -3.111  0.00  0.00    -0.349 N 
ATOM     10  H14 GSH d           9.491  36.233  -3.318  0.00  0.00     0.163 HD
BRANCH   9  11
ATOM     11  CA3 GSH d           8.708  38.042  -2.511  0.00  0.00     0.075 C 
ATOM     12  H15 GSH d           9.543  38.048  -1.794  0.00  0.00     0.080 H 
ATOM     13  H16 GSH d           7.764  38.220  -1.975  0.00  0.00     0.080 H 
BRANCH  11  14
ATOM     14  C3  GSH d           8.915  39.181  -3.476  0.00  0.00     0.191 C 
ATOM     15  O31 GSH d           7.935  39.566  -4.147  0.00  0.00    -0.647 OA
ATOM     16  O32 GSH d          10.053  39.691  -3.560  0.00  0.00    -0.647 OA
ENDBRANCH  11  14
ENDBRANCH   9  11
ENDBRANCH   5   7
BRANCH   5  17
ATOM     17  CB2 GSH d           7.964  33.725  -2.933  0.00  0.00     0.001 C 
ATOM     18  H11 GSH d           7.243  33.797  -2.106  0.00  0.00     0.052 H 
ATOM     19  H12 GSH d           8.971  33.972  -2.564  0.00  0.00     0.052 H 
BRANCH  17  20
ATOM     20  SG2 GSH d           7.973  32.001  -3.560  0.00  0.00    -0.180 SA
ATOM     21  H13 GSH d           7.027  31.709  -3.750  0.00  0.00     0.101 HD
ENDBRANCH  17  20
ENDBRANCH   5  17
ENDBRANCH   3   5
BRANCH   1  22
ATOM     22  CG1 GSH d           9.411  34.526  -7.354  0.00  0.00     0.012 C 
ATOM     23  H7  GSH d           9.796  33.515  -7.550  0.00  0.00     0.047 H 
ATOM     24  H8  GSH d           9.022  34.959  -8.289  0.00  0.00     0.047 H 
BRANCH  22  25
ATOM     25  CB1 GSH d          10.575  35.401  -6.864  0.00  0.00    -0.021 C 
ATOM     26  H5  GSH d          10.702  36.234  -7.572  0.00  0.00     0.037 H 
ATOM     27  H6  GSH d          10.314  35.798  -5.872  0.00  0.00     0.037 H 
BRANCH  25  28
ATOM     28  CA1 GSH d          11.910  34.661  -6.750  0.00  0.00     0.183 C 
ATOM     29  H4  GSH d          12.696  35.267  -7.224  0.00  0.00     0.101 H 
BRANCH  28  30
ATOM     30  N1  GSH d          11.812  33.353  -7.444  0.00  0.00    -0.065 N 
ATOM     31  H1  GSH d          11.496  33.497  -8.390  0.00  0.00     0.275 HD
ATOM     32  H2  GSH d          11.157  32.763  -6.957  0.00  0.00     0.275 HD
ATOM     33  H3  GSH d          12.718  32.910  -7.456  0.00  0.00     0.275 HD
ENDBRANCH  28  30
BRANCH  28  34
ATOM     34  C1  GSH d          12.278  34.429  -5.281  0.00  0.00     0.204 C 
ATOM     35  O11 GSH d          11.412  33.945  -4.519  0.00  0.00    -0.646 OA
ATOM     36  O12 GSH d          13.428  34.734  -4.901  0.00  0.00    -0.646 OA
ENDBRANCH  28  34
ENDBRANCH  25  28
ENDBRANCH  22  25
ENDBRANCH   1  22
TORSDOF 11
ENDMDL
MODEL 2
REMARK VINA RESULT:      -4.9      2.166      2.707
REMARK  11 active torsions:
REMARK  status: ('A' for Active; 'I' for Inactive)
REMARK    1  A    between atoms: N1_1  and  CA1_2 
REMARK    2  A    between atoms: CA1_2  and  C1_3 
REMARK    3  A    between atoms: CA1_2  and  CB1_6 
REMARK    4  A    between atoms: CB1_6  and  CG1_7 
REMARK    5  A    between atoms: CG1_7  and  CD1_8 
REMARK       I    between atoms: CD1_8  and  N2_10 
REMARK    6  A    between atoms: N2_10  and  CA2_11 
REMARK    7  A    between atoms: CA2_11  and  C2_12 
REMARK    8  A    between atoms: CA2_11  and  CB2_14 
REMARK       I    between atoms: C2_12  and  N3_16 
REMARK    9  A    between atoms: CB2_14  and  SG2_15 
REMARK   10  A    between atoms: N3_16  and  CA3_17 
REMARK   11  A    between atoms: CA3_17  and  C3_18 
ROOT
ATOM      1  CD1 GSH d           6.803  33.934  -4.573  0.00  0.00     0.218 C 
ATOM      2  OE1 GSH d           5.620  34.205  -4.844  0.00  0.00    -0.274 OA
ATOM      3  N2  GSH d           7.446  34.443  -3.518  0.00  0.00    -0.347 N 
ATOM      4  H9  GSH d           8.396  34.175  -3.361  0.00  0.00     0.163 HD
ENDROOT
BRANCH   3   5
ATOM      5  CA2 GSH d           6.817  35.378  -2.582  0.00  0.00     0.097 C 
ATOM      6  H10 GSH d           5.726  35.345  -2.726  0.00  0.00     0.088 H 
BRANCH   5   7
ATOM      7  C2  GSH d           7.321  36.794  -2.856  0.00  0.00     0.241 C 
ATOM      8  O2  GSH d           6.580  37.639  -3.374  0.00  0.00    -0.271 OA
ATOM      9  N3  GSH d           8.587  37.031  -2.499  0.00  0.00    -0.349 N 
ATOM     10  H14 GSH d           9.122  36.295  -2.084  0.00  0.00     0.163 HD
BRANCH   9  11
ATOM     11  CA3 GSH d           9.209  38.333  -2.698  0.00  0.00     0.075 C 
ATOM     12  H15 GSH d           8.410  39.066  -2.884  0.00  0.00     0.080 H 
ATOM     13  H16 GSH d           9.858  38.266  -3.584  0.00  0.00     0.080 H 
BRANCH  11  14
ATOM     14  C3  GSH d          10.043  38.835  -1.547  0.00  0.00     0.191 C 
ATOM     15  O31 GSH d          10.849  39.762  -1.769  0.00  0.00    -0.647 OA
ATOM     16  O32 GSH d           9.887  38.308  -0.425  0.00  0.00    -0.647 OA
ENDBRANCH  11  14
ENDBRANCH   9  11
ENDBRANCH   5   7
BRANCH   5  17
ATOM     17  CB2 GSH d           7.138  35.005  -1.122  0.00  0.00     0.001 C 
ATOM     18  H11 GSH d           7.060  35.909  -0.501  0.00  0.00     0.052 H 
ATOM     19  H12 GSH d           8.165  34.614  -1.074  0.00  0.00     0.052 H 
BRANCH  17  20
ATOM     20  SG2 GSH d           5.992  33.734  -0.460  0.00  0.00    -0.180 SA
ATOM     21  H13 GSH d           5.104  33.806  -0.931  0.00  0.00     0.101 HD
ENDBRANCH  17  20
ENDBRANCH   5  17
ENDBRANCH   3   5
BRANCH   1  22
ATOM     22  CG1 GSH d           7.632  32.999  -5.445  0.00  0.00     0.012 C 
ATOM     23  H7  GSH d           8.540  32.721  -4.889  0.00  0.00     0.047 H 
ATOM     24  H8  GSH d           7.036  32.096  -5.649  0.00  0.00     0.047 H 
BRANCH  22  25
ATOM     25  CB1 GSH d           8.058  33.610  -6.789  0.00  0.00    -0.021 C 
ATOM     26  H5  GSH d           7.864  32.871  -7.581  0.00  0.00     0.037 H 
ATOM     27  H6  GSH d           7.448  34.508  -6.967  0.00  0.00     0.037 H 
BRANCH  25  28
ATOM     28  CA1 GSH d           9.533  34.010  -6.857  0.00  0.00     0.183 C 
ATOM     29  H4  GSH d           9.916  33.791  -7.864  0.00  0.00     0.101 H 
BRANCH  28  30
ATOM     30  N1  GSH d          10.304  33.229  -5.858  0.00  0.00    -0.065 N 
ATOM     31  H1  GSH d          10.169  33.628  -4.942  0.00  0.00     0.275 HD
ATOM     32  H2  GSH d          11.283  33.256  -6.095  0.00  0.00     0.275 HD
ATOM     33  H3  GSH d           9.985  32.273  -5.858  0.00  0.00     0.275 HD
ENDBRANCH  28  30
BRANCH  28  34
ATOM     34  C1  GSH d           9.704  35.506  -6.574  0.00  0.00     0.204 C 
ATOM     35  O11 GSH d          10.069  36.250  -7.510  0.00  0.00    -0.646 OA
ATOM     36  O12 GSH d           9.474  35.923  -5.420  0.00  0.00    -0.646 OA
ENDBRANCH  28  34
ENDBRANCH  25  28
ENDBRANCH  22  25
ENDBRANCH   1  22
TORSDOF 11
ENDMDL
MODEL 3
REMARK VINA RESULT:      -4.9      1.044      1.451
REMARK  11 active torsions:
REMARK  status: ('A' for Active; 'I' for Inactive)
REMARK    1  A    between atoms: N1_1  and  CA1_2 
REMARK    2  A    between atoms: CA1_2  and  C1_3 
REMARK    3  A    between atoms: CA1_2  and  CB1_6 
REMARK    4  A    between atoms: CB1_6  and  CG1_7 
REMARK    5  A    between atoms: CG1_7  and  CD1_8 
REMARK       I    between atoms: CD1_8  and  N2_10 
REMARK    6  A    between atoms: N2_10  and  CA2_11 
REMARK    7  A    between atoms: CA2_11  and  C2_12 
REMARK    8  A    between atoms: CA2_11  and  CB2_14 
REMARK       I    between atoms: C2_12  and  N3_16 
REMARK    9  A    between atoms: CB2_14  and  SG2_15 
REMARK   10  A    between atoms: N3_16  and  CA3_17 
REMARK   11  A    between atoms: CA3_17  and  C3_18 
ROOT
ATOM      1  CD1 GSH d           8.243  34.453  -6.093  0.00  0.00     0.218 C 
ATOM      2  OE1 GSH d           7.112  34.039  -6.406  0.00  0.00    -0.274 OA
ATOM      3  N2  GSH d           8.520  34.993  -4.903  0.00  0.00    -0.347 N 
ATOM      4  H9  GSH d           9.455  35.299  -4.722  0.00  0.00     0.163 HD
ENDROOT
BRANCH   3   5
ATOM      5  CA2 GSH d           7.512  35.158  -3.853  0.00  0.00     0.097 C 
ATOM      6  H10 GSH d           6.515  34.992  -4.289  0.00  0.00     0.088 H 
BRANCH   5   7
ATOM      7  C2  GSH d           7.587  36.577  -3.289  0.00  0.00     0.241 C 
ATOM      8  O2  GSH d           6.582  37.299  -3.261  0.00  0.00    -0.271 OA
ATOM      9  N3  GSH d           8.790  36.955  -2.846  0.00  0.00    -0.349 N 
ATOM     10  H14 GSH d           9.554  36.312  -2.903  0.00  0.00     0.163 HD
BRANCH   9  11
ATOM     11  CA3 GSH d           9.018  38.278  -2.282  0.00  0.00     0.075 C 
ATOM     12  H15 GSH d           9.761  38.180  -1.477  0.00  0.00     0.080 H 
ATOM     13  H16 GSH d           8.067  38.636  -1.862  0.00  0.00     0.080 H 
BRANCH  11  14
ATOM     14  C3  GSH d           9.519  39.318  -3.252  0.00  0.00     0.191 C 
ATOM     15  O31 GSH d          10.700  39.705  -3.138  0.00  0.00    -0.647 OA
ATOM     16  O32 GSH d           8.734  39.742  -4.127  0.00  0.00    -0.647 OA
ENDBRANCH  11  14
ENDBRANCH   9  11
ENDBRANCH   5   7
BRANCH   5  17
ATOM     17  CB2 GSH d           7.731  34.151  -2.708  0.00  0.00     0.001 C 
ATOM     18  H11 GSH d           8.729  34.316  -2.277  0.00  0.00     0.052 H 
ATOM     19  H12 GSH d           7.671  33.132  -3.117  0.00  0.00     0.052 H 
BRANCH  17  20
ATOM     20  SG2 GSH d           6.479  34.328  -1.378  0.00  0.00    -0.180 SA
ATOM     21  H13 GSH d           6.933  34.263  -0.481  0.00  0.00     0.101 HD
ENDBRANCH  17  20
ENDBRANCH   5  17
ENDBRANCH   3   5
BRANCH   1  22
ATOM     22  CG1 GSH d           9.417  34.389  -7.063  0.00  0.00     0.012 C 
ATOM     23  H7  GSH d           9.023  34.203  -8.073  0.00  0.00     0.047 H 
ATOM     24  H8  GSH d           9.935  35.360  -7.044  0.00  0.00     0.047 H 
BRANCH  22  25
ATOM     25  CB1 GSH d          10.439  33.290  -6.734  0.00  0.00    -0.021 C 
ATOM     26  H5  GSH d          10.190  32.870  -5.748  0.00  0.00     0.037 H 
ATOM     27  H6  GSH d          10.358  32.503  -7.499  0.00  0.00     0.037 H 
BRANCH  25  28
ATOM     28  CA1 GSH d          11.890  33.773  -6.696  0.00  0.00     0.183 C 
ATOM     29  H4  GSH d          12.028  34.553  -7.459  0.00  0.00     0.101 H 
BRANCH  28  30
ATOM     30  N1  GSH d          12.799  32.636  -6.987  0.00  0.00    -0.065 N 
ATOM     31  H1  GSH d          12.640  31.899  -6.318  0.00  0.00     0.275 HD
ATOM     32  H2  GSH d          13.756  32.947  -6.923  0.00  0.00     0.275 HD
ATOM     33  H3  GSH d          12.619  32.292  -7.917  0.00  0.00     0.275 HD
ENDBRANCH  28  30
BRANCH  28  34
ATOM     34  C1  GSH d          12.232  34.357  -5.321  0.00  0.00     0.204 C 
ATOM     35  O11 GSH d          13.413  34.703  -5.099  0.00  0.00    -0.646 OA
ATOM     36  O12 GSH d          11.320  34.463  -4.476  0.00  0.00    -0.646 OA
ENDBRANCH  28  34
ENDBRANCH  25  28
ENDBRANCH  22  25
ENDBRANCH   1  22
TORSDOF 11
ENDMDL
MODEL 4
REMARK VINA RESULT:      -4.9      2.182      6.269
REMARK  11 active torsions:
REMARK  status: ('A' for Active; 'I' for Inactive)
REMARK    1  A    between atoms: N1_1  and  CA1_2 
REMARK    2  A    between atoms: CA1_2  and  C1_3 
REMARK    3  A    between atoms: CA1_2  and  CB1_6 
REMARK    4  A    between atoms: CB1_6  and  CG1_7 
REMARK    5  A    between atoms: CG1_7  and  CD1_8 
REMARK       I    between atoms: CD1_8  and  N2_10 
REMARK    6  A    between atoms: N2_10  and  CA2_11 
REMARK    7  A    between atoms: CA2_11  and  C2_12 
REMARK    8  A    between atoms: CA2_11  and  CB2_14 
REMARK       I    between atoms: C2_12  and  N3_16 
REMARK    9  A    between atoms: CB2_14  and  SG2_15 
REMARK   10  A    between atoms: N3_16  and  CA3_17 
REMARK   11  A    between atoms: CA3_17  and  C3_18 
ROOT
ATOM      1  CD1 GSH d           8.597  34.598  -4.163  0.00  0.00     0.218 C 
ATOM      2  OE1 GSH d           8.721  33.582  -3.455  0.00  0.00    -0.274 OA
ATOM      3  N2  GSH d           9.071  34.682  -5.409  0.00  0.00    -0.347 N 
ATOM      4  H9  GSH d           8.928  35.530  -5.920  0.00  0.00     0.163 HD
ENDROOT
BRANCH   3   5
ATOM      5  CA2 GSH d           9.793  33.585  -6.058  0.00  0.00     0.097 C 
ATOM      6  H10 GSH d           9.596  32.654  -5.506  0.00  0.00     0.088 H 
BRANCH   5   7
ATOM      7  C2  GSH d          11.293  33.877  -6.040  0.00  0.00     0.241 C 
ATOM      8  O2  GSH d          11.775  34.753  -6.770  0.00  0.00    -0.271 OA
ATOM      9  N3  GSH d          12.012  33.130  -5.196  0.00  0.00    -0.349 N 
ATOM     10  H14 GSH d          11.548  32.442  -4.639  0.00  0.00     0.163 HD
BRANCH   9  11
ATOM     11  CA3 GSH d          13.454  33.291  -5.068  0.00  0.00     0.075 C 
ATOM     12  H15 GSH d          13.648  34.297  -4.666  0.00  0.00     0.080 H 
ATOM     13  H16 GSH d          13.895  33.205  -6.072  0.00  0.00     0.080 H 
BRANCH  11  14
ATOM     14  C3  GSH d          14.140  32.292  -4.171  0.00  0.00     0.191 C 
ATOM     15  O31 GSH d          13.589  32.001  -3.090  0.00  0.00    -0.647 OA
ATOM     16  O32 GSH d          15.223  31.798  -4.551  0.00  0.00    -0.647 OA
ENDBRANCH  11  14
ENDBRANCH   9  11
ENDBRANCH   5   7
BRANCH   5  17
ATOM     17  CB2 GSH d           9.336  33.405  -7.519  0.00  0.00     0.001 C 
ATOM     18  H11 GSH d           9.408  32.340  -7.783  0.00  0.00     0.052 H 
ATOM     19  H12 GSH d           9.999  33.991  -8.172  0.00  0.00     0.052 H 
BRANCH  17  20
ATOM     20  SG2 GSH d           7.607  33.961  -7.781  0.00  0.00    -0.180 SA
ATOM     21  H13 GSH d           7.338  33.779  -8.735  0.00  0.00     0.101 HD
ENDBRANCH  17  20
ENDBRANCH   5  17
ENDBRANCH   3   5
BRANCH   1  22
ATOM     22  CG1 GSH d           7.896  35.851  -3.652  0.00  0.00     0.012 C 
ATOM     23  H7  GSH d           7.137  36.148  -4.391  0.00  0.00     0.047 H 
ATOM     24  H8  GSH d           7.404  35.608  -2.698  0.00  0.00     0.047 H 
BRANCH  22  25
ATOM     25  CB1 GSH d           8.837  37.043  -3.421  0.00  0.00    -0.021 C 
ATOM     26  H5  GSH d           9.661  36.711  -2.772  0.00  0.00     0.037 H 
ATOM     27  H6  GSH d           9.241  37.356  -4.395  0.00  0.00     0.037 H 
BRANCH  25  28
ATOM     28  CA1 GSH d           8.169  38.253  -2.766  0.00  0.00     0.183 C 
ATOM     29  H4  GSH d           8.913  38.785  -2.156  0.00  0.00     0.101 H 
BRANCH  28  30
ATOM     30  N1  GSH d           7.058  37.793  -1.895  0.00  0.00    -0.065 N 
ATOM     31  H1  GSH d           7.413  37.140  -1.214  0.00  0.00     0.275 HD
ATOM     32  H2  GSH d           6.354  37.343  -2.458  0.00  0.00     0.275 HD
ATOM     33  H3  GSH d           6.653  38.586  -1.421  0.00  0.00     0.275 HD
ENDBRANCH  28  30
BRANCH  28  34
ATOM     34  C1  GSH d           7.617  39.210  -3.827  0.00  0.00     0.204 C 
ATOM     35  O11 GSH d           6.382  39.401  -3.872  0.00  0.00    -0.646 OA
ATOM     36  O12 GSH d           8.422  39.762  -4.606  0.00  0.00    -0.646 OA
ENDBRANCH  28  34
ENDBRANCH  25  28
ENDBRANCH  22  25
ENDBRANCH   1  22
TORSDOF 11
ENDMDL
MODEL 5
REMARK VINA RESULT:      -4.9      2.334      6.398
REMARK  11 active torsions:
REMARK  status: ('A' for Active; 'I' for Inactive)
REMARK    1  A    between atoms: N1_1  and  CA1_2 
REMARK    2  A    between atoms: CA1_2  and  C1_3 
REMARK    3  A    between atoms: CA1_2  and  CB1_6 
REMARK    4  A    between atoms: CB1_6  and  CG1_7 
REMARK    5  A    between atoms: CG1_7  and  CD1_8 
REMARK       I    between atoms: CD1_8  and  N2_10 
REMARK    6  A    between atoms: N2_10  and  CA2_11 
REMARK    7  A    between atoms: CA2_11  and  C2_12 
REMARK    8  A    between atoms: CA2_11  and  CB2_14 
REMARK       I    between atoms: C2_12  and  N3_16 
REMARK    9  A    between atoms: CB2_14  and  SG2_15 
REMARK   10  A    between atoms: N3_16  and  CA3_17 
REMARK   11  A    between atoms: CA3_17  and  C3_18 
ROOT
ATOM      1  CD1 GSH d           9.394  34.649  -4.682  0.00  0.00     0.218 C 
ATOM      2  OE1 GSH d           9.005  33.832  -3.828  0.00  0.00    -0.274 OA
ATOM      3  N2  GSH d           9.819  34.289  -5.897  0.00  0.00    -0.347 N 
ATOM      4  H9  GSH d          10.113  35.003  -6.533  0.00  0.00     0.163 HD
ENDROOT
BRANCH   3   5
ATOM      5  CA2 GSH d           9.875  32.892  -6.335  0.00  0.00     0.097 C 
ATOM      6  H10 GSH d           9.337  32.269  -5.606  0.00  0.00     0.088 H 
BRANCH   5   7
ATOM      7  C2  GSH d          11.333  32.437  -6.410  0.00  0.00     0.241 C 
ATOM      8  O2  GSH d          12.061  32.802  -7.342  0.00  0.00    -0.271 OA
ATOM      9  N3  GSH d          11.736  31.638  -5.417  0.00  0.00    -0.349 N 
ATOM     10  H14 GSH d          11.085  31.388  -4.699  0.00  0.00     0.163 HD
BRANCH   9  11
ATOM     11  CA3 GSH d          13.096  31.122  -5.353  0.00  0.00     0.075 C 
ATOM     12  H15 GSH d          13.474  31.032  -6.382  0.00  0.00     0.080 H 
ATOM     13  H16 GSH d          13.058  30.126  -4.888  0.00  0.00     0.080 H 
BRANCH  11  14
ATOM     14  C3  GSH d          14.071  31.964  -4.571  0.00  0.00     0.191 C 
ATOM     15  O31 GSH d          15.282  31.884  -4.867  0.00  0.00    -0.647 OA
ATOM     16  O32 GSH d          13.628  32.704  -3.667  0.00  0.00    -0.647 OA
ENDBRANCH  11  14
ENDBRANCH   9  11
ENDBRANCH   5   7
BRANCH   5  17
ATOM     17  CB2 GSH d           9.224  32.717  -7.720  0.00  0.00     0.001 C 
ATOM     18  H11 GSH d           9.620  31.802  -8.184  0.00  0.00     0.052 H 
ATOM     19  H12 GSH d           9.479  33.586  -8.344  0.00  0.00     0.052 H 
BRANCH  17  20
ATOM     20  SG2 GSH d           7.397  32.581  -7.617  0.00  0.00    -0.180 SA
ATOM     21  H13 GSH d           7.059  32.018  -8.382  0.00  0.00     0.101 HD
ENDBRANCH  17  20
ENDBRANCH   5  17
ENDBRANCH   3   5
BRANCH   1  22
ATOM     22  CG1 GSH d           9.432  36.146  -4.402  0.00  0.00     0.012 C 
ATOM     23  H7  GSH d          10.337  36.366  -3.817  0.00  0.00     0.047 H 
ATOM     24  H8  GSH d           9.479  36.678  -5.365  0.00  0.00     0.047 H 
BRANCH  22  25
ATOM     25  CB1 GSH d           8.215  36.667  -3.622  0.00  0.00    -0.021 C 
ATOM     26  H5  GSH d           7.449  36.979  -4.347  0.00  0.00     0.037 H 
ATOM     27  H6  GSH d           7.824  35.845  -3.005  0.00  0.00     0.037 H 
BRANCH  25  28
ATOM     28  CA1 GSH d           8.518  37.853  -2.705  0.00  0.00     0.183 C 
ATOM     29  H4  GSH d           9.422  37.630  -2.119  0.00  0.00     0.101 H 
BRANCH  28  30
ATOM     30  N1  GSH d           7.376  38.070  -1.782  0.00  0.00    -0.065 N 
ATOM     31  H1  GSH d           7.643  37.800  -0.848  0.00  0.00     0.275 HD
ATOM     32  H2  GSH d           6.592  37.513  -2.082  0.00  0.00     0.275 HD
ATOM     33  H3  GSH d           7.118  39.044  -1.789  0.00  0.00     0.275 HD
ENDBRANCH  28  30
BRANCH  28  34
ATOM     34  C1  GSH d           8.757  39.126  -3.524  0.00  0.00     0.204 C 
ATOM     35  O11 GSH d           9.908  39.614  -3.542  0.00  0.00    -0.646 OA
ATOM     36  O12 GSH d           7.793  39.627  -4.139  0.00  0.00    -0.646 OA
ENDBRANCH  28  34
ENDBRANCH  25  28
ENDBRANCH  22  25
ENDBRANCH   1  22
TORSDOF 11
ENDMDL
MODEL 6
REMARK VINA RESULT:      -4.8      1.940      2.397
REMARK  11 active torsions:
REMARK  status: ('A' for Active; 'I' for Inactive)
REMARK    1  A    between atoms: N1_1  and  CA1_2 
REMARK    2  A    between atoms: CA1_2  and  C1_3 
REMARK    3  A    between atoms: CA1_2  and  CB1_6 
REMARK    4  A    between atoms: CB1_6  and  CG1_7 
REMARK    5  A    between atoms: CG1_7  and  CD1_8 
REMARK       I    between atoms: CD1_8  and  N2_10 
REMARK    6  A    between atoms: N2_10  and  CA2_11 
REMARK    7  A    between atoms: CA2_11  and  C2_12 
REMARK    8  A    between atoms: CA2_11  and  CB2_14 
REMARK       I    between atoms: C2_12  and  N3_16 
REMARK    9  A    between atoms: CB2_14  and  SG2_15 
REMARK   10  A    between atoms: N3_16  and  CA3_17 
REMARK   11  A    between atoms: CA3_17  and  C3_18 
ROOT
ATOM      1  CD1 GSH d          10.483  34.960  -6.198  0.00  0.00     0.218 C 
ATOM      2  OE1 GSH d           9.628  34.654  -7.049  0.00  0.00    -0.274 OA
ATOM      3  N2  GSH d          10.173  35.453  -4.996  0.00  0.00    -0.347 N 
ATOM      4  H9  GSH d          10.915  35.671  -4.362  0.00  0.00     0.163 HD
ENDROOT
BRANCH   3   5
ATOM      5  CA2 GSH d           8.793  35.688  -4.567  0.00  0.00     0.097 C 
ATOM      6  H10 GSH d           8.164  35.833  -5.458  0.00  0.00     0.088 H 
BRANCH   5   7
ATOM      7  C2  GSH d           8.733  36.944  -3.697  0.00  0.00     0.241 C 
ATOM      8  O2  GSH d           7.970  37.002  -2.725  0.00  0.00    -0.271 OA
ATOM      9  N3  GSH d           9.548  37.937  -4.066  0.00  0.00    -0.349 N 
ATOM     10  H14 GSH d          10.136  37.811  -4.866  0.00  0.00     0.163 HD
BRANCH   9  11
ATOM     11  CA3 GSH d           9.603  39.195  -3.336  0.00  0.00     0.075 C 
ATOM     12  H15 GSH d           8.599  39.397  -2.932  0.00  0.00     0.080 H 
ATOM     13  H16 GSH d           9.878  39.988  -4.047  0.00  0.00     0.080 H 
BRANCH  11  14
ATOM     14  C3  GSH d          10.582  39.238  -2.191  0.00  0.00     0.191 C 
ATOM     15  O31 GSH d          10.172  38.912  -1.058  0.00  0.00    -0.647 OA
ATOM     16  O32 GSH d          11.757  39.591  -2.426  0.00  0.00    -0.647 OA
ENDBRANCH  11  14
ENDBRANCH   9  11
ENDBRANCH   5   7
BRANCH   5  17
ATOM     17  CB2 GSH d           8.248  34.494  -3.761  0.00  0.00     0.001 C 
ATOM     18  H11 GSH d           7.907  34.855  -2.780  0.00  0.00     0.052 H 
ATOM     19  H12 GSH d           9.058  33.762  -3.621  0.00  0.00     0.052 H 
BRANCH  17  20
ATOM     20  SG2 GSH d           6.845  33.666  -4.605  0.00  0.00    -0.180 SA
ATOM     21  H13 GSH d           6.904  32.671  -4.454  0.00  0.00     0.101 HD
ENDBRANCH  17  20
ENDBRANCH   5  17
ENDBRANCH   3   5
BRANCH   1  22
ATOM     22  CG1 GSH d          11.975  34.809  -6.470  0.00  0.00     0.012 C 
ATOM     23  H7  GSH d          12.101  34.339  -7.456  0.00  0.00     0.047 H 
ATOM     24  H8  GSH d          12.428  35.812  -6.481  0.00  0.00     0.047 H 
BRANCH  22  25
ATOM     25  CB1 GSH d          12.716  33.955  -5.430  0.00  0.00    -0.021 C 
ATOM     26  H5  GSH d          13.734  34.357  -5.316  0.00  0.00     0.037 H 
ATOM     27  H6  GSH d          12.181  34.037  -4.473  0.00  0.00     0.037 H 
BRANCH  25  28
ATOM     28  CA1 GSH d          12.823  32.474  -5.796  0.00  0.00     0.183 C 
ATOM     29  H4  GSH d          13.821  32.107  -5.513  0.00  0.00     0.101 H 
BRANCH  28  30
ATOM     30  N1  GSH d          12.638  32.310  -7.259  0.00  0.00    -0.065 N 
ATOM     31  H1  GSH d          12.808  33.190  -7.720  0.00  0.00     0.275 HD
ATOM     32  H2  GSH d          11.694  32.010  -7.446  0.00  0.00     0.275 HD
ATOM     33  H3  GSH d          13.285  31.619  -7.605  0.00  0.00     0.275 HD
ENDBRANCH  28  30
BRANCH  28  34
ATOM     34  C1  GSH d          11.762  31.653  -5.055  0.00  0.00     0.204 C 
ATOM     35  O11 GSH d          10.635  31.526  -5.582  0.00  0.00    -0.646 OA
ATOM     36  O12 GSH d          12.064  31.143  -3.956  0.00  0.00    -0.646 OA
ENDBRANCH  28  34
ENDBRANCH  25  28
ENDBRANCH  22  25
ENDBRANCH   1  22
TORSDOF 11
ENDMDL
MODEL 7
REMARK VINA RESULT:      -4.6      1.834      2.247
REMARK  11 active torsions:
REMARK  status: ('A' for Active; 'I' for Inactive)
REMARK    1  A    between atoms: N1_1  and  CA1_2 
REMARK    2  A    between atoms: CA1_2  and  C1_3 
REMARK    3  A    between atoms: CA1_2  and  CB1_6 
REMARK    4  A    between atoms: CB1_6  and  CG1_7 
REMARK    5  A    between atoms: CG1_7  and  CD1_8 
REMARK       I    between atoms: CD1_8  and  N2_10 
REMARK    6  A    between atoms: N2_10  and  CA2_11 
REMARK    7  A    between atoms: CA2_11  and  C2_12 
REMARK    8  A    between atoms: CA2_11  and  CB2_14 
REMARK       I    between atoms: C2_12  and  N3_16 
REMARK    9  A    between atoms: CB2_14  and  SG2_15 
REMARK   10  A    between atoms: N3_16  and  CA3_17 
REMARK   11  A    between atoms: CA3_17  and  C3_18 
ROOT
ATOM      1  CD1 GSH d           9.763  32.786  -6.783  0.00  0.00     0.218 C 
ATOM      2  OE1 GSH d           8.821  32.938  -7.581  0.00  0.00    -0.274 OA
ATOM      3  N2  GSH d           9.755  33.278  -5.541  0.00  0.00    -0.347 N 
ATOM      4  H9  GSH d          10.548  33.111  -4.954  0.00  0.00     0.163 HD
ENDROOT
BRANCH   3   5
ATOM      5  CA2 GSH d           8.635  34.054  -5.002  0.00  0.00     0.097 C 
ATOM      6  H10 GSH d           7.784  33.977  -5.696  0.00  0.00     0.088 H 
BRANCH   5   7
ATOM      7  C2  GSH d           9.046  35.520  -4.867  0.00  0.00     0.241 C 
ATOM      8  O2  GSH d           9.690  36.080  -5.762  0.00  0.00    -0.271 OA
ATOM      9  N3  GSH d           8.661  36.121  -3.736  0.00  0.00    -0.349 N 
ATOM     10  H14 GSH d           8.140  35.598  -3.060  0.00  0.00     0.163 HD
BRANCH   9  11
ATOM     11  CA3 GSH d           8.978  37.515  -3.463  0.00  0.00     0.075 C 
ATOM     12  H15 GSH d           9.786  37.819  -4.146  0.00  0.00     0.080 H 
ATOM     13  H16 GSH d           9.331  37.585  -2.424  0.00  0.00     0.080 H 
BRANCH  11  14
ATOM     14  C3  GSH d           7.836  38.485  -3.632  0.00  0.00     0.191 C 
ATOM     15  O31 GSH d           8.103  39.642  -4.016  0.00  0.00    -0.647 OA
ATOM     16  O32 GSH d           6.677  38.088  -3.387  0.00  0.00    -0.647 OA
ENDBRANCH  11  14
ENDBRANCH   9  11
ENDBRANCH   5   7
BRANCH   5  17
ATOM     17  CB2 GSH d           8.204  33.524  -3.622  0.00  0.00     0.001 C 
ATOM     18  H11 GSH d           7.535  34.261  -3.153  0.00  0.00     0.052 H 
ATOM     19  H12 GSH d           9.100  33.393  -2.997  0.00  0.00     0.052 H 
BRANCH  17  20
ATOM     20  SG2 GSH d           7.324  31.918  -3.736  0.00  0.00    -0.180 SA
ATOM     21  H13 GSH d           6.559  32.001  -4.386  0.00  0.00     0.101 HD
ENDBRANCH  17  20
ENDBRANCH   5  17
ENDBRANCH   3   5
BRANCH   1  22
ATOM     22  CG1 GSH d          11.027  32.028  -7.170  0.00  0.00     0.012 C 
ATOM     23  H7  GSH d          11.103  31.134  -6.533  0.00  0.00     0.047 H 
ATOM     24  H8  GSH d          10.939  31.721  -8.223  0.00  0.00     0.047 H 
BRANCH  22  25
ATOM     25  CB1 GSH d          12.319  32.845  -7.011  0.00  0.00    -0.021 C 
ATOM     26  H5  GSH d          12.892  32.768  -7.946  0.00  0.00     0.037 H 
ATOM     27  H6  GSH d          12.043  33.895  -6.835  0.00  0.00     0.037 H 
BRANCH  25  28
ATOM     28  CA1 GSH d          13.215  32.384  -5.860  0.00  0.00     0.183 C 
ATOM     29  H4  GSH d          14.217  32.159  -6.254  0.00  0.00     0.101 H 
BRANCH  28  30
ATOM     30  N1  GSH d          12.643  31.159  -5.247  0.00  0.00    -0.065 N 
ATOM     31  H1  GSH d          11.640  31.242  -5.201  0.00  0.00     0.275 HD
ATOM     32  H2  GSH d          13.013  31.045  -4.316  0.00  0.00     0.275 HD
ATOM     33  H3  GSH d          12.888  30.357  -5.806  0.00  0.00     0.275 HD
ENDBRANCH  28  30
BRANCH  28  34
ATOM     34  C1  GSH d          13.334  33.477  -4.792  0.00  0.00     0.204 C 
ATOM     35  O11 GSH d          12.382  34.275  -4.650  0.00  0.00    -0.646 OA
ATOM     36  O12 GSH d          14.375  33.528  -4.107  0.00  0.00    -0.646 OA
ENDBRANCH  28  34
ENDBRANCH  25  28
ENDBRANCH  22  25
ENDBRANCH   1  22
TORSDOF 11
ENDMDL
MODEL 8
REMARK VINA RESULT:      -4.3      1.661      5.426
REMARK  11 active torsions:
REMARK  status: ('A' for Active; 'I' for Inactive)
REMARK    1  A    between atoms: N1_1  and  CA1_2 
REMARK    2  A    between atoms: CA1_2  and  C1_3 
REMARK    3  A    between atoms: CA1_2  and  CB1_6 
REMARK    4  A    between atoms: CB1_6  and  CG1_7 
REMARK    5  A    between atoms: CG1_7  and  CD1_8 
REMARK       I    between atoms: CD1_8  and  N2_10 
REMARK    6  A    between atoms: N2_10  and  CA2_11 
REMARK    7  A    between atoms: CA2_11  and  C2_12 
REMARK    8  A    between atoms: CA2_11  and  CB2_14 
REMARK       I    between atoms: C2_12  and  N3_16 
REMARK    9  A    between atoms: CB2_14  and  SG2_15 
REMARK   10  A    between atoms: N3_16  and  CA3_17 
REMARK   11  A    between atoms: CA3_17  and  C3_18 
ROOT
ATOM      1  CD1 GSH d           6.954  35.508  -2.801  0.00  0.00     0.218 C 
ATOM      2  OE1 GSH d           7.302  34.808  -1.834  0.00  0.00    -0.274 OA
ATOM      3  N2  GSH d           7.340  35.264  -4.057  0.00  0.00    -0.347 N 
ATOM      4  H9  GSH d           7.016  35.869  -4.784  0.00  0.00     0.163 HD
ENDROOT
BRANCH   3   5
ATOM      5  CA2 GSH d           8.219  34.148  -4.412  0.00  0.00     0.097 C 
ATOM      6  H10 GSH d           8.567  33.661  -3.489  0.00  0.00     0.088 H 
BRANCH   5   7
ATOM      7  C2  GSH d           9.425  34.673  -5.191  0.00  0.00     0.241 C 
ATOM      8  O2  GSH d           9.295  35.585  -6.017  0.00  0.00    -0.271 OA
ATOM      9  N3  GSH d          10.591  34.082  -4.910  0.00  0.00    -0.349 N 
ATOM     10  H14 GSH d          10.614  33.351  -4.228  0.00  0.00     0.163 HD
BRANCH   9  11
ATOM     11  CA3 GSH d          11.828  34.474  -5.571  0.00  0.00     0.075 C 
ATOM     12  H15 GSH d          11.830  35.570  -5.665  0.00  0.00     0.080 H 
ATOM     13  H16 GSH d          11.835  34.020  -6.573  0.00  0.00     0.080 H 
BRANCH  11  14
ATOM     14  C3  GSH d          13.096  34.065  -4.867  0.00  0.00     0.191 C 
ATOM     15  O31 GSH d          14.052  34.868  -4.868  0.00  0.00    -0.647 OA
ATOM     16  O32 GSH d          13.134  32.946  -4.312  0.00  0.00    -0.647 OA
ENDBRANCH  11  14
ENDBRANCH   9  11
ENDBRANCH   5   7
BRANCH   5  17
ATOM     17  CB2 GSH d           7.479  33.109  -5.277  0.00  0.00     0.001 C 
ATOM     18  H11 GSH d           7.546  33.415  -6.331  0.00  0.00     0.052 H 
ATOM     19  H12 GSH d           6.424  33.080  -4.969  0.00  0.00     0.052 H 
BRANCH  17  20
ATOM     20  SG2 GSH d           8.191  31.427  -5.104  0.00  0.00    -0.180 SA
ATOM     21  H13 GSH d           7.453  30.743  -5.169  0.00  0.00     0.101 HD
ENDBRANCH  17  20
ENDBRANCH   5  17
ENDBRANCH   3   5
BRANCH   1  22
ATOM     22  CG1 GSH d           6.059  36.729  -2.627  0.00  0.00     0.012 C 
ATOM     23  H7  GSH d           5.264  36.687  -3.386  0.00  0.00     0.047 H 
ATOM     24  H8  GSH d           5.610  36.689  -1.622  0.00  0.00     0.047 H 
BRANCH  22  25
ATOM     25  CB1 GSH d           6.795  38.070  -2.773  0.00  0.00    -0.021 C 
ATOM     26  H5  GSH d           6.511  38.516  -3.738  0.00  0.00     0.037 H 
ATOM     27  H6  GSH d           6.474  38.731  -1.955  0.00  0.00     0.037 H 
BRANCH  25  28
ATOM     28  CA1 GSH d           8.320  37.956  -2.728  0.00  0.00     0.183 C 
ATOM     29  H4  GSH d           8.629  37.060  -3.287  0.00  0.00     0.101 H 
BRANCH  28  30
ATOM     30  N1  GSH d           8.766  37.831  -1.318  0.00  0.00    -0.065 N 
ATOM     31  H1  GSH d           7.961  37.768  -0.715  0.00  0.00     0.275 HD
ATOM     32  H2  GSH d           9.313  38.639  -1.066  0.00  0.00     0.275 HD
ATOM     33  H3  GSH d           9.328  37.000  -1.215  0.00  0.00     0.275 HD
ENDBRANCH  28  30
BRANCH  28  34
ATOM     34  C1  GSH d           8.977  39.188  -3.360  0.00  0.00     0.204 C 
ATOM     35  O11 GSH d           8.384  39.761  -4.300  0.00  0.00    -0.646 OA
ATOM     36  O12 GSH d          10.077  39.570  -2.913  0.00  0.00    -0.646 OA
ENDBRANCH  28  34
ENDBRANCH  25  28
ENDBRANCH  22  25
ENDBRANCH   1  22
TORSDOF 11
ENDMDL
MODEL 9
REMARK VINA RESULT:      -4.3      1.792      5.457
REMARK  11 active torsions:
REMARK  status: ('A' for Active; 'I' for Inactive)
REMARK    1  A    between atoms: N1_1  and  CA1_2 
REMARK    2  A    between atoms: CA1_2  and  C1_3 
REMARK    3  A    between atoms: CA1_2  and  CB1_6 
REMARK    4  A    between atoms: CB1_6  and  CG1_7 
REMARK    5  A    between atoms: CG1_7  and  CD1_8 
REMARK       I    between atoms: CD1_8  and  N2_10 
REMARK    6  A    between atoms: N2_10  and  CA2_11 
REMARK    7  A    between atoms: CA2_11  and  C2_12 
REMARK    8  A    between atoms: CA2_11  and  CB2_14 
REMARK       I    between atoms: C2_12  and  N3_16 
REMARK    9  A    between atoms: CB2_14  and  SG2_15 
REMARK   10  A    between atoms: N3_16  and  CA3_17 
REMARK   11  A    between atoms: CA3_17  and  C3_18 
ROOT
ATOM      1  CD1 GSH d           6.456  35.594  -2.490  0.00  0.00     0.218 C 
ATOM      2  OE1 GSH d           6.994  35.012  -1.531  0.00  0.00    -0.274 OA
ATOM      3  N2  GSH d           6.342  35.049  -3.705  0.00  0.00    -0.347 N 
ATOM      4  H9  GSH d           5.892  35.576  -4.426  0.00  0.00     0.163 HD
ENDROOT
BRANCH   3   5
ATOM      5  CA2 GSH d           6.848  33.713  -4.025  0.00  0.00     0.097 C 
ATOM      6  H10 GSH d           7.569  33.411  -3.250  0.00  0.00     0.088 H 
BRANCH   5   7
ATOM      7  C2  GSH d           7.550  33.742  -5.383  0.00  0.00     0.241 C 
ATOM      8  O2  GSH d           7.198  32.980  -6.291  0.00  0.00    -0.271 OA
ATOM      9  N3  GSH d           8.541  34.632  -5.497  0.00  0.00    -0.349 N 
ATOM     10  H14 GSH d           8.765  35.214  -4.715  0.00  0.00     0.163 HD
BRANCH   9  11
ATOM     11  CA3 GSH d           9.303  34.776  -6.729  0.00  0.00     0.075 C 
ATOM     12  H15 GSH d           9.569  35.838  -6.841  0.00  0.00     0.080 H 
ATOM     13  H16 GSH d           8.657  34.470  -7.565  0.00  0.00     0.080 H 
BRANCH  11  14
ATOM     14  C3  GSH d          10.573  33.968  -6.804  0.00  0.00     0.191 C 
ATOM     15  O31 GSH d          10.519  32.840  -7.336  0.00  0.00    -0.647 OA
ATOM     16  O32 GSH d          11.621  34.462  -6.335  0.00  0.00    -0.647 OA
ENDBRANCH  11  14
ENDBRANCH   9  11
ENDBRANCH   5   7
BRANCH   5  17
ATOM     17  CB2 GSH d           5.706  32.680  -4.073  0.00  0.00     0.001 C 
ATOM     18  H11 GSH d           5.775  32.120  -5.017  0.00  0.00     0.052 H 
ATOM     19  H12 GSH d           4.744  33.214  -4.033  0.00  0.00     0.052 H 
BRANCH  17  20
ATOM     20  SG2 GSH d           5.780  31.494  -2.677  0.00  0.00    -0.180 SA
ATOM     21  H13 GSH d           5.927  31.998  -1.816  0.00  0.00     0.101 HD
ENDBRANCH  17  20
ENDBRANCH   5  17
ENDBRANCH   3   5
BRANCH   1  22
ATOM     22  CG1 GSH d           5.890  37.003  -2.358  0.00  0.00     0.012 C 
ATOM     23  H7  GSH d           4.882  37.013  -2.798  0.00  0.00     0.047 H 
ATOM     24  H8  GSH d           5.826  37.252  -1.288  0.00  0.00     0.047 H 
BRANCH  22  25
ATOM     25  CB1 GSH d           6.732  38.082  -3.055  0.00  0.00    -0.021 C 
ATOM     26  H5  GSH d           6.560  38.007  -4.139  0.00  0.00     0.037 H 
ATOM     27  H6  GSH d           6.395  39.066  -2.698  0.00  0.00     0.037 H 
BRANCH  25  28
ATOM     28  CA1 GSH d           8.236  37.967  -2.799  0.00  0.00     0.183 C 
ATOM     29  H4  GSH d           8.626  37.097  -3.347  0.00  0.00     0.101 H 
BRANCH  28  30
ATOM     30  N1  GSH d           8.478  37.782  -1.346  0.00  0.00    -0.065 N 
ATOM     31  H1  GSH d           8.865  36.865  -1.184  0.00  0.00     0.275 HD
ATOM     32  H2  GSH d           7.607  37.872  -0.847  0.00  0.00     0.275 HD
ATOM     33  H3  GSH d           9.126  38.482  -1.021  0.00  0.00     0.275 HD
ENDBRANCH  28  30
BRANCH  28  34
ATOM     34  C1  GSH d           8.967  39.226  -3.278  0.00  0.00     0.204 C 
ATOM     35  O11 GSH d           9.794  39.762  -2.508  0.00  0.00    -0.646 OA
ATOM     36  O12 GSH d           8.707  39.668  -4.416  0.00  0.00    -0.646 OA
ENDBRANCH  28  34
ENDBRANCH  25  28
ENDBRANCH  22  25
ENDBRANCH   1  22
TORSDOF 11
ENDMDL
MODEL 10
REMARK VINA RESULT:      -4.1      2.438      5.789
REMARK  11 active torsions:
REMARK  status: ('A' for Active; 'I' for Inactive)
REMARK    1  A    between atoms: N1_1  and  CA1_2 
REMARK    2  A    between atoms: CA1_2  and  C1_3 
REMARK    3  A    between atoms: CA1_2  and  CB1_6 
REMARK    4  A    between atoms: CB1_6  and  CG1_7 
REMARK    5  A    between atoms: CG1_7  and  CD1_8 
REMARK       I    between atoms: CD1_8  and  N2_10 
REMARK    6  A    between atoms: N2_10  and  CA2_11 
REMARK    7  A    between atoms: CA2_11  and  C2_12 
REMARK    8  A    between atoms: CA2_11  and  CB2_14 
REMARK       I    between atoms: C2_12  and  N3_16 
REMARK    9  A    between atoms: CB2_14  and  SG2_15 
REMARK   10  A    between atoms: N3_16  and  CA3_17 
REMARK   11  A    between atoms: CA3_17  and  C3_18 
ROOT
ATOM      1  CD1 GSH d           9.467  36.047  -4.947  0.00  0.00     0.218 C 
ATOM      2  OE1 GSH d           8.982  35.224  -4.149  0.00  0.00    -0.274 OA
ATOM      3  N2  GSH d          10.077  35.692  -6.081  0.00  0.00    -0.347 N 
ATOM      4  H9  GSH d          10.438  36.411  -6.676  0.00  0.00     0.163 HD
ENDROOT
BRANCH   3   5
ATOM      5  CA2 GSH d          10.240  34.295  -6.491  0.00  0.00     0.097 C 
ATOM      6  H10 GSH d          10.792  34.266  -7.442  0.00  0.00     0.088 H 
BRANCH   5   7
ATOM      7  C2  GSH d           8.865  33.655  -6.685  0.00  0.00     0.241 C 
ATOM      8  O2  GSH d           8.153  33.970  -7.646  0.00  0.00    -0.271 OA
ATOM      9  N3  GSH d           8.514  32.759  -5.757  0.00  0.00    -0.349 N 
ATOM     10  H14 GSH d           9.147  32.559  -5.009  0.00  0.00     0.163 HD
BRANCH   9  11
ATOM     11  CA3 GSH d           7.234  32.066  -5.807  0.00  0.00     0.075 C 
ATOM     12  H15 GSH d           7.417  31.000  -5.605  0.00  0.00     0.080 H 
ATOM     13  H16 GSH d           6.825  32.182  -6.821  0.00  0.00     0.080 H 
BRANCH  11  14
ATOM     14  C3  GSH d           6.196  32.553  -4.828  0.00  0.00     0.191 C 
ATOM     15  O31 GSH d           5.947  33.776  -4.799  0.00  0.00    -0.647 OA
ATOM     16  O32 GSH d           5.629  31.715  -4.095  0.00  0.00    -0.647 OA
ENDBRANCH  11  14
ENDBRANCH   9  11
ENDBRANCH   5   7
BRANCH   5  17
ATOM     17  CB2 GSH d          11.022  33.492  -5.434  0.00  0.00     0.001 C 
ATOM     18  H11 GSH d          11.100  32.448  -5.770  0.00  0.00     0.052 H 
ATOM     19  H12 GSH d          10.472  33.531  -4.482  0.00  0.00     0.052 H 
BRANCH  17  20
ATOM     20  SG2 GSH d          12.712  34.154  -5.167  0.00  0.00    -0.180 SA
ATOM     21  H13 GSH d          13.137  33.682  -4.385  0.00  0.00     0.101 HD
ENDBRANCH  17  20
ENDBRANCH   5  17
ENDBRANCH   3   5
BRANCH   1  22
ATOM     22  CG1 GSH d           9.418  37.547  -4.681  0.00  0.00     0.012 C 
ATOM     23  H7  GSH d          10.138  38.041  -5.350  0.00  0.00     0.047 H 
ATOM     24  H8  GSH d           8.402  37.905  -4.907  0.00  0.00     0.047 H 
BRANCH  22  25
ATOM     25  CB1 GSH d           9.757  37.937  -3.234  0.00  0.00    -0.021 C 
ATOM     26  H5  GSH d          10.259  37.082  -2.756  0.00  0.00     0.037 H 
ATOM     27  H6  GSH d          10.442  38.797  -3.261  0.00  0.00     0.037 H 
BRANCH  25  28
ATOM     28  CA1 GSH d           8.542  38.315  -2.385  0.00  0.00     0.183 C 
ATOM     29  H4  GSH d           8.798  39.186  -1.763  0.00  0.00     0.101 H 
BRANCH  28  30
ATOM     30  N1  GSH d           8.176  37.175  -1.508  0.00  0.00    -0.065 N 
ATOM     31  H1  GSH d           8.492  36.314  -1.926  0.00  0.00     0.275 HD
ATOM     32  H2  GSH d           7.175  37.147  -1.394  0.00  0.00     0.275 HD
ATOM     33  H3  GSH d           8.614  37.291  -0.607  0.00  0.00     0.275 HD
ENDBRANCH  28  30
BRANCH  28  34
ATOM     34  C1  GSH d           7.347  38.674  -3.275  0.00  0.00     0.204 C 
ATOM     35  O11 GSH d           6.397  37.864  -3.349  0.00  0.00    -0.646 OA
ATOM     36  O12 GSH d           7.369  39.758  -3.892  0.00  0.00    -0.646 OA
ENDBRANCH  28  34
ENDBRANCH  25  28
ENDBRANCH  22  25
ENDBRANCH   1  22
TORSDOF 11
ENDMDL
