REMARK  9 active torsions:
REMARK  status: ('A' for Active; 'I' for Inactive)
REMARK    1  A    between atoms: C9_2  and  O37_1 
REMARK    2  A    between atoms: C7_6  and  C6_7 
REMARK    3  A    between atoms: N3_14  and  C25_28 
REMARK    4  A    between atoms: N2_17  and  C21_26 
REMARK    5  A    between atoms: C21_26  and  C26_36 
REMARK    6  A    between atoms: C23_30  and  N4_31 
REMARK    7  A    between atoms: N4_31  and  C28_32 
REMARK    8  A    between atoms: C22_33  and  O6_34 
REMARK    9  A    between atoms: O6_34  and  C27_35 
ROOT
ATOM      1  C21 UCN d           5.203   4.073  15.786  0.00  0.00     0.168 C 
ATOM      2  O4  UCN d           4.303   3.848  16.855  0.00  0.00    -0.333 OA
ATOM      3  C25 UCN d           3.038   4.487  17.064  0.00  0.00     0.115 C 
ATOM      4  C24 UCN d           2.252   4.557  15.695  0.00  0.00     0.005 C 
ATOM      5  C23 UCN d           3.044   3.921  14.517  0.00  0.00     0.134 C 
ATOM      6  C22 UCN d           4.498   4.521  14.421  0.00  0.00     0.113 C 
ATOM      7  H12 UCN d           2.455   3.921  17.805  0.00  0.00     0.118 H 
ATOM      8  H13 UCN d           2.053   5.612  15.457  0.00  0.00     0.042 H 
ATOM      9  H14 UCN d           1.298   4.021  15.809  0.00  0.00     0.042 H 
ATOM     10  H15 UCN d           3.135   2.837  14.683  0.00  0.00     0.088 H 
ATOM     11  H21 UCN d           5.047   4.153  13.542  0.00  0.00     0.094 H 
ENDROOT
BRANCH   5  12
ATOM     12  N4  UCN d           2.178   4.169  13.217  0.00  0.00    -0.072 N 
ATOM     13  H16 UCN d           2.091   5.161  13.063  0.00  0.00     0.277 HD
ATOM     14  H17 UCN d           1.263   3.768  13.348  0.00  0.00     0.277 HD
BRANCH  12  15
ATOM     15  C28 UCN d           2.823   3.540  12.017  0.00  0.00     0.065 C 
ATOM     16  H18 UCN d           2.203   3.726  11.128  0.00  0.00     0.067 H 
ATOM     17  H19 UCN d           2.918   2.456  12.178  0.00  0.00     0.067 H 
ATOM     18  H20 UCN d           3.821   3.977  11.866  0.00  0.00     0.067 H 
ENDBRANCH  12  15
ENDBRANCH   5  12
BRANCH   6  19
ATOM     19  O6  UCN d           4.343   5.966  14.377  0.00  0.00    -0.384 OA
BRANCH  19  20
ATOM     20  C27 UCN d           5.175   6.571  13.399  0.00  0.00     0.005 C 
ATOM     21  H22 UCN d           5.019   7.660  13.408  0.00  0.00     0.066 H 
ATOM     22  H23 UCN d           4.922   6.172  12.405  0.00  0.00     0.066 H 
ATOM     23  H24 UCN d           6.228   6.350  13.626  0.00  0.00     0.066 H 
ENDBRANCH  19  20
ENDBRANCH   6  19
BRANCH   3  24
ATOM     24  N3  UCN d           3.249   5.875  17.538  0.00  0.00    -0.316 N 
ATOM     25  C20 UCN d           2.310   6.590  18.227  0.00  0.00     0.048 A 
ATOM     26  C5  UCN d           2.946   7.762  18.797  0.00  0.00     0.004 A 
ATOM     27  C1  UCN d           0.910   6.314  18.417  0.00  0.00    -0.056 A 
ATOM     28  C6  UCN d           4.305   7.717  18.409  0.00  0.00     0.022 A 
ATOM     29  C4  UCN d           2.138   8.636  19.557  0.00  0.00    -0.070 A 
ATOM     30  C19 UCN d           4.522   6.531  17.606  0.00  0.00     0.077 A 
ATOM     31  C18 UCN d           5.757   6.217  17.061  0.00  0.00     0.077 A 
ATOM     32  N2  UCN d           6.214   5.132  16.220  0.00  0.00    -0.308 N 
ATOM     33  C11 UCN d           6.929   7.070  17.276  0.00  0.00     0.017 A 
ATOM     34  C17 UCN d           7.606   5.281  15.927  0.00  0.00     0.049 A 
ATOM     35  C12 UCN d           8.040   6.496  16.593  0.00  0.00     0.004 A 
ATOM     36  C16 UCN d           8.530   4.544  15.175  0.00  0.00    -0.056 A 
ATOM     37  C13 UCN d           9.388   6.894  16.462  0.00  0.00    -0.070 A 
ATOM     38  C14 UCN d          10.317   6.157  15.716  0.00  0.00    -0.082 A 
ATOM     39  H8  UCN d           9.716   7.802  16.956  0.00  0.00     0.084 H 
ATOM     40  C15 UCN d           9.852   4.952  15.062  0.00  0.00    -0.081 A 
ATOM     41  H9  UCN d          11.349   6.478  15.631  0.00  0.00     0.083 H 
ATOM     42  H10 UCN d          10.546   4.360  14.476  0.00  0.00     0.083 H 
ATOM     43  H11 UCN d           8.207   3.639  14.673  0.00  0.00     0.087 H 
ATOM     44  C10 UCN d           6.718   8.250  18.083  0.00  0.00     0.020 A 
ATOM     45  C9  UCN d           7.763   9.310  18.455  0.00  0.00     0.131 A 
ATOM     46  C7  UCN d           5.533   8.565  18.603  0.00  0.00     0.057 A 
ATOM     47  N1  UCN d           6.918  10.194  19.227  0.00  0.00    -0.326 N 
ATOM     48  H2  UCN d           8.591   8.896  19.049  0.00  0.00     0.126 H 
ATOM     49  C8  UCN d           5.627   9.848  19.364  0.00  0.00     0.255 A 
ATOM     50  H3  UCN d           7.280  11.029  19.642  0.00  0.00     0.165 HD
ATOM     51  O5  UCN d           4.747  10.448  19.963  0.00  0.00    -0.268 OA
ATOM     52  C3  UCN d           0.789   8.386  19.751  0.00  0.00    -0.082 A 
ATOM     53  H7  UCN d           2.582   9.521  19.998  0.00  0.00     0.084 H 
ATOM     54  C2  UCN d           0.161   7.221  19.181  0.00  0.00    -0.081 A 
ATOM     55  H6  UCN d           0.197   9.077  20.340  0.00  0.00     0.083 H 
ATOM     56  H5  UCN d          -0.896   7.045  19.344  0.00  0.00     0.083 H 
ATOM     57  H4  UCN d           0.450   5.434  17.984  0.00  0.00     0.087 H 
BRANCH  45  58
ATOM     58  O37 UCN d           8.270   9.954  17.291  0.00  0.00    -0.372 OA
ATOM     59  H1  UCN d           8.819   9.347  16.808  0.00  0.00     0.212 HD
ENDBRANCH  45  58
ENDBRANCH   3  24
BRANCH   1  60
ATOM     60  C26 UCN d           5.859   2.714  15.565  0.00  0.00    -0.028 C 
ATOM     61  H25 UCN d           5.096   1.985  15.255  0.00  0.00     0.034 H 
ATOM     62  H26 UCN d           6.329   2.377  16.501  0.00  0.00     0.034 H 
ATOM     63  H27 UCN d           6.625   2.800  14.780  0.00  0.00     0.034 H 
ENDBRANCH   1  60
TORSDOF 9
