MODEL 1
REMARK VINA RESULT:     -11.1      0.000      0.000
REMARK  9 active torsions:
REMARK  status: ('A' for Active; 'I' for Inactive)
REMARK    1  A    between atoms: C9_2  and  O37_1 
REMARK    2  A    between atoms: C7_6  and  C6_7 
REMARK    3  A    between atoms: N3_14  and  C25_28 
REMARK    4  A    between atoms: N2_17  and  C21_26 
REMARK    5  A    between atoms: C21_26  and  C26_36 
REMARK    6  A    between atoms: C23_30  and  N4_31 
REMARK    7  A    between atoms: N4_31  and  C28_32 
REMARK    8  A    between atoms: C22_33  and  O6_34 
REMARK    9  A    between atoms: O6_34  and  C27_35 
ROOT
ATOM      1  C21 UCN d           5.699   4.268  13.589  0.00  0.00     0.168 C 
ATOM      2  O4  UCN d           6.107   3.535  14.729  0.00  0.00    -0.333 OA
ATOM      3  C25 UCN d           5.790   3.823  16.096  0.00  0.00     0.115 C 
ATOM      4  C24 UCN d           4.261   4.205  16.212  0.00  0.00     0.005 C 
ATOM      5  C23 UCN d           3.527   4.160  14.842  0.00  0.00     0.134 C 
ATOM      6  C22 UCN d           4.293   5.012  13.759  0.00  0.00     0.113 C 
ATOM      7  H12 UCN d           6.007   2.944  16.720  0.00  0.00     0.118 H 
ATOM      8  H13 UCN d           4.183   5.223  16.620  0.00  0.00     0.042 H 
ATOM      9  H14 UCN d           3.772   3.497  16.898  0.00  0.00     0.042 H 
ATOM     10  H15 UCN d           3.485   3.119  14.486  0.00  0.00     0.088 H 
ATOM     11  H21 UCN d           3.747   5.069  12.806  0.00  0.00     0.094 H 
ENDROOT
BRANCH   5  12
ATOM     12  N4  UCN d           2.054   4.668  15.111  0.00  0.00    -0.072 N 
ATOM     13  H16 UCN d           1.541   4.666  14.245  0.00  0.00     0.277 HD
ATOM     14  H17 UCN d           2.091   5.606  15.478  0.00  0.00     0.277 HD
BRANCH  12  15
ATOM     15  C28 UCN d           1.355   3.781  16.100  0.00  0.00     0.065 C 
ATOM     16  H18 UCN d           0.740   4.396  16.772  0.00  0.00     0.067 H 
ATOM     17  H19 UCN d           2.102   3.229  16.688  0.00  0.00     0.067 H 
ATOM     18  H20 UCN d           0.712   3.069  15.562  0.00  0.00     0.067 H 
ENDBRANCH  12  15
ENDBRANCH   5  12
BRANCH   6  19
ATOM     19  O6  UCN d           4.481   6.333  14.337  0.00  0.00    -0.384 OA
BRANCH  19  20
ATOM     20  C27 UCN d           5.096   7.238  13.432  0.00  0.00     0.005 C 
ATOM     21  H22 UCN d           4.324   7.714  12.809  0.00  0.00     0.066 H 
ATOM     22  H23 UCN d           5.801   6.690  12.788  0.00  0.00     0.066 H 
ATOM     23  H24 UCN d           5.638   8.010  13.997  0.00  0.00     0.066 H 
ENDBRANCH  19  20
ENDBRANCH   6  19
BRANCH   3  24
ATOM     24  N3  UCN d           6.585   4.984  16.562  0.00  0.00    -0.316 N 
ATOM     25  C20 UCN d           7.876   5.219  16.180  0.00  0.00     0.048 A 
ATOM     26  C5  UCN d           8.232   6.572  16.559  0.00  0.00     0.004 A 
ATOM     27  C1  UCN d           8.804   4.345  15.510  0.00  0.00    -0.056 A 
ATOM     28  C6  UCN d           7.098   7.130  17.192  0.00  0.00     0.022 A 
ATOM     29  C4  UCN d           9.537   7.014  16.245  0.00  0.00    -0.070 A 
ATOM     30  C19 UCN d           6.040   6.141  17.210  0.00  0.00     0.077 A 
ATOM     31  C18 UCN d           4.801   6.385  17.782  0.00  0.00     0.077 A 
ATOM     32  N2  UCN d           3.617   5.572  17.949  0.00  0.00    -0.308 N 
ATOM     33  C11 UCN d           4.484   7.676  18.400  0.00  0.00     0.017 A 
ATOM     34  C17 UCN d           2.596   6.311  18.626  0.00  0.00     0.049 A 
ATOM     35  C12 UCN d           3.151   7.624  18.902  0.00  0.00     0.004 A 
ATOM     36  C16 UCN d           1.291   6.018  19.041  0.00  0.00    -0.056 A 
ATOM     37  C13 UCN d           2.350   8.568  19.580  0.00  0.00    -0.070 A 
ATOM     38  C14 UCN d           1.042   8.281  19.992  0.00  0.00    -0.082 A 
ATOM     39  H8  UCN d           2.762   9.549  19.790  0.00  0.00     0.084 H 
ATOM     40  C15 UCN d           0.519   6.962  19.704  0.00  0.00    -0.081 A 
ATOM     41  H9  UCN d           0.442   9.022  20.508  0.00  0.00     0.083 H 
ATOM     42  H10 UCN d          -0.490   6.709  20.011  0.00  0.00     0.083 H 
ATOM     43  H11 UCN d           0.876   5.037  18.840  0.00  0.00     0.087 H 
ATOM     44  C10 UCN d           5.535   8.668  18.377  0.00  0.00     0.020 A 
ATOM     45  C9  UCN d           5.473  10.088  18.955  0.00  0.00     0.131 A 
ATOM     46  C7  UCN d           6.731   8.439  17.838  0.00  0.00     0.057 A 
ATOM     47  N1  UCN d           6.814  10.520  18.628  0.00  0.00    -0.326 N 
ATOM     48  H2  UCN d           4.703  10.707  18.472  0.00  0.00     0.126 H 
ATOM     49  C8  UCN d           7.605   9.642  17.989  0.00  0.00     0.255 A 
ATOM     50  H3  UCN d           7.139  11.435  18.867  0.00  0.00     0.165 HD
ATOM     51  O5  UCN d           8.762   9.796  17.628  0.00  0.00    -0.268 OA
ATOM     52  C3  UCN d          10.443   6.187  15.601  0.00  0.00    -0.082 A 
ATOM     53  H7  UCN d           9.836   8.020  16.514  0.00  0.00     0.084 H 
ATOM     54  C2  UCN d          10.084   4.842  15.227  0.00  0.00    -0.081 A 
ATOM     55  H6  UCN d          11.436   6.557  15.374  0.00  0.00     0.083 H 
ATOM     56  H5  UCN d          10.809   4.211  14.725  0.00  0.00     0.083 H 
ATOM     57  H4  UCN d           8.521   3.336  15.234  0.00  0.00     0.087 H 
BRANCH  45  58
ATOM     58  O37 UCN d           5.262  10.054  20.363  0.00  0.00    -0.372 OA
ATOM     59  H1  UCN d           4.629   9.377  20.572  0.00  0.00     0.212 HD
ENDBRANCH  45  58
ENDBRANCH   3  24
BRANCH   1  60
ATOM     60  C26 UCN d           5.553   3.207  12.503  0.00  0.00    -0.028 C 
ATOM     61  H25 UCN d           6.454   3.202  11.872  0.00  0.00     0.034 H 
ATOM     62  H26 UCN d           4.673   3.435  11.883  0.00  0.00     0.034 H 
ATOM     63  H27 UCN d           5.426   2.219  12.970  0.00  0.00     0.034 H 
ENDBRANCH   1  60
TORSDOF 9
ENDMDL
MODEL 2
REMARK VINA RESULT:      -8.1      1.590      2.131
REMARK  9 active torsions:
REMARK  status: ('A' for Active; 'I' for Inactive)
REMARK    1  A    between atoms: C9_2  and  O37_1 
REMARK    2  A    between atoms: C7_6  and  C6_7 
REMARK    3  A    between atoms: N3_14  and  C25_28 
REMARK    4  A    between atoms: N2_17  and  C21_26 
REMARK    5  A    between atoms: C21_26  and  C26_36 
REMARK    6  A    between atoms: C23_30  and  N4_31 
REMARK    7  A    between atoms: N4_31  and  C28_32 
REMARK    8  A    between atoms: C22_33  and  O6_34 
REMARK    9  A    between atoms: O6_34  and  C27_35 
ROOT
ATOM      1  C21 UCN d           6.106   3.901  13.094  0.00  0.00     0.168 C 
ATOM      2  O4  UCN d           6.071   3.050  14.224  0.00  0.00    -0.333 OA
ATOM      3  C25 UCN d           5.205   3.164  15.360  0.00  0.00     0.115 C 
ATOM      4  C24 UCN d           3.736   3.483  14.871  0.00  0.00     0.005 C 
ATOM      5  C23 UCN d           3.629   3.579  13.322  0.00  0.00     0.134 C 
ATOM      6  C22 UCN d           4.700   4.577  12.740  0.00  0.00     0.113 C 
ATOM      7  H12 UCN d           5.216   2.223  15.930  0.00  0.00     0.118 H 
ATOM      8  H13 UCN d           3.422   4.443  15.307  0.00  0.00     0.042 H 
ATOM      9  H14 UCN d           3.067   2.684  15.223  0.00  0.00     0.042 H 
ATOM     10  H15 UCN d           3.815   2.588  12.883  0.00  0.00     0.088 H 
ATOM     11  H21 UCN d           4.586   4.730  11.657  0.00  0.00     0.094 H 
ENDROOT
BRANCH   5  12
ATOM     12  N4  UCN d           2.139   4.007  13.009  0.00  0.00    -0.072 N 
ATOM     13  H16 UCN d           2.148   4.804  12.392  0.00  0.00     0.277 HD
ATOM     14  H17 UCN d           1.678   4.254  13.870  0.00  0.00     0.277 HD
BRANCH  12  15
ATOM     15  C28 UCN d           1.388   2.887  12.352  0.00  0.00     0.065 C 
ATOM     16  H18 UCN d           0.555   3.299  11.764  0.00  0.00     0.067 H 
ATOM     17  H19 UCN d           0.993   2.209  13.123  0.00  0.00     0.067 H 
ATOM     18  H20 UCN d           2.065   2.331  11.687  0.00  0.00     0.067 H 
ENDBRANCH  12  15
ENDBRANCH   5  12
BRANCH   6  19
ATOM     19  O6  UCN d           4.536   5.825  13.467  0.00  0.00    -0.384 OA
BRANCH  19  20
ATOM     20  C27 UCN d           5.678   6.663  13.370  0.00  0.00     0.005 C 
ATOM     21  H22 UCN d           6.570   6.047  13.187  0.00  0.00     0.066 H 
ATOM     22  H23 UCN d           5.804   7.221  14.311  0.00  0.00     0.066 H 
ATOM     23  H24 UCN d           5.544   7.370  12.539  0.00  0.00     0.066 H 
ENDBRANCH  19  20
ENDBRANCH   6  19
BRANCH   3  24
ATOM     24  N3  UCN d           5.651   4.284  16.221  0.00  0.00    -0.316 N 
ATOM     25  C20 UCN d           6.943   4.725  16.280  0.00  0.00     0.048 A 
ATOM     26  C5  UCN d           6.965   6.005  16.962  0.00  0.00     0.004 A 
ATOM     27  C1  UCN d           8.143   4.106  15.781  0.00  0.00    -0.056 A 
ATOM     28  C6  UCN d           5.629   6.302  17.314  0.00  0.00     0.022 A 
ATOM     29  C4  UCN d           8.219   6.635  17.122  0.00  0.00    -0.070 A 
ATOM     30  C19 UCN d           4.775   5.224  16.859  0.00  0.00     0.077 A 
ATOM     31  C18 UCN d           3.406   5.217  17.072  0.00  0.00     0.077 A 
ATOM     32  N2  UCN d           2.364   4.267  16.748  0.00  0.00    -0.308 N 
ATOM     33  C11 UCN d           2.734   6.317  17.770  0.00  0.00     0.017 A 
ATOM     34  C17 UCN d           1.095   4.744  17.205  0.00  0.00     0.049 A 
ATOM     35  C12 UCN d           1.341   6.026  17.841  0.00  0.00     0.004 A 
ATOM     36  C16 UCN d          -0.211   4.239  17.163  0.00  0.00    -0.056 A 
ATOM     37  C13 UCN d           0.248   6.725  18.397  0.00  0.00    -0.070 A 
ATOM     38  C14 UCN d          -1.060   6.226  18.353  0.00  0.00    -0.082 A 
ATOM     39  H8  UCN d           0.427   7.682  18.875  0.00  0.00     0.084 H 
ATOM     40  C15 UCN d          -1.272   4.944  17.714  0.00  0.00    -0.081 A 
ATOM     41  H9  UCN d          -1.887   6.781  18.782  0.00  0.00     0.083 H 
ATOM     42  H10 UCN d          -2.272   4.530  17.664  0.00  0.00     0.083 H 
ATOM     43  H11 UCN d          -0.396   3.280  16.693  0.00  0.00     0.087 H 
ATOM     44  C10 UCN d           3.581   7.398  18.219  0.00  0.00     0.020 A 
ATOM     45  C9  UCN d           3.142   8.659  18.976  0.00  0.00     0.131 A 
ATOM     46  C7  UCN d           4.899   7.409  18.027  0.00  0.00     0.057 A 
ATOM     47  N1  UCN d           4.436   9.286  19.133  0.00  0.00    -0.326 N 
ATOM     48  H2  UCN d           2.443   9.278  18.394  0.00  0.00     0.126 H 
ATOM     49  C8  UCN d           5.499   8.642  18.622  0.00  0.00     0.255 A 
ATOM     50  H3  UCN d           4.535  10.163  19.602  0.00  0.00     0.165 HD
ATOM     51  O5  UCN d           6.671   8.986  18.648  0.00  0.00    -0.268 OA
ATOM     52  C3  UCN d           9.384   6.054  16.648  0.00  0.00    -0.082 A 
ATOM     53  H7  UCN d           8.272   7.592  17.627  0.00  0.00     0.084 H 
ATOM     54  C2  UCN d           9.357   4.781  15.972  0.00  0.00    -0.081 A 
ATOM     55  H6  UCN d          10.331   6.564  16.787  0.00  0.00     0.083 H 
ATOM     56  H5  UCN d          10.281   4.344  15.610  0.00  0.00     0.083 H 
ATOM     57  H4  UCN d           8.109   3.149  15.274  0.00  0.00     0.087 H 
BRANCH  45  58
ATOM     58  O37 UCN d           2.567   8.322  20.234  0.00  0.00    -0.372 OA
ATOM     59  H1  UCN d           2.736   7.406  20.423  0.00  0.00     0.212 HD
ENDBRANCH  45  58
ENDBRANCH   3  24
BRANCH   1  60
ATOM     60  C26 UCN d           6.496   2.973  11.947  0.00  0.00    -0.028 C 
ATOM     61  H25 UCN d           5.663   2.903  11.233  0.00  0.00     0.034 H 
ATOM     62  H26 UCN d           6.722   1.972  12.346  0.00  0.00     0.034 H 
ATOM     63  H27 UCN d           7.385   3.374  11.437  0.00  0.00     0.034 H 
ENDBRANCH   1  60
TORSDOF 9
ENDMDL
