MODEL 1
REMARK VINA RESULT:     -10.5      0.000      0.000
REMARK  5 active torsions:
REMARK  status: ('A' for Active; 'I' for Inactive)
REMARK    1  A    between atoms: CAW_6  and  C2_7 
REMARK    2  A    between atoms: CAU_12  and  NAQ_13 
REMARK       I    between atoms: NAQ_13  and  CAT_14 
REMARK    3  A    between atoms: CAT_14  and  CAC_16 
REMARK    4  A    between atoms: C6_21  and  NAR_22 
REMARK    5  A    between atoms: NAR_22  and  CAV_23 
ROOT
ATOM      1  C2  G97 d          23.400  -0.869 -19.549  0.00  0.00     0.162 A 
ATOM      2  N1  G97 d          23.364   0.322 -20.189  0.00  0.00    -0.210 NA
ATOM      3  N3  G97 d          22.956  -0.987 -18.282  0.00  0.00    -0.228 NA
ATOM      4  C4  G97 d          22.454   0.072 -17.632  0.00  0.00     0.075 A 
ATOM      5  CAM G97 d          21.990  -0.090 -16.326  0.00  0.00    -0.028 A 
ATOM      6  CAU G97 d          21.450   0.988 -15.629  0.00  0.00     0.037 A 
ATOM      7  CAK G97 d          21.388   2.244 -16.260  0.00  0.00    -0.056 A 
ATOM      8  CAL G97 d          21.859   2.406 -17.572  0.00  0.00    -0.065 A 
ATOM      9  C5  G97 d          22.396   1.316 -18.269  0.00  0.00     0.039 A 
ATOM     10  C6  G97 d          22.870   1.425 -19.587  0.00  0.00     0.144 A 
ATOM     11  H6  G97 d          22.049  -1.063 -15.851  0.00  0.00     0.090 H 
ATOM     12  H11 G97 d          20.973   3.093 -15.730  0.00  0.00     0.086 H 
ATOM     13  H12 G97 d          21.807   3.378 -18.047  0.00  0.00     0.085 H 
ENDROOT
BRANCH   1  14
ATOM     14  CAW G97 d          23.930  -2.007 -20.150  0.00  0.00     0.012 A 
ATOM     15  CAH G97 d          25.009  -1.896 -21.038  0.00  0.00    -0.069 A 
ATOM     16  CAE G97 d          25.576  -3.026 -21.626  0.00  0.00    -0.082 A 
ATOM     17  H1  G97 d          25.409  -0.916 -21.271  0.00  0.00     0.085 H 
ATOM     18  CAD G97 d          25.047  -4.272 -21.313  0.00  0.00    -0.083 A 
ATOM     19  H2  G97 d          26.411  -2.935 -22.312  0.00  0.00     0.083 H 
ATOM     20  CAF G97 d          23.983  -4.401 -20.418  0.00  0.00    -0.082 A 
ATOM     21  H3  G97 d          25.468  -5.159 -21.772  0.00  0.00     0.083 H 
ATOM     22  CAI G97 d          23.415  -3.266 -19.831  0.00  0.00    -0.069 A 
ATOM     23  H4  G97 d          23.596  -5.385 -20.177  0.00  0.00     0.083 H 
ATOM     24  H5  G97 d          22.587  -3.361 -19.138  0.00  0.00     0.085 H 
ENDBRANCH   1  14
BRANCH  10  25
ATOM     25  NAR G97 d          22.840   2.599 -20.252  0.00  0.00    -0.325 N 
ATOM     26  H13 G97 d          22.859   3.467 -19.698  0.00  0.00     0.169 HD
BRANCH  25  27
ATOM     27  CAV G97 d          22.787   2.709 -21.603  0.00  0.00     0.124 A 
ATOM     28  CAJ G97 d          23.182   3.777 -22.291  0.00  0.00    -0.021 A 
ATOM     29  CAG G97 d          22.954   3.475 -23.572  0.00  0.00     0.025 A 
ATOM     30  H14 G97 d          23.600   4.701 -21.894  0.00  0.00     0.091 H 
ATOM     31  NAS G97 d          22.424   2.242 -23.619  0.00  0.00    -0.186 NA
ATOM     32  H15 G97 d          23.162   4.116 -24.428  0.00  0.00     0.117 H 
ATOM     33  NAN G97 d          22.327   1.792 -22.467  0.00  0.00    -0.263 N 
ATOM     34  H16 G97 d          21.953   0.865 -22.215  0.00  0.00     0.190 HD
ENDBRANCH  25  27
ENDBRANCH  10  25
BRANCH   6  35
ATOM     35  NAQ G97 d          21.036   0.761 -14.366  0.00  0.00    -0.324 N 
ATOM     36  CAT G97 d          20.148   1.468 -13.656  0.00  0.00     0.244 C 
ATOM     37  OAB G97 d          19.547   2.461 -14.078  0.00  0.00    -0.268 OA
ATOM     38  H7  G97 d          21.441  -0.029 -13.906  0.00  0.00     0.169 HD
BRANCH  36  39
ATOM     39  CAC G97 d          19.886   1.033 -12.354  0.00  0.00    -0.026 C 
ATOM     40  CAA G97 d          18.982   1.707 -11.534  0.00  0.00    -0.116 C 
ATOM     41  H9  G97 d          18.793   1.349 -10.523  0.00  0.00     0.067 H 
ATOM     42  H10 G97 d          18.465   2.591 -11.905  0.00  0.00     0.067 H 
ATOM     43  H8  G97 d          20.397   0.150 -11.972  0.00  0.00     0.090 H 
ENDBRANCH  36  39
ENDBRANCH   6  35
TORSDOF 5
ENDMDL
