MODEL 1
REMARK VINA RESULT:     -10.7      0.000      0.000
REMARK  5 active torsions:
REMARK  status: ('A' for Active; 'I' for Inactive)
REMARK    1  A    between atoms: CAW_6  and  C2_7 
REMARK    2  A    between atoms: CAU_12  and  NAQ_13 
REMARK       I    between atoms: NAQ_13  and  CAT_14 
REMARK    3  A    between atoms: CAT_14  and  CAC_16 
REMARK    4  A    between atoms: C6_21  and  NAR_22 
REMARK    5  A    between atoms: NAR_22  and  CAV_23 
ROOT
ATOM      1  C2  G97 d          23.387  -0.858 -19.597  0.00  0.00     0.162 A 
ATOM      2  N1  G97 d          23.371   0.307 -20.286  0.00  0.00    -0.210 NA
ATOM      3  N3  G97 d          22.943  -0.915 -18.326  0.00  0.00    -0.228 NA
ATOM      4  C4  G97 d          22.462   0.179 -17.720  0.00  0.00     0.075 A 
ATOM      5  CAM G97 d          21.997   0.079 -16.408  0.00  0.00    -0.028 A 
ATOM      6  CAU G97 d          21.478   1.195 -15.755  0.00  0.00     0.037 A 
ATOM      7  CAK G97 d          21.438   2.424 -16.438  0.00  0.00    -0.056 A 
ATOM      8  CAL G97 d          21.909   2.523 -17.755  0.00  0.00    -0.065 A 
ATOM      9  C5  G97 d          22.425   1.397 -18.408  0.00  0.00     0.039 A 
ATOM     10  C6  G97 d          22.898   1.442 -19.730  0.00  0.00     0.144 A 
ATOM     11  H6  G97 d          22.040  -0.875 -15.893  0.00  0.00     0.090 H 
ATOM     12  H11 G97 d          21.039   3.302 -15.942  0.00  0.00     0.086 H 
ATOM     13  H12 G97 d          21.873   3.476 -18.270  0.00  0.00     0.085 H 
ENDROOT
BRANCH   1  14
ATOM     14  CAW G97 d          23.895  -2.029 -20.152  0.00  0.00     0.012 A 
ATOM     15  CAH G97 d          24.985  -1.975 -21.032  0.00  0.00    -0.069 A 
ATOM     16  CAE G97 d          25.531  -3.139 -21.573  0.00  0.00    -0.082 A 
ATOM     17  H1  G97 d          25.411  -1.014 -21.295  0.00  0.00     0.085 H 
ATOM     18  CAD G97 d          24.968  -4.360 -21.221  0.00  0.00    -0.083 A 
ATOM     19  H2  G97 d          26.374  -3.092 -22.252  0.00  0.00     0.083 H 
ATOM     20  CAF G97 d          23.892  -4.431 -20.334  0.00  0.00    -0.082 A 
ATOM     21  H3  G97 d          25.372  -5.273 -21.643  0.00  0.00     0.083 H 
ATOM     22  CAI G97 d          23.347  -3.263 -19.794  0.00  0.00    -0.069 A 
ATOM     23  H4  G97 d          23.479  -5.396 -20.062  0.00  0.00     0.083 H 
ATOM     24  H5  G97 d          22.509  -3.313 -19.107  0.00  0.00     0.085 H 
ENDBRANCH   1  14
BRANCH  10  25
ATOM     25  NAR G97 d          22.888   2.588 -20.442  0.00  0.00    -0.325 N 
ATOM     26  H13 G97 d          22.884   3.478 -19.924  0.00  0.00     0.169 HD
BRANCH  25  27
ATOM     27  CAV G97 d          22.883   2.643 -21.798  0.00  0.00     0.124 A 
ATOM     28  CAJ G97 d          23.339   3.667 -22.515  0.00  0.00    -0.021 A 
ATOM     29  CAG G97 d          23.142   3.319 -23.790  0.00  0.00     0.025 A 
ATOM     30  H14 G97 d          23.779   4.591 -22.142  0.00  0.00     0.091 H 
ATOM     31  NAS G97 d          22.568   2.105 -23.805  0.00  0.00    -0.186 NA
ATOM     32  H15 G97 d          23.402   3.916 -24.663  0.00  0.00     0.117 H 
ATOM     33  NAN G97 d          22.417   1.708 -22.639  0.00  0.00    -0.263 N 
ATOM     34  H16 G97 d          22.001   0.806 -22.362  0.00  0.00     0.190 HD
ENDBRANCH  25  27
ENDBRANCH  10  25
BRANCH   6  35
ATOM     35  NAQ G97 d          21.063   1.027 -14.483  0.00  0.00    -0.324 N 
ATOM     36  CAT G97 d          19.972   1.543 -13.904  0.00  0.00     0.244 C 
ATOM     37  OAB G97 d          19.149   2.263 -14.479  0.00  0.00    -0.268 OA
ATOM     38  H7  G97 d          21.638   0.449 -13.905  0.00  0.00     0.169 HD
BRANCH  36  39
ATOM     39  CAC G97 d          19.756   1.225 -12.560  0.00  0.00    -0.026 C 
ATOM     40  CAA G97 d          20.549   0.286 -11.902  0.00  0.00    -0.116 C 
ATOM     41  H9  G97 d          20.362   0.056 -10.854  0.00  0.00     0.067 H 
ATOM     42  H10 G97 d          21.355  -0.216 -12.436  0.00  0.00     0.067 H 
ATOM     43  H8  G97 d          18.952   1.721 -12.017  0.00  0.00     0.090 H 
ENDBRANCH  36  39
ENDBRANCH   6  35
TORSDOF 5
ENDMDL
MODEL 2
REMARK VINA RESULT:     -10.0      2.328      6.392
REMARK  5 active torsions:
REMARK  status: ('A' for Active; 'I' for Inactive)
REMARK    1  A    between atoms: CAW_6  and  C2_7 
REMARK    2  A    between atoms: CAU_12  and  NAQ_13 
REMARK       I    between atoms: NAQ_13  and  CAT_14 
REMARK    3  A    between atoms: CAT_14  and  CAC_16 
REMARK    4  A    between atoms: C6_21  and  NAR_22 
REMARK    5  A    between atoms: NAR_22  and  CAV_23 
ROOT
ATOM      1  C2  G97 d          23.423  -1.064 -19.772  0.00  0.00     0.162 A 
ATOM      2  N1  G97 d          23.106  -0.756 -18.492  0.00  0.00    -0.210 NA
ATOM      3  N3  G97 d          23.372  -0.128 -20.740  0.00  0.00    -0.228 NA
ATOM      4  C4  G97 d          23.023   1.134 -20.454  0.00  0.00     0.075 A 
ATOM      5  CAM G97 d          22.996   2.080 -21.479  0.00  0.00    -0.028 A 
ATOM      6  CAU G97 d          22.650   3.402 -21.212  0.00  0.00     0.037 A 
ATOM      7  CAK G97 d          22.320   3.765 -19.893  0.00  0.00    -0.056 A 
ATOM      8  CAL G97 d          22.344   2.812 -18.865  0.00  0.00    -0.065 A 
ATOM      9  C5  G97 d          22.698   1.485 -19.140  0.00  0.00     0.039 A 
ATOM     10  C6  G97 d          22.747   0.496 -18.142  0.00  0.00     0.144 A 
ATOM     11  H6  G97 d          23.248   1.783 -22.492  0.00  0.00     0.090 H 
ATOM     12  H11 G97 d          22.046   4.791 -19.670  0.00  0.00     0.086 H 
ATOM     13  H12 G97 d          22.087   3.104 -17.853  0.00  0.00     0.085 H 
ENDROOT
BRANCH   1  14
ATOM     14  CAW G97 d          23.770  -2.358 -20.148  0.00  0.00     0.012 A 
ATOM     15  CAH G97 d          24.863  -2.573 -21.000  0.00  0.00    -0.069 A 
ATOM     16  CAE G97 d          25.249  -3.862 -21.363  0.00  0.00    -0.082 A 
ATOM     17  H1  G97 d          25.417  -1.723 -21.381  0.00  0.00     0.085 H 
ATOM     18  CAD G97 d          24.524  -4.937 -20.863  0.00  0.00    -0.083 A 
ATOM     19  H2  G97 d          26.095  -4.024 -22.022  0.00  0.00     0.083 H 
ATOM     20  CAF G97 d          23.442  -4.740 -20.002  0.00  0.00    -0.082 A 
ATOM     21  H3  G97 d          24.802  -5.945 -21.147  0.00  0.00     0.083 H 
ATOM     22  CAI G97 d          23.057  -3.446 -19.640  0.00  0.00    -0.069 A 
ATOM     23  H4  G97 d          22.900  -5.594 -19.612  0.00  0.00     0.083 H 
ATOM     24  H5  G97 d          22.216  -3.288 -18.973  0.00  0.00     0.085 H 
ENDBRANCH   1  14
BRANCH  10  25
ATOM     25  NAR G97 d          22.443   0.776 -16.857  0.00  0.00    -0.325 N 
ATOM     26  H13 G97 d          22.645   1.725 -16.510  0.00  0.00     0.169 HD
BRANCH  25  27
ATOM     27  CAV G97 d          21.890  -0.112 -15.994  0.00  0.00     0.124 A 
ATOM     28  CAJ G97 d          21.397   0.202 -14.799  0.00  0.00    -0.021 A 
ATOM     29  CAG G97 d          20.964  -0.951 -14.283  0.00  0.00     0.025 A 
ATOM     30  H14 G97 d          21.356   1.188 -14.339  0.00  0.00     0.091 H 
ATOM     31  NAS G97 d          21.213  -1.924 -15.174  0.00  0.00    -0.186 NA
ATOM     32  H15 G97 d          20.491  -1.080 -13.310  0.00  0.00     0.117 H 
ATOM     33  NAN G97 d          21.755  -1.434 -16.177  0.00  0.00    -0.263 N 
ATOM     34  H16 G97 d          22.052  -1.956 -17.014  0.00  0.00     0.190 HD
ENDBRANCH  25  27
ENDBRANCH  10  25
BRANCH   6  35
ATOM     35  NAQ G97 d          22.631   4.257 -22.255  0.00  0.00    -0.324 N 
ATOM     36  CAT G97 d          21.597   4.549 -23.054  0.00  0.00     0.244 C 
ATOM     37  OAB G97 d          20.465   4.067 -22.938  0.00  0.00    -0.268 OA
ATOM     38  H7  G97 d          23.489   4.728 -22.454  0.00  0.00     0.169 HD
BRANCH  36  39
ATOM     39  CAC G97 d          21.827   5.471 -24.078  0.00  0.00    -0.026 C 
ATOM     40  CAA G97 d          22.851   5.282 -25.006  0.00  0.00    -0.116 C 
ATOM     41  H9  G97 d          23.011   6.014 -25.796  0.00  0.00     0.067 H 
ATOM     42  H10 G97 d          23.490   4.402 -24.940  0.00  0.00     0.067 H 
ATOM     43  H8  G97 d          21.195   6.355 -24.154  0.00  0.00     0.090 H 
ENDBRANCH  36  39
ENDBRANCH   6  35
TORSDOF 5
ENDMDL
MODEL 3
REMARK VINA RESULT:      -9.9      0.979      1.025
REMARK  5 active torsions:
REMARK  status: ('A' for Active; 'I' for Inactive)
REMARK    1  A    between atoms: CAW_6  and  C2_7 
REMARK    2  A    between atoms: CAU_12  and  NAQ_13 
REMARK       I    between atoms: NAQ_13  and  CAT_14 
REMARK    3  A    between atoms: CAT_14  and  CAC_16 
REMARK    4  A    between atoms: C6_21  and  NAR_22 
REMARK    5  A    between atoms: NAR_22  and  CAV_23 
ROOT
ATOM      1  C2  G97 d          23.455  -0.751 -19.730  0.00  0.00     0.162 A 
ATOM      2  N1  G97 d          23.513   0.406 -20.430  0.00  0.00    -0.210 NA
ATOM      3  N3  G97 d          22.959  -0.777 -18.477  0.00  0.00    -0.228 NA
ATOM      4  C4  G97 d          22.498   0.341 -17.901  0.00  0.00     0.075 A 
ATOM      5  CAM G97 d          21.977   0.274 -16.608  0.00  0.00    -0.028 A 
ATOM      6  CAU G97 d          21.478   1.417 -15.987  0.00  0.00     0.037 A 
ATOM      7  CAK G97 d          21.514   2.640 -16.683  0.00  0.00    -0.056 A 
ATOM      8  CAL G97 d          22.041   2.706 -17.980  0.00  0.00    -0.065 A 
ATOM      9  C5  G97 d          22.537   1.552 -18.601  0.00  0.00     0.039 A 
ATOM     10  C6  G97 d          23.064   1.564 -19.903  0.00  0.00     0.144 A 
ATOM     11  H6  G97 d          21.961  -0.674 -16.083  0.00  0.00     0.090 H 
ATOM     12  H11 G97 d          21.130   3.538 -16.211  0.00  0.00     0.086 H 
ATOM     13  H12 G97 d          22.064   3.653 -18.506  0.00  0.00     0.085 H 
ENDROOT
BRANCH   1  14
ATOM     14  CAW G97 d          23.938  -1.947 -20.252  0.00  0.00     0.012 A 
ATOM     15  CAH G97 d          25.066  -1.947 -21.085  0.00  0.00    -0.069 A 
ATOM     16  CAE G97 d          25.586  -3.137 -21.593  0.00  0.00    -0.082 A 
ATOM     17  H1  G97 d          25.542  -1.006 -21.338  0.00  0.00     0.085 H 
ATOM     18  CAD G97 d          24.960  -4.331 -21.256  0.00  0.00    -0.083 A 
ATOM     19  H2  G97 d          26.459  -3.131 -22.236  0.00  0.00     0.083 H 
ATOM     20  CAF G97 d          23.845  -4.349 -20.414  0.00  0.00    -0.082 A 
ATOM     21  H3  G97 d          25.343  -5.263 -21.652  0.00  0.00     0.083 H 
ATOM     22  CAI G97 d          23.325  -3.154 -19.908  0.00  0.00    -0.069 A 
ATOM     23  H4  G97 d          23.382  -5.294 -20.153  0.00  0.00     0.083 H 
ATOM     24  H5  G97 d          22.458  -3.164 -19.257  0.00  0.00     0.085 H 
ENDBRANCH   1  14
BRANCH  10  25
ATOM     25  NAR G97 d          23.129   2.702 -20.626  0.00  0.00    -0.325 N 
ATOM     26  H13 G97 d          23.700   3.476 -20.258  0.00  0.00     0.169 HD
BRANCH  25  27
ATOM     27  CAV G97 d          22.489   2.892 -21.807  0.00  0.00     0.124 A 
ATOM     28  CAJ G97 d          22.618   3.974 -22.572  0.00  0.00    -0.021 A 
ATOM     29  CAG G97 d          21.822   3.758 -23.623  0.00  0.00     0.025 A 
ATOM     30  H14 G97 d          23.239   4.847 -22.381  0.00  0.00     0.091 H 
ATOM     31  NAS G97 d          21.232   2.563 -23.459  0.00  0.00    -0.186 NA
ATOM     32  H15 G97 d          21.676   4.434 -24.465  0.00  0.00     0.117 H 
ATOM     33  NAN G97 d          21.623   2.054 -22.397  0.00  0.00    -0.263 N 
ATOM     34  H16 G97 d          21.330   1.138 -22.028  0.00  0.00     0.190 HD
ENDBRANCH  25  27
ENDBRANCH  10  25
BRANCH   6  35
ATOM     35  NAQ G97 d          21.005   1.279 -14.732  0.00  0.00    -0.324 N 
ATOM     36  CAT G97 d          20.878   0.150 -14.024  0.00  0.00     0.244 C 
ATOM     37  OAB G97 d          21.201  -0.971 -14.433  0.00  0.00    -0.268 OA
ATOM     38  H7  G97 d          20.716   2.120 -14.275  0.00  0.00     0.169 HD
BRANCH  36  39
ATOM     39  CAC G97 d          20.354   0.264 -12.735  0.00  0.00    -0.026 C 
ATOM     40  CAA G97 d          19.016   0.595 -12.523  0.00  0.00    -0.116 C 
ATOM     41  H9  G97 d          18.629   0.678 -11.509  0.00  0.00     0.067 H 
ATOM     42  H10 G97 d          18.358   0.771 -13.373  0.00  0.00     0.067 H 
ATOM     43  H8  G97 d          21.003   0.090 -11.877  0.00  0.00     0.090 H 
ENDBRANCH  36  39
ENDBRANCH   6  35
TORSDOF 5
ENDMDL
MODEL 4
REMARK VINA RESULT:      -9.7      1.538      4.783
REMARK  5 active torsions:
REMARK  status: ('A' for Active; 'I' for Inactive)
REMARK    1  A    between atoms: CAW_6  and  C2_7 
REMARK    2  A    between atoms: CAU_12  and  NAQ_13 
REMARK       I    between atoms: NAQ_13  and  CAT_14 
REMARK    3  A    between atoms: CAT_14  and  CAC_16 
REMARK    4  A    between atoms: C6_21  and  NAR_22 
REMARK    5  A    between atoms: NAR_22  and  CAV_23 
ROOT
ATOM      1  C2  G97 d          22.759   2.033 -20.256  0.00  0.00     0.162 A 
ATOM      2  N1  G97 d          23.150   0.738 -20.282  0.00  0.00    -0.210 NA
ATOM      3  N3  G97 d          22.215   2.569 -19.146  0.00  0.00    -0.228 NA
ATOM      4  C4  G97 d          22.063   1.834 -18.035  0.00  0.00     0.075 A 
ATOM      5  CAM G97 d          21.510   2.427 -16.900  0.00  0.00    -0.028 A 
ATOM      6  CAU G97 d          21.352   1.693 -15.726  0.00  0.00     0.037 A 
ATOM      7  CAK G97 d          21.751   0.344 -15.708  0.00  0.00    -0.056 A 
ATOM      8  CAL G97 d          22.303  -0.250 -16.852  0.00  0.00    -0.065 A 
ATOM      9  C5  G97 d          22.464   0.494 -18.027  0.00  0.00     0.039 A 
ATOM     10  C6  G97 d          23.022  -0.053 -19.195  0.00  0.00     0.144 A 
ATOM     11  H6  G97 d          21.202   3.466 -16.931  0.00  0.00     0.090 H 
ATOM     12  H11 G97 d          21.632  -0.240 -14.803  0.00  0.00     0.086 H 
ATOM     13  H12 G97 d          22.606  -1.291 -16.826  0.00  0.00     0.085 H 
ENDROOT
BRANCH   1  14
ATOM     14  CAW G97 d          22.862   2.850 -21.378  0.00  0.00     0.012 A 
ATOM     15  CAH G97 d          23.124   2.289 -22.636  0.00  0.00    -0.069 A 
ATOM     16  CAE G97 d          23.199   3.087 -23.777  0.00  0.00    -0.082 A 
ATOM     17  H1  G97 d          23.271   1.219 -22.722  0.00  0.00     0.085 H 
ATOM     18  CAD G97 d          23.009   4.457 -23.642  0.00  0.00    -0.083 A 
ATOM     19  H2  G97 d          23.402   2.648 -24.748  0.00  0.00     0.083 H 
ATOM     20  CAF G97 d          22.731   5.029 -22.399  0.00  0.00    -0.082 A 
ATOM     21  H3  G97 d          23.077   5.092 -24.517  0.00  0.00     0.083 H 
ATOM     22  CAI G97 d          22.658   4.227 -21.256  0.00  0.00    -0.069 A 
ATOM     23  H4  G97 d          22.571   6.098 -22.320  0.00  0.00     0.083 H 
ATOM     24  H5  G97 d          22.445   4.668 -20.288  0.00  0.00     0.085 H 
ENDBRANCH   1  14
BRANCH  10  25
ATOM     25  NAR G97 d          23.427  -1.339 -19.247  0.00  0.00    -0.325 N 
ATOM     26  H13 G97 d          23.042  -1.994 -18.551  0.00  0.00     0.169 HD
BRANCH  25  27
ATOM     27  CAV G97 d          24.308  -1.825 -20.156  0.00  0.00     0.124 A 
ATOM     28  CAJ G97 d          24.368  -3.096 -20.547  0.00  0.00    -0.021 A 
ATOM     29  CAG G97 d          25.366  -3.145 -21.434  0.00  0.00     0.025 A 
ATOM     30  H14 G97 d          23.739  -3.920 -20.214  0.00  0.00     0.091 H 
ATOM     31  NAS G97 d          25.882  -1.910 -21.547  0.00  0.00    -0.186 NA
ATOM     32  H15 G97 d          25.702  -4.030 -21.971  0.00  0.00     0.117 H 
ATOM     33  NAN G97 d          25.262  -1.136 -20.799  0.00  0.00    -0.263 N 
ATOM     34  H16 G97 d          25.450  -0.129 -20.691  0.00  0.00     0.190 HD
ENDBRANCH  25  27
ENDBRANCH  10  25
BRANCH   6  35
ATOM     35  NAQ G97 d          20.795   2.327 -14.674  0.00  0.00    -0.324 N 
ATOM     36  CAT G97 d          19.567   2.853 -14.591  0.00  0.00     0.244 C 
ATOM     37  OAB G97 d          18.730   2.820 -15.499  0.00  0.00    -0.268 OA
ATOM     38  H7  G97 d          21.368   2.413 -13.859  0.00  0.00     0.169 HD
BRANCH  36  39
ATOM     39  CAC G97 d          19.220   3.468 -13.386  0.00  0.00    -0.026 C 
ATOM     40  CAA G97 d          19.963   4.531 -12.874  0.00  0.00    -0.116 C 
ATOM     41  H9  G97 d          19.673   4.995 -11.933  0.00  0.00     0.067 H 
ATOM     42  H10 G97 d          20.834   4.897 -13.417  0.00  0.00     0.067 H 
ATOM     43  H8  G97 d          18.351   3.111 -12.834  0.00  0.00     0.090 H 
ENDBRANCH  36  39
ENDBRANCH   6  35
TORSDOF 5
ENDMDL
MODEL 5
REMARK VINA RESULT:      -8.2      2.761      8.117
REMARK  5 active torsions:
REMARK  status: ('A' for Active; 'I' for Inactive)
REMARK    1  A    between atoms: CAW_6  and  C2_7 
REMARK    2  A    between atoms: CAU_12  and  NAQ_13 
REMARK       I    between atoms: NAQ_13  and  CAT_14 
REMARK    3  A    between atoms: CAT_14  and  CAC_16 
REMARK    4  A    between atoms: C6_21  and  NAR_22 
REMARK    5  A    between atoms: NAR_22  and  CAV_23 
ROOT
ATOM      1  C2  G97 d          21.125  -0.686 -13.839  0.00  0.00     0.162 A 
ATOM      2  N1  G97 d          20.544   0.506 -13.567  0.00  0.00    -0.210 NA
ATOM      3  N3  G97 d          21.754  -0.897 -15.012  0.00  0.00    -0.228 NA
ATOM      4  C4  G97 d          21.831   0.075 -15.931  0.00  0.00     0.075 A 
ATOM      5  CAM G97 d          22.503  -0.174 -17.128  0.00  0.00    -0.028 A 
ATOM      6  CAU G97 d          22.612   0.820 -18.097  0.00  0.00     0.037 A 
ATOM      7  CAK G97 d          22.028   2.076 -17.852  0.00  0.00    -0.056 A 
ATOM      8  CAL G97 d          21.350   2.324 -16.650  0.00  0.00    -0.065 A 
ATOM      9  C5  G97 d          21.248   1.321 -15.677  0.00  0.00     0.039 A 
ATOM     10  C6  G97 d          20.589   1.524 -14.453  0.00  0.00     0.144 A 
ATOM     11  H6  G97 d          22.944  -1.149 -17.304  0.00  0.00     0.090 H 
ATOM     12  H11 G97 d          22.103   2.859 -18.599  0.00  0.00     0.086 H 
ATOM     13  H12 G97 d          20.903   3.295 -16.473  0.00  0.00     0.085 H 
ENDROOT
BRANCH   1  14
ATOM     14  CAW G97 d          21.064  -1.750 -12.944  0.00  0.00     0.012 A 
ATOM     15  CAH G97 d          19.985  -1.861 -12.055  0.00  0.00    -0.069 A 
ATOM     16  CAE G97 d          19.888  -2.936 -11.173  0.00  0.00    -0.082 A 
ATOM     17  H1  G97 d          19.215  -1.099 -12.054  0.00  0.00     0.085 H 
ATOM     18  CAD G97 d          20.888  -3.902 -11.192  0.00  0.00    -0.083 A 
ATOM     19  H2  G97 d          19.052  -3.018 -10.488  0.00  0.00     0.083 H 
ATOM     20  CAF G97 d          21.960  -3.814 -12.082  0.00  0.00    -0.082 A 
ATOM     21  H3  G97 d          20.834  -4.737 -10.504  0.00  0.00     0.083 H 
ATOM     22  CAI G97 d          22.056  -2.733 -12.964  0.00  0.00    -0.069 A 
ATOM     23  H4  G97 d          22.721  -4.586 -12.089  0.00  0.00     0.083 H 
ATOM     24  H5  G97 d          22.889  -2.660 -13.655  0.00  0.00     0.085 H 
ENDBRANCH   1  14
BRANCH  10  25
ATOM     25  NAR G97 d          20.007   2.704 -14.153  0.00  0.00    -0.325 N 
ATOM     26  H13 G97 d          19.827   3.362 -14.924  0.00  0.00     0.169 HD
BRANCH  25  27
ATOM     27  CAV G97 d          19.643   3.078 -12.901  0.00  0.00     0.124 A 
ATOM     28  CAJ G97 d          20.244   4.029 -12.191  0.00  0.00    -0.021 A 
ATOM     29  CAG G97 d          19.586   4.071 -11.030  0.00  0.00     0.025 A 
ATOM     30  H14 G97 d          21.091   4.643 -12.493  0.00  0.00     0.091 H 
ATOM     31  NAS G97 d          18.616   3.143 -11.068  0.00  0.00    -0.186 NA
ATOM     32  H15 G97 d          19.798   4.741 -10.197  0.00  0.00     0.117 H 
ATOM     33  NAN G97 d          18.649   2.561 -12.164  0.00  0.00    -0.263 N 
ATOM     34  H16 G97 d          18.015   1.804 -12.459  0.00  0.00     0.190 HD
ENDBRANCH  25  27
ENDBRANCH  10  25
BRANCH   6  35
ATOM     35  NAQ G97 d          23.262   0.502 -19.236  0.00  0.00    -0.324 N 
ATOM     36  CAT G97 d          23.551  -0.720 -19.699  0.00  0.00     0.244 C 
ATOM     37  OAB G97 d          23.240  -1.774 -19.133  0.00  0.00    -0.268 OA
ATOM     38  H7  G97 d          23.562   1.270 -19.801  0.00  0.00     0.169 HD
BRANCH  36  39
ATOM     39  CAC G97 d          24.242  -0.793 -20.911  0.00  0.00    -0.026 C 
ATOM     40  CAA G97 d          24.871  -1.970 -21.316  0.00  0.00    -0.116 C 
ATOM     41  H9  G97 d          25.403  -2.003 -22.265  0.00  0.00     0.067 H 
ATOM     42  H10 G97 d          24.829  -2.856 -20.683  0.00  0.00     0.067 H 
ATOM     43  H8  G97 d          24.291   0.086 -21.552  0.00  0.00     0.090 H 
ENDBRANCH  36  39
ENDBRANCH   6  35
TORSDOF 5
ENDMDL
MODEL 6
REMARK VINA RESULT:      -8.1      3.063      8.756
REMARK  5 active torsions:
REMARK  status: ('A' for Active; 'I' for Inactive)
REMARK    1  A    between atoms: CAW_6  and  C2_7 
REMARK    2  A    between atoms: CAU_12  and  NAQ_13 
REMARK       I    between atoms: NAQ_13  and  CAT_14 
REMARK    3  A    between atoms: CAT_14  and  CAC_16 
REMARK    4  A    between atoms: C6_21  and  NAR_22 
REMARK    5  A    between atoms: NAR_22  and  CAV_23 
ROOT
ATOM      1  C2  G97 d          20.615   2.506 -15.426  0.00  0.00     0.162 A 
ATOM      2  N1  G97 d          21.005   1.273 -15.026  0.00  0.00    -0.210 NA
ATOM      3  N3  G97 d          20.967   2.983 -16.637  0.00  0.00    -0.228 NA
ATOM      4  C4  G97 d          21.699   2.240 -17.478  0.00  0.00     0.075 A 
ATOM      5  CAM G97 d          22.032   2.760 -18.729  0.00  0.00    -0.028 A 
ATOM      6  CAU G97 d          22.781   2.007 -19.631  0.00  0.00     0.037 A 
ATOM      7  CAK G97 d          23.201   0.718 -19.256  0.00  0.00    -0.056 A 
ATOM      8  CAL G97 d          22.868   0.198 -17.997  0.00  0.00    -0.065 A 
ATOM      9  C5  G97 d          22.111   0.958 -17.096  0.00  0.00     0.039 A 
ATOM     10  C6  G97 d          21.743   0.478 -15.828  0.00  0.00     0.144 A 
ATOM     11  H6  G97 d          21.705   3.758 -19.001  0.00  0.00     0.090 H 
ATOM     12  H11 G97 d          23.786   0.121 -19.947  0.00  0.00     0.086 H 
ATOM     13  H12 G97 d          23.198  -0.796 -17.719  0.00  0.00     0.085 H 
ENDROOT
BRANCH   1  14
ATOM     14  CAW G97 d          19.875   3.344 -14.598  0.00  0.00     0.012 A 
ATOM     15  CAH G97 d          19.847   3.121 -13.214  0.00  0.00    -0.069 A 
ATOM     16  CAE G97 d          19.139   3.968 -12.363  0.00  0.00    -0.082 A 
ATOM     17  H1  G97 d          20.385   2.277 -12.800  0.00  0.00     0.085 H 
ATOM     18  CAD G97 d          18.456   5.045 -12.917  0.00  0.00    -0.083 A 
ATOM     19  H2  G97 d          19.121   3.792 -11.293  0.00  0.00     0.083 H 
ATOM     20  CAF G97 d          18.486   5.290 -14.291  0.00  0.00    -0.082 A 
ATOM     21  H3  G97 d          17.889   5.705 -12.271  0.00  0.00     0.083 H 
ATOM     22  CAI G97 d          19.196   4.438 -15.143  0.00  0.00    -0.069 A 
ATOM     23  H4  G97 d          17.958   6.144 -14.699  0.00  0.00     0.083 H 
ATOM     24  H5  G97 d          19.220   4.623 -16.211  0.00  0.00     0.085 H 
ENDBRANCH   1  14
BRANCH  10  25
ATOM     25  NAR G97 d          22.112  -0.749 -15.405  0.00  0.00    -0.325 N 
ATOM     26  H13 G97 d          23.053  -1.083 -15.659  0.00  0.00     0.169 HD
BRANCH  25  27
ATOM     27  CAV G97 d          21.324  -1.570 -14.668  0.00  0.00     0.124 A 
ATOM     28  CAJ G97 d          20.651  -2.610 -15.154  0.00  0.00    -0.021 A 
ATOM     29  CAG G97 d          20.007  -3.133 -14.107  0.00  0.00     0.025 A 
ATOM     30  H14 G97 d          20.629  -2.960 -16.185  0.00  0.00     0.091 H 
ATOM     31  NAS G97 d          20.302  -2.392 -13.026  0.00  0.00    -0.186 NA
ATOM     32  H15 G97 d          19.357  -4.007 -14.126  0.00  0.00     0.117 H 
ATOM     33  NAN G97 d          21.074  -1.477 -13.353  0.00  0.00    -0.263 N 
ATOM     34  H16 G97 d          21.459  -0.763 -12.718  0.00  0.00     0.190 HD
ENDBRANCH  25  27
ENDBRANCH  10  25
BRANCH   6  35
ATOM     35  NAQ G97 d          23.078   2.581 -20.815  0.00  0.00    -0.324 N 
ATOM     36  CAT G97 d          22.897   2.071 -22.039  0.00  0.00     0.244 C 
ATOM     37  OAB G97 d          22.399   0.963 -22.269  0.00  0.00    -0.268 OA
ATOM     38  H7  G97 d          23.481   3.494 -20.772  0.00  0.00     0.169 HD
BRANCH  36  39
ATOM     39  CAC G97 d          23.293   2.862 -23.121  0.00  0.00    -0.026 C 
ATOM     40  CAA G97 d          22.512   2.957 -24.272  0.00  0.00    -0.116 C 
ATOM     41  H9  G97 d          22.840   3.580 -25.102  0.00  0.00     0.067 H 
ATOM     42  H10 G97 d          21.573   2.408 -24.340  0.00  0.00     0.067 H 
ATOM     43  H8  G97 d          24.230   3.415 -23.064  0.00  0.00     0.090 H 
ENDBRANCH  36  39
ENDBRANCH   6  35
TORSDOF 5
ENDMDL
MODEL 7
REMARK VINA RESULT:      -7.9      3.166      7.773
REMARK  5 active torsions:
REMARK  status: ('A' for Active; 'I' for Inactive)
REMARK    1  A    between atoms: CAW_6  and  C2_7 
REMARK    2  A    between atoms: CAU_12  and  NAQ_13 
REMARK       I    between atoms: NAQ_13  and  CAT_14 
REMARK    3  A    between atoms: CAT_14  and  CAC_16 
REMARK    4  A    between atoms: C6_21  and  NAR_22 
REMARK    5  A    between atoms: NAR_22  and  CAV_23 
ROOT
ATOM      1  C2  G97 d          21.407  -0.531 -14.770  0.00  0.00     0.162 A 
ATOM      2  N1  G97 d          20.806   0.556 -14.232  0.00  0.00    -0.210 NA
ATOM      3  N3  G97 d          21.949  -0.482 -16.003  0.00  0.00    -0.228 NA
ATOM      4  C4  G97 d          21.918   0.651 -16.719  0.00  0.00     0.075 A 
ATOM      5  CAM G97 d          22.502   0.669 -17.986  0.00  0.00    -0.028 A 
ATOM      6  CAU G97 d          22.499   1.835 -18.749  0.00  0.00     0.037 A 
ATOM      7  CAK G97 d          21.890   2.989 -18.224  0.00  0.00    -0.056 A 
ATOM      8  CAL G97 d          21.300   2.968 -16.952  0.00  0.00    -0.065 A 
ATOM      9  C5  G97 d          21.311   1.794 -16.187  0.00  0.00     0.039 A 
ATOM     10  C6  G97 d          20.744   1.725 -14.904  0.00  0.00     0.144 A 
ATOM     11  H6  G97 d          22.963  -0.230 -18.379  0.00  0.00     0.090 H 
ATOM     12  H11 G97 d          21.877   3.903 -18.807  0.00  0.00     0.086 H 
ATOM     13  H12 G97 d          20.834   3.863 -16.558  0.00  0.00     0.085 H 
ENDROOT
BRANCH   1  14
ATOM     14  CAW G97 d          21.455  -1.748 -14.097  0.00  0.00     0.012 A 
ATOM     15  CAH G97 d          22.084  -1.837 -12.847  0.00  0.00    -0.069 A 
ATOM     16  CAE G97 d          22.115  -3.039 -12.142  0.00  0.00    -0.082 A 
ATOM     17  H1  G97 d          22.553  -0.957 -12.423  0.00  0.00     0.085 H 
ATOM     18  CAD G97 d          21.508  -4.155 -12.705  0.00  0.00    -0.083 A 
ATOM     19  H2  G97 d          22.602  -3.102 -11.175  0.00  0.00     0.083 H 
ATOM     20  CAF G97 d          20.864  -4.079 -13.942  0.00  0.00    -0.082 A 
ATOM     21  H3  G97 d          21.534  -5.100 -12.176  0.00  0.00     0.083 H 
ATOM     22  CAI G97 d          20.835  -2.872 -14.648  0.00  0.00    -0.069 A 
ATOM     23  H4  G97 d          20.384  -4.958 -14.356  0.00  0.00     0.083 H 
ATOM     24  H5  G97 d          20.339  -2.810 -15.610  0.00  0.00     0.085 H 
ENDBRANCH   1  14
BRANCH  10  25
ATOM     25  NAR G97 d          20.145   2.795 -14.340  0.00  0.00    -0.325 N 
ATOM     26  H13 G97 d          19.978   3.621 -14.932  0.00  0.00     0.169 HD
BRANCH  25  27
ATOM     27  CAV G97 d          19.748   2.851 -13.044  0.00  0.00     0.124 A 
ATOM     28  CAJ G97 d          20.128   3.786 -12.177  0.00  0.00    -0.021 A 
ATOM     29  CAG G97 d          19.522   3.469 -11.030  0.00  0.00     0.025 A 
ATOM     30  H14 G97 d          20.790   4.630 -12.363  0.00  0.00     0.091 H 
ATOM     31  NAS G97 d          18.804   2.352 -11.234  0.00  0.00    -0.186 NA
ATOM     32  H15 G97 d          19.597   4.019 -10.093  0.00  0.00     0.117 H 
ATOM     33  NAN G97 d          18.935   1.990 -12.414  0.00  0.00    -0.263 N 
ATOM     34  H16 G97 d          18.492   1.163 -12.839  0.00  0.00     0.190 HD
ENDBRANCH  25  27
ENDBRANCH  10  25
BRANCH   6  35
ATOM     35  NAQ G97 d          23.068   1.774 -19.970  0.00  0.00    -0.324 N 
ATOM     36  CAT G97 d          22.634   2.338 -21.104  0.00  0.00     0.244 C 
ATOM     37  OAB G97 d          21.616   3.034 -21.194  0.00  0.00    -0.268 OA
ATOM     38  H7  G97 d          23.913   1.245 -20.036  0.00  0.00     0.169 HD
BRANCH  36  39
ATOM     39  CAC G97 d          23.400   2.125 -22.253  0.00  0.00    -0.026 C 
ATOM     40  CAA G97 d          23.325   2.990 -23.344  0.00  0.00    -0.116 C 
ATOM     41  H9  G97 d          23.932   2.804 -24.228  0.00  0.00     0.067 H 
ATOM     42  H10 G97 d          22.659   3.851 -23.311  0.00  0.00     0.067 H 
ATOM     43  H8  G97 d          24.070   1.267 -22.297  0.00  0.00     0.090 H 
ENDBRANCH  36  39
ENDBRANCH   6  35
TORSDOF 5
ENDMDL
