MODEL 1
REMARK VINA RESULT:     -10.7      0.000      0.000
REMARK  5 active torsions:
REMARK  status: ('A' for Active; 'I' for Inactive)
REMARK    1  A    between atoms: CAW_6  and  C2_7 
REMARK    2  A    between atoms: CAU_12  and  NAQ_13 
REMARK       I    between atoms: NAQ_13  and  CAT_14 
REMARK    3  A    between atoms: CAT_14  and  CAC_16 
REMARK    4  A    between atoms: C6_21  and  NAR_22 
REMARK    5  A    between atoms: NAR_22  and  CAV_23 
ROOT
ATOM      1  C2  G97 d          23.409  -0.843 -19.553  0.00  0.00     0.162 A 
ATOM      2  N1  G97 d          23.387   0.316 -20.251  0.00  0.00    -0.210 NA
ATOM      3  N3  G97 d          22.957  -0.895 -18.284  0.00  0.00    -0.228 NA
ATOM      4  C4  G97 d          22.460   0.199 -17.690  0.00  0.00     0.075 A 
ATOM      5  CAM G97 d          21.986   0.104 -16.381  0.00  0.00    -0.028 A 
ATOM      6  CAU G97 d          21.451   1.220 -15.741  0.00  0.00     0.037 A 
ATOM      7  CAK G97 d          21.404   2.444 -16.434  0.00  0.00    -0.056 A 
ATOM      8  CAL G97 d          21.883   2.537 -17.748  0.00  0.00    -0.065 A 
ATOM      9  C5  G97 d          22.416   1.411 -18.388  0.00  0.00     0.039 A 
ATOM     10  C6  G97 d          22.898   1.451 -19.707  0.00  0.00     0.144 A 
ATOM     11  H6  G97 d          22.035  -0.845 -15.859  0.00  0.00     0.090 H 
ATOM     12  H11 G97 d          20.992   3.321 -15.948  0.00  0.00     0.086 H 
ATOM     13  H12 G97 d          21.842   3.486 -18.271  0.00  0.00     0.085 H 
ENDROOT
BRANCH   1  14
ATOM     14  CAW G97 d          23.934  -2.013 -20.094  0.00  0.00     0.012 A 
ATOM     15  CAH G97 d          23.361  -3.253 -19.778  0.00  0.00    -0.069 A 
ATOM     16  CAE G97 d          23.850  -4.434 -20.335  0.00  0.00    -0.082 A 
ATOM     17  H1  G97 d          22.525  -3.294 -19.089  0.00  0.00     0.085 H 
ATOM     18  CAD G97 d          24.923  -4.357 -21.215  0.00  0.00    -0.083 A 
ATOM     19  H2  G97 d          23.404  -5.390 -20.087  0.00  0.00     0.083 H 
ATOM     20  CAF G97 d          25.494  -3.128 -21.552  0.00  0.00    -0.082 A 
ATOM     21  H3  G97 d          25.324  -5.267 -21.646  0.00  0.00     0.083 H 
ATOM     22  CAI G97 d          25.003  -1.946 -20.991  0.00  0.00    -0.069 A 
ATOM     23  H4  G97 d          26.321  -3.091 -22.252  0.00  0.00     0.083 H 
ATOM     24  H5  G97 d          25.445  -0.990 -21.248  0.00  0.00     0.085 H 
ENDBRANCH   1  14
BRANCH  10  25
ATOM     25  NAR G97 d          22.882   2.591 -20.428  0.00  0.00    -0.325 N 
ATOM     26  H13 G97 d          22.866   3.485 -19.917  0.00  0.00     0.169 HD
BRANCH  25  27
ATOM     27  CAV G97 d          22.886   2.636 -21.784  0.00  0.00     0.124 A 
ATOM     28  CAJ G97 d          23.342   3.656 -22.506  0.00  0.00    -0.021 A 
ATOM     29  CAG G97 d          23.156   3.297 -23.779  0.00  0.00     0.025 A 
ATOM     30  H14 G97 d          23.776   4.584 -22.138  0.00  0.00     0.091 H 
ATOM     31  NAS G97 d          22.587   2.081 -23.789  0.00  0.00    -0.186 NA
ATOM     32  H15 G97 d          23.418   3.888 -24.656  0.00  0.00     0.117 H 
ATOM     33  NAN G97 d          22.429   1.692 -22.621  0.00  0.00    -0.263 N 
ATOM     34  H16 G97 d          22.015   0.791 -22.340  0.00  0.00     0.190 HD
ENDBRANCH  25  27
ENDBRANCH  10  25
BRANCH   6  35
ATOM     35  NAQ G97 d          21.028   1.058 -14.471  0.00  0.00    -0.324 N 
ATOM     36  CAT G97 d          19.926   1.565 -13.905  0.00  0.00     0.244 C 
ATOM     37  OAB G97 d          19.099   2.271 -14.492  0.00  0.00    -0.268 OA
ATOM     38  H7  G97 d          21.605   0.492 -13.883  0.00  0.00     0.169 HD
BRANCH  36  39
ATOM     39  CAC G97 d          19.703   1.256 -12.560  0.00  0.00    -0.026 C 
ATOM     40  CAA G97 d          20.614   0.491 -11.833  0.00  0.00    -0.116 C 
ATOM     41  H9  G97 d          20.420   0.264 -10.786  0.00  0.00     0.067 H 
ATOM     42  H10 G97 d          21.520   0.122 -12.312  0.00  0.00     0.067 H 
ATOM     43  H8  G97 d          18.801   1.620 -12.071  0.00  0.00     0.090 H 
ENDBRANCH  36  39
ENDBRANCH   6  35
TORSDOF 5
ENDMDL
MODEL 2
REMARK VINA RESULT:      -9.7      1.418      4.729
REMARK  5 active torsions:
REMARK  status: ('A' for Active; 'I' for Inactive)
REMARK    1  A    between atoms: CAW_6  and  C2_7 
REMARK    2  A    between atoms: CAU_12  and  NAQ_13 
REMARK       I    between atoms: NAQ_13  and  CAT_14 
REMARK    3  A    between atoms: CAT_14  and  CAC_16 
REMARK    4  A    between atoms: C6_21  and  NAR_22 
REMARK    5  A    between atoms: NAR_22  and  CAV_23 
ROOT
ATOM      1  C2  G97 d          22.741   2.036 -20.289  0.00  0.00     0.162 A 
ATOM      2  N1  G97 d          23.135   0.741 -20.307  0.00  0.00    -0.210 NA
ATOM      3  N3  G97 d          22.200   2.578 -19.179  0.00  0.00    -0.228 NA
ATOM      4  C4  G97 d          22.054   1.850 -18.064  0.00  0.00     0.075 A 
ATOM      5  CAM G97 d          21.504   2.448 -16.930  0.00  0.00    -0.028 A 
ATOM      6  CAU G97 d          21.351   1.721 -15.751  0.00  0.00     0.037 A 
ATOM      7  CAK G97 d          21.754   0.373 -15.726  0.00  0.00    -0.056 A 
ATOM      8  CAL G97 d          22.303  -0.227 -16.868  0.00  0.00    -0.065 A 
ATOM      9  C5  G97 d          22.458   0.510 -18.049  0.00  0.00     0.039 A 
ATOM     10  C6  G97 d          23.014  -0.042 -19.215  0.00  0.00     0.144 A 
ATOM     11  H6  G97 d          21.193   3.486 -16.966  0.00  0.00     0.090 H 
ATOM     12  H11 G97 d          21.640  -0.206 -14.816  0.00  0.00     0.086 H 
ATOM     13  H12 G97 d          22.610  -1.266 -16.837  0.00  0.00     0.085 H 
ENDROOT
BRANCH   1  14
ATOM     14  CAW G97 d          22.838   2.847 -21.415  0.00  0.00     0.012 A 
ATOM     15  CAH G97 d          23.055   2.275 -22.677  0.00  0.00    -0.069 A 
ATOM     16  CAE G97 d          23.123   3.066 -23.823  0.00  0.00    -0.082 A 
ATOM     17  H1  G97 d          23.173   1.201 -22.762  0.00  0.00     0.085 H 
ATOM     18  CAD G97 d          22.970   4.441 -23.690  0.00  0.00    -0.083 A 
ATOM     19  H2  G97 d          23.291   2.619 -24.797  0.00  0.00     0.083 H 
ATOM     20  CAF G97 d          22.737   5.024 -22.442  0.00  0.00    -0.082 A 
ATOM     21  H3  G97 d          23.033   5.071 -24.569  0.00  0.00     0.083 H 
ATOM     22  CAI G97 d          22.671   4.228 -21.294  0.00  0.00    -0.069 A 
ATOM     23  H4  G97 d          22.606   6.097 -22.364  0.00  0.00     0.083 H 
ATOM     24  H5  G97 d          22.493   4.678 -20.324  0.00  0.00     0.085 H 
ENDBRANCH   1  14
BRANCH  10  25
ATOM     25  NAR G97 d          23.421  -1.328 -19.261  0.00  0.00    -0.325 N 
ATOM     26  H13 G97 d          23.030  -1.982 -18.568  0.00  0.00     0.169 HD
BRANCH  25  27
ATOM     27  CAV G97 d          24.312  -1.814 -20.160  0.00  0.00     0.124 A 
ATOM     28  CAJ G97 d          24.385  -3.087 -20.540  0.00  0.00    -0.021 A 
ATOM     29  CAG G97 d          25.389  -3.135 -21.420  0.00  0.00     0.025 A 
ATOM     30  H14 G97 d          23.759  -3.913 -20.207  0.00  0.00     0.091 H 
ATOM     31  NAS G97 d          25.897  -1.897 -21.538  0.00  0.00    -0.186 NA
ATOM     32  H15 G97 d          25.736  -4.022 -21.948  0.00  0.00     0.117 H 
ATOM     33  NAN G97 d          25.266  -1.122 -20.801  0.00  0.00    -0.263 N 
ATOM     34  H16 G97 d          25.446  -0.113 -20.699  0.00  0.00     0.190 HD
ENDBRANCH  25  27
ENDBRANCH  10  25
BRANCH   6  35
ATOM     35  NAQ G97 d          20.798   2.360 -14.700  0.00  0.00    -0.324 N 
ATOM     36  CAT G97 d          19.564   2.872 -14.612  0.00  0.00     0.244 C 
ATOM     37  OAB G97 d          18.718   2.818 -15.511  0.00  0.00    -0.268 OA
ATOM     38  H7  G97 d          21.377   2.463 -13.893  0.00  0.00     0.169 HD
BRANCH  36  39
ATOM     39  CAC G97 d          19.220   3.497 -13.410  0.00  0.00    -0.026 C 
ATOM     40  CAA G97 d          19.761   3.077 -12.196  0.00  0.00    -0.116 C 
ATOM     41  H9  G97 d          19.479   3.580 -11.272  0.00  0.00     0.067 H 
ATOM     42  H10 G97 d          20.466   2.247 -12.171  0.00  0.00     0.067 H 
ATOM     43  H8  G97 d          18.516   4.328 -13.422  0.00  0.00     0.090 H 
ENDBRANCH  36  39
ENDBRANCH   6  35
TORSDOF 5
ENDMDL
MODEL 3
REMARK VINA RESULT:      -9.3      2.608      6.694
REMARK  5 active torsions:
REMARK  status: ('A' for Active; 'I' for Inactive)
REMARK    1  A    between atoms: CAW_6  and  C2_7 
REMARK    2  A    between atoms: CAU_12  and  NAQ_13 
REMARK       I    between atoms: NAQ_13  and  CAT_14 
REMARK    3  A    between atoms: CAT_14  and  CAC_16 
REMARK    4  A    between atoms: C6_21  and  NAR_22 
REMARK    5  A    between atoms: NAR_22  and  CAV_23 
ROOT
ATOM      1  C2  G97 d          21.614   2.488 -17.685  0.00  0.00     0.162 A 
ATOM      2  N1  G97 d          21.584   3.317 -18.755  0.00  0.00    -0.210 NA
ATOM      3  N3  G97 d          22.151   1.255 -17.781  0.00  0.00    -0.228 NA
ATOM      4  C4  G97 d          22.682   0.828 -18.934  0.00  0.00     0.075 A 
ATOM      5  CAM G97 d          23.243  -0.448 -18.992  0.00  0.00    -0.028 A 
ATOM      6  CAU G97 d          23.815  -0.916 -20.173  0.00  0.00     0.037 A 
ATOM      7  CAK G97 d          23.811  -0.083 -21.307  0.00  0.00    -0.056 A 
ATOM      8  CAL G97 d          23.243   1.198 -21.248  0.00  0.00    -0.065 A 
ATOM      9  C5  G97 d          22.674   1.664 -20.056  0.00  0.00     0.039 A 
ATOM     10  C6  G97 d          22.103   2.943 -19.943  0.00  0.00     0.144 A 
ATOM     11  H6  G97 d          23.234  -1.080 -18.111  0.00  0.00     0.090 H 
ATOM     12  H11 G97 d          24.250  -0.435 -22.234  0.00  0.00     0.086 H 
ATOM     13  H12 G97 d          23.245   1.830 -22.129  0.00  0.00     0.085 H 
ENDROOT
BRANCH   1  14
ATOM     14  CAW G97 d          21.060   2.852 -16.462  0.00  0.00     0.012 A 
ATOM     15  CAH G97 d          20.669   4.179 -16.234  0.00  0.00    -0.069 A 
ATOM     16  CAE G97 d          20.082   4.559 -15.027  0.00  0.00    -0.082 A 
ATOM     17  H1  G97 d          20.827   4.922 -17.007  0.00  0.00     0.085 H 
ATOM     18  CAD G97 d          19.891   3.590 -14.049  0.00  0.00    -0.083 A 
ATOM     19  H2  G97 d          19.782   5.586 -14.856  0.00  0.00     0.083 H 
ATOM     20  CAF G97 d          20.259   2.261 -14.268  0.00  0.00    -0.082 A 
ATOM     21  H3  G97 d          19.448   3.871 -13.102  0.00  0.00     0.083 H 
ATOM     22  CAI G97 d          20.849   1.884 -15.478  0.00  0.00    -0.069 A 
ATOM     23  H4  G97 d          20.087   1.519 -13.496  0.00  0.00     0.083 H 
ATOM     24  H5  G97 d          21.140   0.853 -15.650  0.00  0.00     0.085 H 
ENDBRANCH   1  14
BRANCH  10  25
ATOM     25  NAR G97 d          22.066   3.793 -20.991  0.00  0.00    -0.325 N 
ATOM     26  H13 G97 d          22.903   4.363 -21.180  0.00  0.00     0.169 HD
BRANCH  25  27
ATOM     27  CAV G97 d          20.997   3.944 -21.812  0.00  0.00     0.124 A 
ATOM     28  CAJ G97 d          20.628   3.068 -22.743  0.00  0.00    -0.021 A 
ATOM     29  CAG G97 d          19.547   3.600 -23.319  0.00  0.00     0.025 A 
ATOM     30  H14 G97 d          21.106   2.119 -22.984  0.00  0.00     0.091 H 
ATOM     31  NAS G97 d          19.300   4.781 -22.728  0.00  0.00    -0.186 NA
ATOM     32  H15 G97 d          18.967   3.155 -24.127  0.00  0.00     0.117 H 
ATOM     33  NAN G97 d          20.149   4.983 -21.845  0.00  0.00    -0.263 N 
ATOM     34  H16 G97 d          20.193   5.812 -21.236  0.00  0.00     0.190 HD
ENDBRANCH  25  27
ENDBRANCH  10  25
BRANCH   6  35
ATOM     35  NAQ G97 d          24.323  -2.165 -20.159  0.00  0.00    -0.324 N 
ATOM     36  CAT G97 d          23.651  -3.321 -20.100  0.00  0.00     0.244 C 
ATOM     37  OAB G97 d          22.419  -3.413 -20.062  0.00  0.00    -0.268 OA
ATOM     38  H7  G97 d          25.319  -2.235 -20.198  0.00  0.00     0.169 HD
BRANCH  36  39
ATOM     39  CAC G97 d          24.407  -4.496 -20.093  0.00  0.00    -0.026 C 
ATOM     40  CAA G97 d          24.932  -5.026 -21.271  0.00  0.00    -0.116 C 
ATOM     41  H9  G97 d          25.519  -5.942 -21.241  0.00  0.00     0.067 H 
ATOM     42  H10 G97 d          24.755  -4.523 -22.221  0.00  0.00     0.067 H 
ATOM     43  H8  G97 d          24.591  -5.008 -19.149  0.00  0.00     0.090 H 
ENDBRANCH  36  39
ENDBRANCH   6  35
TORSDOF 5
ENDMDL
MODEL 4
REMARK VINA RESULT:      -8.6      1.702      4.875
REMARK  5 active torsions:
REMARK  status: ('A' for Active; 'I' for Inactive)
REMARK    1  A    between atoms: CAW_6  and  C2_7 
REMARK    2  A    between atoms: CAU_12  and  NAQ_13 
REMARK       I    between atoms: NAQ_13  and  CAT_14 
REMARK    3  A    between atoms: CAT_14  and  CAC_16 
REMARK    4  A    between atoms: C6_21  and  NAR_22 
REMARK    5  A    between atoms: NAR_22  and  CAV_23 
ROOT
ATOM      1  C2  G97 d          22.524   2.024 -18.778  0.00  0.00     0.162 A 
ATOM      2  N1  G97 d          22.840   0.761 -19.150  0.00  0.00    -0.210 NA
ATOM      3  N3  G97 d          22.003   2.277 -17.561  0.00  0.00    -0.228 NA
ATOM      4  C4  G97 d          21.799   1.284 -16.685  0.00  0.00     0.075 A 
ATOM      5  CAM G97 d          21.272   1.585 -15.429  0.00  0.00    -0.028 A 
ATOM      6  CAU G97 d          21.061   0.576 -14.491  0.00  0.00     0.037 A 
ATOM      7  CAK G97 d          21.382  -0.750 -14.835  0.00  0.00    -0.056 A 
ATOM      8  CAL G97 d          21.908  -1.051 -16.099  0.00  0.00    -0.065 A 
ATOM      9  C5  G97 d          22.122  -0.032 -17.036  0.00  0.00     0.039 A 
ATOM     10  C6  G97 d          22.658  -0.280 -18.311  0.00  0.00     0.144 A 
ATOM     11  H6  G97 d          21.025   2.611 -15.181  0.00  0.00     0.090 H 
ATOM     12  H11 G97 d          21.221  -1.546 -14.116  0.00  0.00     0.086 H 
ATOM     13  H12 G97 d          22.150  -2.076 -16.353  0.00  0.00     0.085 H 
ENDROOT
BRANCH   1  14
ATOM     14  CAW G97 d          22.685   3.102 -19.643  0.00  0.00     0.012 A 
ATOM     15  CAH G97 d          22.685   2.898 -21.030  0.00  0.00    -0.069 A 
ATOM     16  CAE G97 d          22.811   3.969 -21.915  0.00  0.00    -0.082 A 
ATOM     17  H1  G97 d          22.585   1.892 -21.421  0.00  0.00     0.085 H 
ATOM     18  CAD G97 d          22.938   5.250 -21.392  0.00  0.00    -0.083 A 
ATOM     19  H2  G97 d          22.810   3.805 -22.987  0.00  0.00     0.083 H 
ATOM     20  CAF G97 d          22.924   5.472 -20.013  0.00  0.00    -0.082 A 
ATOM     21  H3  G97 d          23.050   6.091 -22.065  0.00  0.00     0.083 H 
ATOM     22  CAI G97 d          22.799   4.396 -19.128  0.00  0.00    -0.069 A 
ATOM     23  H4  G97 d          23.009   6.481 -19.628  0.00  0.00     0.083 H 
ATOM     24  H5  G97 d          22.790   4.564 -18.057  0.00  0.00     0.085 H 
ENDBRANCH   1  14
BRANCH  10  25
ATOM     25  NAR G97 d          22.987  -1.528 -18.706  0.00  0.00    -0.325 N 
ATOM     26  H13 G97 d          22.574  -2.320 -18.193  0.00  0.00     0.169 HD
BRANCH  25  27
ATOM     27  CAV G97 d          23.828  -1.806 -19.733  0.00  0.00     0.124 A 
ATOM     28  CAJ G97 d          24.028  -3.020 -20.240  0.00  0.00    -0.021 A 
ATOM     29  CAG G97 d          24.923  -2.850 -21.217  0.00  0.00     0.025 A 
ATOM     30  H14 G97 d          23.562  -3.952 -19.925  0.00  0.00     0.091 H 
ATOM     31  NAS G97 d          25.242  -1.546 -21.266  0.00  0.00    -0.186 NA
ATOM     32  H15 G97 d          25.324  -3.632 -21.861  0.00  0.00     0.117 H 
ATOM     33  NAN G97 d          24.600  -0.934 -20.398  0.00  0.00    -0.263 N 
ATOM     34  H16 G97 d          24.652   0.079 -20.218  0.00  0.00     0.190 HD
ENDBRANCH  25  27
ENDBRANCH  10  25
BRANCH   6  35
ATOM     35  NAQ G97 d          20.534   0.939 -13.304  0.00  0.00    -0.324 N 
ATOM     36  CAT G97 d          19.345   0.590 -12.796  0.00  0.00     0.244 C 
ATOM     37  OAB G97 d          18.536  -0.156 -13.358  0.00  0.00    -0.268 OA
ATOM     38  H7  G97 d          21.097   1.539 -12.737  0.00  0.00     0.169 HD
BRANCH  36  39
ATOM     39  CAC G97 d          19.018   1.102 -11.538  0.00  0.00    -0.026 C 
ATOM     40  CAA G97 d          19.638   2.246 -11.038  0.00  0.00    -0.116 C 
ATOM     41  H9  G97 d          19.366   2.627 -10.055  0.00  0.00     0.067 H 
ATOM     42  H10 G97 d          20.394   2.759 -11.632  0.00  0.00     0.067 H 
ATOM     43  H8  G97 d          18.263   0.597 -10.935  0.00  0.00     0.090 H 
ENDBRANCH  36  39
ENDBRANCH   6  35
TORSDOF 5
ENDMDL
MODEL 5
REMARK VINA RESULT:      -8.1      3.079      8.767
REMARK  5 active torsions:
REMARK  status: ('A' for Active; 'I' for Inactive)
REMARK    1  A    between atoms: CAW_6  and  C2_7 
REMARK    2  A    between atoms: CAU_12  and  NAQ_13 
REMARK       I    between atoms: NAQ_13  and  CAT_14 
REMARK    3  A    between atoms: CAT_14  and  CAC_16 
REMARK    4  A    between atoms: C6_21  and  NAR_22 
REMARK    5  A    between atoms: NAR_22  and  CAV_23 
ROOT
ATOM      1  C2  G97 d          20.602   2.616 -15.369  0.00  0.00     0.162 A 
ATOM      2  N1  G97 d          20.983   1.391 -14.937  0.00  0.00    -0.210 NA
ATOM      3  N3  G97 d          20.946   3.054 -16.596  0.00  0.00    -0.228 NA
ATOM      4  C4  G97 d          21.662   2.280 -17.423  0.00  0.00     0.075 A 
ATOM      5  CAM G97 d          21.988   2.761 -18.691  0.00  0.00    -0.028 A 
ATOM      6  CAU G97 d          22.719   1.975 -19.579  0.00  0.00     0.037 A 
ATOM      7  CAK G97 d          23.129   0.692 -19.172  0.00  0.00    -0.056 A 
ATOM      8  CAL G97 d          22.804   0.212 -17.895  0.00  0.00    -0.065 A 
ATOM      9  C5  G97 d          22.064   1.005 -17.009  0.00  0.00     0.039 A 
ATOM     10  C6  G97 d          21.704   0.565 -15.724  0.00  0.00     0.144 A 
ATOM     11  H6  G97 d          21.669   3.754 -18.988  0.00  0.00     0.090 H 
ATOM     12  H11 G97 d          23.701   0.069 -19.851  0.00  0.00     0.086 H 
ATOM     13  H12 G97 d          23.126  -0.778 -17.593  0.00  0.00     0.085 H 
ENDROOT
BRANCH   1  14
ATOM     14  CAW G97 d          19.879   3.485 -14.557  0.00  0.00     0.012 A 
ATOM     15  CAH G97 d          19.849   3.291 -13.169  0.00  0.00    -0.069 A 
ATOM     16  CAE G97 d          19.159   4.169 -12.335  0.00  0.00    -0.082 A 
ATOM     17  H1  G97 d          20.372   2.445 -12.738  0.00  0.00     0.085 H 
ATOM     18  CAD G97 d          18.496   5.247 -12.910  0.00  0.00    -0.083 A 
ATOM     19  H2  G97 d          19.139   4.015 -11.262  0.00  0.00     0.083 H 
ATOM     20  CAF G97 d          18.529   5.463 -14.289  0.00  0.00    -0.082 A 
ATOM     21  H3  G97 d          17.943   5.931 -12.277  0.00  0.00     0.083 H 
ATOM     22  CAI G97 d          19.221   4.580 -15.123  0.00  0.00    -0.069 A 
ATOM     23  H4  G97 d          18.017   6.318 -14.714  0.00  0.00     0.083 H 
ATOM     24  H5  G97 d          19.247   4.742 -16.195  0.00  0.00     0.085 H 
ENDBRANCH   1  14
BRANCH  10  25
ATOM     25  NAR G97 d          22.065  -0.654 -15.270  0.00  0.00    -0.325 N 
ATOM     26  H13 G97 d          23.005  -0.998 -15.510  0.00  0.00     0.169 HD
BRANCH  25  27
ATOM     27  CAV G97 d          21.268  -1.454 -14.519  0.00  0.00     0.124 A 
ATOM     28  CAJ G97 d          20.675  -2.560 -14.960  0.00  0.00    -0.021 A 
ATOM     29  CAG G97 d          19.989  -3.032 -13.916  0.00  0.00     0.025 A 
ATOM     30  H14 G97 d          20.737  -2.990 -15.959  0.00  0.00     0.091 H 
ATOM     31  NAS G97 d          20.179  -2.196 -12.882  0.00  0.00    -0.186 NA
ATOM     32  H15 G97 d          19.381  -3.936 -13.905  0.00  0.00     0.117 H 
ATOM     33  NAN G97 d          20.928  -1.272 -13.234  0.00  0.00    -0.263 N 
ATOM     34  H16 G97 d          21.239  -0.492 -12.636  0.00  0.00     0.190 HD
ENDBRANCH  25  27
ENDBRANCH  10  25
BRANCH   6  35
ATOM     35  NAQ G97 d          23.010   2.511 -20.781  0.00  0.00    -0.324 N 
ATOM     36  CAT G97 d          22.924   1.925 -21.982  0.00  0.00     0.244 C 
ATOM     37  OAB G97 d          22.537   0.766 -22.167  0.00  0.00    -0.268 OA
ATOM     38  H7  G97 d          23.328   3.459 -20.775  0.00  0.00     0.169 HD
BRANCH  36  39
ATOM     39  CAC G97 d          23.289   2.692 -23.091  0.00  0.00    -0.026 C 
ATOM     40  CAA G97 d          22.385   2.955 -24.118  0.00  0.00    -0.116 C 
ATOM     41  H9  G97 d          22.692   3.556 -24.973  0.00  0.00     0.067 H 
ATOM     42  H10 G97 d          21.371   2.561 -24.066  0.00  0.00     0.067 H 
ATOM     43  H8  G97 d          24.301   3.091 -23.154  0.00  0.00     0.090 H 
ENDBRANCH  36  39
ENDBRANCH   6  35
TORSDOF 5
ENDMDL
