MODEL 1
REMARK VINA RESULT:      -8.3      0.000      0.000
REMARK  13 active torsions:
REMARK  status: ('A' for Active; 'I' for Inactive)
REMARK    1  A    between atoms: C6_6  and  O25_25 
REMARK    2  A    between atoms: C8_8  and  C27_27 
REMARK    3  A    between atoms: C10_10  and  O28_28 
REMARK    4  A    between atoms: C11_11  and  O30_30 
REMARK    5  A    between atoms: C12_12  and  C31_31 
REMARK    6  A    between atoms: C14_14  and  C32_32 
REMARK    7  A    between atoms: C15_15  and  O33_33 
REMARK    8  A    between atoms: C16_16  and  O37_37 
REMARK    9  A    between atoms: C20_20  and  C39_39 
REMARK   10  A    between atoms: O25_25  and  C26_26 
REMARK   11  A    between atoms: O28_28  and  C29_29 
REMARK   12  A    between atoms: O33_33  and  C34_34 
REMARK       I    between atoms: C34_34  and  N36_36 
REMARK   13  A    between atoms: O37_37  and  C38_38 
ROOT
ATOM      1  C1  GMY d          26.067 -34.205  -5.344  0.00  0.00     0.032 A 
ATOM      2  C2  GMY d          26.120 -33.930  -3.843  0.00  0.00     0.207 A 
ATOM      3  C3  GMY d          25.619 -32.590  -3.285  0.00  0.00     0.090 A 
ATOM      4  C4  GMY d          25.077 -31.577  -4.191  0.00  0.00    -0.002 A 
ATOM      5  C5  GMY d          25.036 -31.842  -5.700  0.00  0.00     0.208 A 
ATOM      6  C6  GMY d          25.526 -33.185  -6.248  0.00  0.00     0.128 A 
ATOM      7  C7  GMY d          26.007 -35.681  -5.773  0.00  0.00    -0.031 C 
ATOM      8  C8  GMY d          24.511 -35.998  -5.628  0.00  0.00    -0.051 C 
ATOM      9  C9  GMY d          23.908 -36.200  -7.026  0.00  0.00    -0.035 C 
ATOM     10  C10 GMY d          22.588 -36.979  -6.937  0.00  0.00     0.063 C 
ATOM     11  C11 GMY d          21.566 -36.398  -7.936  0.00  0.00     0.067 C 
ATOM     12  C12 GMY d          21.311 -34.909  -7.614  0.00  0.00    -0.014 C 
ATOM     13  C13 GMY d          20.416 -34.809  -6.374  0.00  0.00    -0.092 C 
ATOM     14  C14 GMY d          20.542 -33.687  -5.445  0.00  0.00    -0.055 C 
ATOM     15  C15 GMY d          19.606 -33.631  -4.244  0.00  0.00     0.099 C 
ATOM     16  C16 GMY d          20.445 -33.778  -2.966  0.00  0.00     0.083 C 
ATOM     17  C17 GMY d          20.944 -35.232  -2.870  0.00  0.00    -0.073 C 
ATOM     18  C18 GMY d          22.234 -35.470  -2.205  0.00  0.00    -0.083 C 
ATOM     19  C19 GMY d          23.218 -34.303  -2.051  0.00  0.00    -0.072 C 
ATOM     20  C20 GMY d          24.477 -34.545  -1.333  0.00  0.00     0.006 C 
ATOM     21  C21 GMY d          25.255 -33.314  -0.874  0.00  0.00     0.251 C 
ATOM     22  N22 GMY d          25.671 -32.324  -1.850  0.00  0.00    -0.320 N 
ATOM     23  O23 GMY d          26.556 -34.781  -3.114  0.00  0.00    -0.285 OA
ATOM     24  O24 GMY d          24.603 -31.025  -6.457  0.00  0.00    -0.285 OA
ATOM     25  O40 GMY d          25.518 -33.176   0.284  0.00  0.00    -0.268 OA
ATOM     26  H1  GMY d          24.704 -30.634  -3.793  0.00  0.00     0.093 H 
ATOM     27  H2  GMY d          26.615 -36.314  -5.110  0.00  0.00     0.041 H 
ATOM     28  H3  GMY d          26.344 -35.808  -6.812  0.00  0.00     0.041 H 
ATOM     29  H4  GMY d          24.012 -35.129  -5.174  0.00  0.00     0.040 H 
ATOM     30  H5  GMY d          24.619 -36.763  -7.649  0.00  0.00     0.037 H 
ATOM     31  H6  GMY d          23.717 -35.217  -7.483  0.00  0.00     0.037 H 
ATOM     32  H7  GMY d          22.182 -36.903  -5.917  0.00  0.00     0.087 H 
ATOM     33  H8  GMY d          20.622 -36.957  -7.857  0.00  0.00     0.087 H 
ATOM     34  H9  GMY d          22.266 -34.387  -7.450  0.00  0.00     0.049 H 
ATOM     35  H10 GMY d          19.676 -35.585  -6.182  0.00  0.00     0.078 H 
ATOM     36  H11 GMY d          18.831 -34.409  -4.299  0.00  0.00     0.096 H 
ATOM     37  H12 GMY d          21.306 -33.095  -3.009  0.00  0.00     0.094 H 
ATOM     38  H13 GMY d          20.362 -36.055  -3.280  0.00  0.00     0.081 H 
ATOM     39  H14 GMY d          22.488 -36.460  -1.829  0.00  0.00     0.083 H 
ATOM     40  H15 GMY d          22.989 -33.321  -2.462  0.00  0.00     0.084 H 
ATOM     41  H16 GMY d          26.003 -31.436  -1.531  0.00  0.00     0.169 HD
ENDROOT
BRANCH  15  42
ATOM     42  O33 GMY d          19.040 -32.331  -4.253  0.00  0.00    -0.291 OA
BRANCH  42  43
ATOM     43  C34 GMY d          17.617 -32.311  -4.410  0.00  0.00     0.359 C 
ATOM     44  O35 GMY d          17.014 -33.167  -5.006  0.00  0.00    -0.239 OA
ATOM     45  N36 GMY d          16.909 -31.169  -3.837  0.00  0.00    -0.346 N 
ATOM     46  H33 GMY d          15.914 -31.105  -3.918  0.00  0.00     0.161 HD
ATOM     47  H34 GMY d          17.419 -30.451  -3.364  0.00  0.00     0.161 HD
ENDBRANCH  42  43
ENDBRANCH  15  42
BRANCH  14  48
ATOM     48  C32 GMY d          21.577 -32.568  -5.665  0.00  0.00    -0.052 C 
ATOM     49  H30 GMY d          22.000 -32.654  -6.677  0.00  0.00     0.033 H 
ATOM     50  H31 GMY d          22.381 -32.662  -4.922  0.00  0.00     0.033 H 
ATOM     51  H32 GMY d          21.087 -31.590  -5.554  0.00  0.00     0.033 H 
ENDBRANCH  14  48
BRANCH  16  52
ATOM     52  O37 GMY d          19.644 -33.463  -1.823  0.00  0.00    -0.384 OA
BRANCH  52  53
ATOM     53  C38 GMY d          18.719 -34.516  -1.543  0.00  0.00     0.005 C 
ATOM     54  H35 GMY d          19.167 -35.217  -0.824  0.00  0.00     0.066 H 
ATOM     55  H36 GMY d          18.478 -35.050  -2.474  0.00  0.00     0.066 H 
ATOM     56  H37 GMY d          17.799 -34.092  -1.115  0.00  0.00     0.066 H 
ENDBRANCH  52  53
ENDBRANCH  16  52
BRANCH  12  57
ATOM     57  C31 GMY d          20.528 -34.264  -8.770  0.00  0.00    -0.067 C 
ATOM     58  H27 GMY d          21.213 -34.055  -9.605  0.00  0.00     0.028 H 
ATOM     59  H28 GMY d          20.073 -33.323  -8.425  0.00  0.00     0.028 H 
ATOM     60  H29 GMY d          19.739 -34.952  -9.106  0.00  0.00     0.028 H 
ENDBRANCH  12  57
BRANCH  11  61
ATOM     61  O30 GMY d          22.076 -36.510  -9.265  0.00  0.00    -0.392 OA
ATOM     62  H26 GMY d          22.517 -35.702  -9.503  0.00  0.00     0.210 HD
ENDBRANCH  11  61
BRANCH  10  63
ATOM     63  O28 GMY d          22.859 -38.349  -7.244  0.00  0.00    -0.388 OA
BRANCH  63  64
ATOM     64  C29 GMY d          21.719 -39.169  -6.943  0.00  0.00     0.005 C 
ATOM     65  H23 GMY d          22.037 -40.218  -6.846  0.00  0.00     0.066 H 
ATOM     66  H24 GMY d          20.982 -39.083  -7.755  0.00  0.00     0.066 H 
ATOM     67  H25 GMY d          21.266 -38.834  -5.998  0.00  0.00     0.066 H 
ENDBRANCH  63  64
ENDBRANCH  10  63
BRANCH  20  68
ATOM     68  C39 GMY d          24.656 -35.832  -0.513  0.00  0.00    -0.046 C 
ATOM     69  H38 GMY d          25.667 -35.855  -0.081  0.00  0.00     0.033 H 
ATOM     70  H39 GMY d          24.517 -36.706  -1.167  0.00  0.00     0.033 H 
ATOM     71  H40 GMY d          23.911 -35.858   0.296  0.00  0.00     0.033 H 
ENDBRANCH  20  68
BRANCH   8  72
ATOM     72  C27 GMY d          24.318 -37.189  -4.673  0.00  0.00    -0.073 C 
ATOM     73  H20 GMY d          23.253 -37.278  -4.409  0.00  0.00     0.028 H 
ATOM     74  H21 GMY d          24.910 -37.027  -3.761  0.00  0.00     0.028 H 
ATOM     75  H22 GMY d          24.651 -38.113  -5.168  0.00  0.00     0.028 H 
ENDBRANCH   8  72
BRANCH   6  76
ATOM     76  O25 GMY d          25.474 -33.413  -7.654  0.00  0.00    -0.351 OA
BRANCH  76  77
ATOM     77  C26 GMY d          26.732 -33.026  -8.224  0.00  0.00     0.011 C 
ATOM     78  H17 GMY d          27.120 -33.846  -8.847  0.00  0.00     0.067 H 
ATOM     79  H18 GMY d          27.448 -32.807  -7.418  0.00  0.00     0.067 H 
ATOM     80  H19 GMY d          26.593 -32.128  -8.845  0.00  0.00     0.067 H 
ENDBRANCH  76  77
ENDBRANCH   6  76
TORSDOF 13
ENDMDL
MODEL 2
REMARK VINA RESULT:      -5.8      2.324      6.141
REMARK  13 active torsions:
REMARK  status: ('A' for Active; 'I' for Inactive)
REMARK    1  A    between atoms: C6_6  and  O25_25 
REMARK    2  A    between atoms: C8_8  and  C27_27 
REMARK    3  A    between atoms: C10_10  and  O28_28 
REMARK    4  A    between atoms: C11_11  and  O30_30 
REMARK    5  A    between atoms: C12_12  and  C31_31 
REMARK    6  A    between atoms: C14_14  and  C32_32 
REMARK    7  A    between atoms: C15_15  and  O33_33 
REMARK    8  A    between atoms: C16_16  and  O37_37 
REMARK    9  A    between atoms: C20_20  and  C39_39 
REMARK   10  A    between atoms: O25_25  and  C26_26 
REMARK   11  A    between atoms: O28_28  and  C29_29 
REMARK   12  A    between atoms: O33_33  and  C34_34 
REMARK       I    between atoms: C34_34  and  N36_36 
REMARK   13  A    between atoms: O37_37  and  C38_38 
ROOT
ATOM      1  C1  GMY d          24.689 -37.102  -6.536  0.00  0.00     0.032 A 
ATOM      2  C2  GMY d          23.509 -37.622  -7.355  0.00  0.00     0.207 A 
ATOM      3  C3  GMY d          22.282 -38.215  -6.648  0.00  0.00     0.090 A 
ATOM      4  C4  GMY d          22.234 -38.273  -5.187  0.00  0.00    -0.002 A 
ATOM      5  C5  GMY d          23.423 -37.765  -4.362  0.00  0.00     0.208 A 
ATOM      6  C6  GMY d          24.638 -37.165  -5.073  0.00  0.00     0.128 A 
ATOM      7  C7  GMY d          25.570 -36.032  -7.203  0.00  0.00    -0.031 C 
ATOM      8  C8  GMY d          24.774 -34.746  -6.933  0.00  0.00    -0.051 C 
ATOM      9  C9  GMY d          25.547 -33.884  -5.925  0.00  0.00    -0.035 C 
ATOM     10  C10 GMY d          25.076 -32.425  -5.990  0.00  0.00     0.063 C 
ATOM     11  C11 GMY d          25.011 -31.829  -4.568  0.00  0.00     0.067 C 
ATOM     12  C12 GMY d          24.030 -32.653  -3.704  0.00  0.00    -0.014 C 
ATOM     13  C13 GMY d          22.592 -32.303  -4.104  0.00  0.00    -0.092 C 
ATOM     14  C14 GMY d          21.526 -33.299  -4.020  0.00  0.00    -0.055 C 
ATOM     15  C15 GMY d          20.111 -32.883  -4.408  0.00  0.00     0.099 C 
ATOM     16  C16 GMY d          19.697 -33.674  -5.658  0.00  0.00     0.083 C 
ATOM     17  C17 GMY d          20.492 -33.141  -6.864  0.00  0.00    -0.073 C 
ATOM     18  C18 GMY d          20.810 -34.085  -7.946  0.00  0.00    -0.083 C 
ATOM     19  C19 GMY d          20.760 -35.591  -7.657  0.00  0.00    -0.072 C 
ATOM     20  C20 GMY d          21.024 -36.520  -8.764  0.00  0.00     0.006 C 
ATOM     21  C21 GMY d          20.614 -37.976  -8.553  0.00  0.00     0.251 C 
ATOM     22  N22 GMY d          21.153 -38.716  -7.428  0.00  0.00    -0.320 N 
ATOM     23  O23 GMY d          23.561 -37.554  -8.554  0.00  0.00    -0.285 OA
ATOM     24  O24 GMY d          23.407 -37.809  -3.168  0.00  0.00    -0.285 OA
ATOM     25  O40 GMY d          19.856 -38.495  -9.318  0.00  0.00    -0.268 OA
ATOM     26  H1  GMY d          21.355 -38.676  -4.685  0.00  0.00     0.093 H 
ATOM     27  H2  GMY d          25.676 -36.217  -8.282  0.00  0.00     0.041 H 
ATOM     28  H3  GMY d          26.566 -35.990  -6.738  0.00  0.00     0.041 H 
ATOM     29  H4  GMY d          23.815 -35.020  -6.469  0.00  0.00     0.040 H 
ATOM     30  H5  GMY d          26.621 -33.928  -6.160  0.00  0.00     0.037 H 
ATOM     31  H6  GMY d          25.377 -34.274  -4.910  0.00  0.00     0.037 H 
ATOM     32  H7  GMY d          24.077 -32.378  -6.449  0.00  0.00     0.087 H 
ATOM     33  H8  GMY d          24.663 -30.787  -4.625  0.00  0.00     0.087 H 
ATOM     34  H9  GMY d          24.221 -33.728  -3.832  0.00  0.00     0.049 H 
ATOM     35  H10 GMY d          22.362 -31.297  -4.455  0.00  0.00     0.078 H 
ATOM     36  H11 GMY d          20.044 -31.800  -4.587  0.00  0.00     0.096 H 
ATOM     37  H12 GMY d          19.922 -34.741  -5.510  0.00  0.00     0.094 H 
ATOM     38  H13 GMY d          20.808 -32.100  -6.915  0.00  0.00     0.081 H 
ATOM     39  H14 GMY d          21.076 -33.720  -8.937  0.00  0.00     0.083 H 
ATOM     40  H15 GMY d          20.536 -35.961  -6.658  0.00  0.00     0.084 H 
ATOM     41  H16 GMY d          20.740 -39.593  -7.180  0.00  0.00     0.169 HD
ENDROOT
BRANCH  15  42
ATOM     42  O33 GMY d          19.280 -33.286  -3.334  0.00  0.00    -0.291 OA
BRANCH  42  43
ATOM     43  C34 GMY d          18.529 -32.221  -2.740  0.00  0.00     0.359 C 
ATOM     44  O35 GMY d          18.735 -31.823  -1.622  0.00  0.00    -0.239 OA
ATOM     45  N36 GMY d          17.455 -31.645  -3.546  0.00  0.00    -0.346 N 
ATOM     46  H33 GMY d          16.900 -30.899  -3.179  0.00  0.00     0.161 HD
ATOM     47  H34 GMY d          17.276 -31.998  -4.464  0.00  0.00     0.161 HD
ENDBRANCH  42  43
ENDBRANCH  15  42
BRANCH  14  48
ATOM     48  C32 GMY d          21.798 -34.736  -3.539  0.00  0.00    -0.052 C 
ATOM     49  H30 GMY d          20.851 -35.294  -3.496  0.00  0.00     0.033 H 
ATOM     50  H31 GMY d          22.253 -34.707  -2.538  0.00  0.00     0.033 H 
ATOM     51  H32 GMY d          22.484 -35.233  -4.240  0.00  0.00     0.033 H 
ENDBRANCH  14  48
BRANCH  16  52
ATOM     52  O37 GMY d          18.295 -33.511  -5.889  0.00  0.00    -0.384 OA
BRANCH  52  53
ATOM     53  C38 GMY d          17.649 -34.779  -6.018  0.00  0.00     0.005 C 
ATOM     54  H35 GMY d          18.259 -35.553  -5.530  0.00  0.00     0.066 H 
ATOM     55  H36 GMY d          17.531 -35.024  -7.084  0.00  0.00     0.066 H 
ATOM     56  H37 GMY d          16.659 -34.738  -5.540  0.00  0.00     0.066 H 
ENDBRANCH  52  53
ENDBRANCH  16  52
BRANCH  12  57
ATOM     57  C31 GMY d          24.183 -32.245  -2.229  0.00  0.00    -0.067 C 
ATOM     58  H27 GMY d          25.057 -32.755  -1.797  0.00  0.00     0.028 H 
ATOM     59  H28 GMY d          23.278 -32.532  -1.672  0.00  0.00     0.028 H 
ATOM     60  H29 GMY d          24.325 -31.156  -2.163  0.00  0.00     0.028 H 
ENDBRANCH  12  57
BRANCH  11  61
ATOM     61  O30 GMY d          26.307 -31.867  -3.970  0.00  0.00    -0.392 OA
ATOM     62  H26 GMY d          26.763 -31.054  -4.154  0.00  0.00     0.210 HD
ENDBRANCH  11  61
BRANCH  10  63
ATOM     63  O28 GMY d          26.007 -31.692  -6.791  0.00  0.00    -0.388 OA
BRANCH  63  64
ATOM     64  C29 GMY d          25.630 -30.308  -6.865  0.00  0.00     0.005 C 
ATOM     65  H23 GMY d          24.724 -30.208  -7.482  0.00  0.00     0.066 H 
ATOM     66  H24 GMY d          26.447 -29.729  -7.319  0.00  0.00     0.066 H 
ATOM     67  H25 GMY d          25.428 -29.928  -5.853  0.00  0.00     0.066 H 
ENDBRANCH  63  64
ENDBRANCH  10  63
BRANCH  20  68
ATOM     68  C39 GMY d          21.046 -36.001 -10.211  0.00  0.00    -0.046 C 
ATOM     69  H38 GMY d          20.362 -36.604 -10.828  0.00  0.00     0.033 H 
ATOM     70  H39 GMY d          22.067 -36.080 -10.613  0.00  0.00     0.033 H 
ATOM     71  H40 GMY d          20.724 -34.950 -10.229  0.00  0.00     0.033 H 
ENDBRANCH  20  68
BRANCH   8  72
ATOM     72  C27 GMY d          24.454 -34.039  -8.262  0.00  0.00    -0.073 C 
ATOM     73  H20 GMY d          24.563 -34.753  -9.092  0.00  0.00     0.028 H 
ATOM     74  H21 GMY d          25.149 -33.199  -8.407  0.00  0.00     0.028 H 
ATOM     75  H22 GMY d          23.421 -33.661  -8.237  0.00  0.00     0.028 H 
ENDBRANCH   8  72
BRANCH   6  76
ATOM     76  O25 GMY d          25.731 -36.694  -4.287  0.00  0.00    -0.351 OA
BRANCH  76  77
ATOM     77  C26 GMY d          26.759 -37.694  -4.293  0.00  0.00     0.011 C 
ATOM     78  H17 GMY d          27.522 -37.439  -3.543  0.00  0.00     0.067 H 
ATOM     79  H18 GMY d          27.223 -37.737  -5.289  0.00  0.00     0.067 H 
ATOM     80  H19 GMY d          26.319 -38.673  -4.050  0.00  0.00     0.067 H 
ENDBRANCH  76  77
ENDBRANCH   6  76
TORSDOF 13
ENDMDL
MODEL 3
REMARK VINA RESULT:      -5.7      2.201      7.482
REMARK  13 active torsions:
REMARK  status: ('A' for Active; 'I' for Inactive)
REMARK    1  A    between atoms: C6_6  and  O25_25 
REMARK    2  A    between atoms: C8_8  and  C27_27 
REMARK    3  A    between atoms: C10_10  and  O28_28 
REMARK    4  A    between atoms: C11_11  and  O30_30 
REMARK    5  A    between atoms: C12_12  and  C31_31 
REMARK    6  A    between atoms: C14_14  and  C32_32 
REMARK    7  A    between atoms: C15_15  and  O33_33 
REMARK    8  A    between atoms: C16_16  and  O37_37 
REMARK    9  A    between atoms: C20_20  and  C39_39 
REMARK   10  A    between atoms: O25_25  and  C26_26 
REMARK   11  A    between atoms: O28_28  and  C29_29 
REMARK   12  A    between atoms: O33_33  and  C34_34 
REMARK       I    between atoms: C34_34  and  N36_36 
REMARK   13  A    between atoms: O37_37  and  C38_38 
ROOT
ATOM      1  C1  GMY d          21.351 -35.445  -4.064  0.00  0.00     0.032 A 
ATOM      2  C2  GMY d          21.426 -36.192  -5.394  0.00  0.00     0.207 A 
ATOM      3  C3  GMY d          21.222 -35.437  -6.715  0.00  0.00     0.090 A 
ATOM      4  C4  GMY d          20.967 -33.996  -6.704  0.00  0.00    -0.002 A 
ATOM      5  C5  GMY d          20.876 -33.246  -5.370  0.00  0.00     0.208 A 
ATOM      6  C6  GMY d          21.092 -34.003  -4.057  0.00  0.00     0.128 A 
ATOM      7  C7  GMY d          22.114 -36.066  -2.881  0.00  0.00    -0.031 C 
ATOM      8  C8  GMY d          23.546 -35.562  -3.121  0.00  0.00    -0.051 C 
ATOM      9  C9  GMY d          23.905 -34.544  -2.029  0.00  0.00    -0.035 C 
ATOM     10  C10 GMY d          25.427 -34.383  -1.921  0.00  0.00     0.063 C 
ATOM     11  C11 GMY d          25.784 -32.901  -1.684  0.00  0.00     0.067 C 
ATOM     12  C12 GMY d          25.255 -32.045  -2.855  0.00  0.00    -0.014 C 
ATOM     13  C13 GMY d          26.160 -32.247  -4.075  0.00  0.00    -0.092 C 
ATOM     14  C14 GMY d          25.620 -32.173  -5.432  0.00  0.00    -0.055 C 
ATOM     15  C15 GMY d          26.576 -32.358  -6.605  0.00  0.00     0.099 C 
ATOM     16  C16 GMY d          26.188 -33.643  -7.350  0.00  0.00     0.083 C 
ATOM     17  C17 GMY d          26.570 -34.854  -6.478  0.00  0.00    -0.073 C 
ATOM     18  C18 GMY d          25.750 -36.069  -6.595  0.00  0.00    -0.083 C 
ATOM     19  C19 GMY d          24.340 -35.959  -7.190  0.00  0.00    -0.072 C 
ATOM     20  C20 GMY d          23.557 -37.191  -7.354  0.00  0.00     0.006 C 
ATOM     21  C21 GMY d          22.336 -37.115  -8.268  0.00  0.00     0.251 C 
ATOM     22  N22 GMY d          21.290 -36.149  -7.989  0.00  0.00    -0.320 N 
ATOM     23  O23 GMY d          21.651 -37.373  -5.383  0.00  0.00    -0.285 OA
ATOM     24  O24 GMY d          20.662 -32.070  -5.339  0.00  0.00    -0.285 OA
ATOM     25  O40 GMY d          22.250 -37.853  -9.205  0.00  0.00    -0.268 OA
ATOM     26  H1  GMY d          20.841 -33.458  -7.642  0.00  0.00     0.093 H 
ATOM     27  H2  GMY d          22.068 -37.165  -2.909  0.00  0.00     0.041 H 
ATOM     28  H3  GMY d          21.720 -35.707  -1.919  0.00  0.00     0.041 H 
ATOM     29  H4  GMY d          23.573 -35.037  -4.087  0.00  0.00     0.040 H 
ATOM     30  H5  GMY d          23.508 -34.894  -1.064  0.00  0.00     0.037 H 
ATOM     31  H6  GMY d          23.455 -33.571  -2.280  0.00  0.00     0.037 H 
ATOM     32  H7  GMY d          25.902 -34.727  -2.852  0.00  0.00     0.087 H 
ATOM     33  H8  GMY d          26.877 -32.796  -1.617  0.00  0.00     0.087 H 
ATOM     34  H9  GMY d          24.216 -32.321  -3.089  0.00  0.00     0.049 H 
ATOM     35  H10 GMY d          27.221 -32.449  -3.929  0.00  0.00     0.078 H 
ATOM     36  H11 GMY d          27.623 -32.397  -6.270  0.00  0.00     0.096 H 
ATOM     37  H12 GMY d          25.104 -33.650  -7.535  0.00  0.00     0.094 H 
ATOM     38  H13 GMY d          27.419 -34.812  -5.798  0.00  0.00     0.081 H 
ATOM     39  H14 GMY d          26.137 -37.030  -6.263  0.00  0.00     0.083 H 
ATOM     40  H15 GMY d          23.931 -34.993  -7.485  0.00  0.00     0.084 H 
ATOM     41  H16 GMY d          20.597 -35.967  -8.686  0.00  0.00     0.169 HD
ENDROOT
BRANCH  15  42
ATOM     42  O33 GMY d          26.347 -31.259  -7.470  0.00  0.00    -0.291 OA
BRANCH  42  43
ATOM     43  C34 GMY d          27.527 -30.523  -7.810  0.00  0.00     0.359 C 
ATOM     44  O35 GMY d          27.789 -30.197  -8.940  0.00  0.00    -0.239 OA
ATOM     45  N36 GMY d          28.442 -30.206  -6.716  0.00  0.00    -0.346 N 
ATOM     46  H33 GMY d          29.281 -29.694  -6.899  0.00  0.00     0.161 HD
ATOM     47  H34 GMY d          28.229 -30.501  -5.785  0.00  0.00     0.161 HD
ENDBRANCH  42  43
ENDBRANCH  15  42
BRANCH  14  48
ATOM     48  C32 GMY d          24.128 -31.899  -5.694  0.00  0.00    -0.052 C 
ATOM     49  H30 GMY d          23.774 -32.545  -6.511  0.00  0.00     0.033 H 
ATOM     50  H31 GMY d          23.993 -30.845  -5.975  0.00  0.00     0.033 H 
ATOM     51  H32 GMY d          23.551 -32.113  -4.783  0.00  0.00     0.033 H 
ENDBRANCH  14  48
BRANCH  16  52
ATOM     52  O37 GMY d          26.883 -33.706  -8.599  0.00  0.00    -0.384 OA
BRANCH  52  53
ATOM     53  C38 GMY d          28.247 -34.087  -8.405  0.00  0.00     0.005 C 
ATOM     54  H35 GMY d          28.289 -35.113  -8.010  0.00  0.00     0.066 H 
ATOM     55  H36 GMY d          28.721 -33.399  -7.689  0.00  0.00     0.066 H 
ATOM     56  H37 GMY d          28.781 -34.042  -9.365  0.00  0.00     0.066 H 
ENDBRANCH  52  53
ENDBRANCH  16  52
BRANCH  12  57
ATOM     57  C31 GMY d          25.352 -30.556  -2.483  0.00  0.00    -0.067 C 
ATOM     58  H27 GMY d          25.121 -29.941  -3.366  0.00  0.00     0.028 H 
ATOM     59  H28 GMY d          26.371 -30.330  -2.136  0.00  0.00     0.028 H 
ATOM     60  H29 GMY d          24.633 -30.331  -1.681  0.00  0.00     0.028 H 
ENDBRANCH  12  57
BRANCH  11  61
ATOM     61  O30 GMY d          25.187 -32.452  -0.467  0.00  0.00    -0.392 OA
ATOM     62  H26 GMY d          25.385 -33.068   0.228  0.00  0.00     0.210 HD
ENDBRANCH  11  61
BRANCH  10  63
ATOM     63  O28 GMY d          25.882 -35.184  -0.827  0.00  0.00    -0.388 OA
BRANCH  63  64
ATOM     64  C29 GMY d          24.795 -35.487   0.063  0.00  0.00     0.005 C 
ATOM     65  H23 GMY d          24.634 -34.641   0.747  0.00  0.00     0.066 H 
ATOM     66  H24 GMY d          25.039 -36.388   0.645  0.00  0.00     0.066 H 
ATOM     67  H25 GMY d          23.881 -35.665  -0.523  0.00  0.00     0.066 H 
ENDBRANCH  63  64
ENDBRANCH  10  63
BRANCH  20  68
ATOM     68  C39 GMY d          24.243 -38.559  -7.214  0.00  0.00    -0.046 C 
ATOM     69  H38 GMY d          24.405 -38.781  -6.149  0.00  0.00     0.033 H 
ATOM     70  H39 GMY d          25.211 -38.539  -7.735  0.00  0.00     0.033 H 
ATOM     71  H40 GMY d          23.604 -39.337  -7.657  0.00  0.00     0.033 H 
ENDBRANCH  20  68
BRANCH   8  72
ATOM     72  C27 GMY d          24.512 -36.756  -3.222  0.00  0.00    -0.073 C 
ATOM     73  H20 GMY d          24.040 -37.561  -3.803  0.00  0.00     0.028 H 
ATOM     74  H21 GMY d          24.748 -37.122  -2.212  0.00  0.00     0.028 H 
ATOM     75  H22 GMY d          25.438 -36.437  -3.722  0.00  0.00     0.028 H 
ENDBRANCH   8  72
BRANCH   6  76
ATOM     76  O25 GMY d          21.009 -33.284  -2.828  0.00  0.00    -0.351 OA
BRANCH  76  77
ATOM     77  C26 GMY d          19.657 -33.353  -2.353  0.00  0.00     0.011 C 
ATOM     78  H17 GMY d          19.261 -34.366  -2.520  0.00  0.00     0.067 H 
ATOM     79  H18 GMY d          19.039 -32.624  -2.897  0.00  0.00     0.067 H 
ATOM     80  H19 GMY d          19.635 -33.124  -1.277  0.00  0.00     0.067 H 
ENDBRANCH  76  77
ENDBRANCH   6  76
TORSDOF 13
ENDMDL
