MODEL 1
REMARK VINA RESULT:      -9.4      0.000      0.000
REMARK  8 active torsions:
REMARK  status: ('A' for Active; 'I' for Inactive)
REMARK    1  A    between atoms: CAQ_9  and  CAL_10 
REMARK    2  A    between atoms: CAL_10  and  CAP_11 
REMARK       I    between atoms: CAP_11  and  NAM_13 
REMARK    3  A    between atoms: NAM_13  and  CAK_14 
REMARK    4  A    between atoms: CAK_14  and  CAU_15 
REMARK    5  A    between atoms: CAT_17  and  CAA_18 
REMARK    6  A    between atoms: CAV_19  and  OAC_20 
REMARK    7  A    between atoms: CAX_21  and  OAE_22 
REMARK    8  A    between atoms: CAW_23  and  OAD_24 
ROOT
ATOM      1  CAK ZX6 d          -1.872  26.156  27.152  0.00  0.00     0.024 C 
ATOM      2  H10 ZX6 d          -2.904  25.787  27.055  0.00  0.00     0.067 H 
ATOM      3  H11 ZX6 d          -1.173  25.308  27.094  0.00  0.00     0.067 H 
ENDROOT
BRANCH   1   4
ATOM      4  NAM ZX6 d          -1.735  26.761  28.488  0.00  0.00    -0.359 N 
ATOM      5  CAP ZX6 d          -2.610  26.544  29.469  0.00  0.00     0.222 C 
ATOM      6  OAB ZX6 d          -3.678  25.961  29.286  0.00  0.00    -0.273 OA
ATOM      7  H9  ZX6 d          -0.953  27.358  28.666  0.00  0.00     0.162 HD
BRANCH   5   8
ATOM      8  CAL ZX6 d          -2.350  27.169  30.845  0.00  0.00     0.035 C 
ATOM      9  H7  ZX6 d          -2.145  28.240  30.698  0.00  0.00     0.054 H 
ATOM     10  H8  ZX6 d          -3.260  27.049  31.450  0.00  0.00     0.054 H 
BRANCH   8  11
ATOM     11  CAQ ZX6 d          -1.181  26.568  31.629  0.00  0.00    -0.022 A 
ATOM     12  CAS ZX6 d          -0.763  25.242  31.685  0.00  0.00    -0.001 A 
ATOM     13  CAI ZX6 d          -1.181  24.074  31.060  0.00  0.00    -0.070 A 
ATOM     14  CAR ZX6 d           0.334  25.212  32.539  0.00  0.00     0.042 A 
ATOM     15  CAG ZX6 d          -0.500  22.881  31.289  0.00  0.00    -0.082 A 
ATOM     16  H1  ZX6 d          -2.037  24.090  30.395  0.00  0.00     0.084 H 
ATOM     17  CAF ZX6 d           0.596  22.851  32.145  0.00  0.00    -0.081 A 
ATOM     18  H2  ZX6 d          -0.825  21.972  30.797  0.00  0.00     0.083 H 
ATOM     19  CAH ZX6 d           1.012  24.021  32.774  0.00  0.00    -0.056 A 
ATOM     20  H3  ZX6 d           1.123  21.921  32.323  0.00  0.00     0.083 H 
ATOM     21  H4  ZX6 d           1.864  24.004  33.445  0.00  0.00     0.086 H 
ATOM     22  NAO ZX6 d           0.544  26.456  32.958  0.00  0.00    -0.365 N 
ATOM     23  CAJ ZX6 d          -0.364  27.266  32.414  0.00  0.00    -0.015 A 
ATOM     24  H5  ZX6 d           1.291  26.749  33.603  0.00  0.00     0.165 HD
ATOM     25  H6  ZX6 d          -0.427  28.339  32.586  0.00  0.00     0.112 H 
ENDBRANCH   8  11
ENDBRANCH   5   8
ENDBRANCH   1   4
BRANCH   1  26
ATOM     26  CAU ZX6 d          -1.591  27.075  25.959  0.00  0.00     0.144 C 
ATOM     27  NAN ZX6 d          -0.143  27.321  25.827  0.00  0.00    -0.060 N 
ATOM     28  CAT ZX6 d           0.161  28.260  24.731  0.00  0.00     0.126 C 
ATOM     29  H13 ZX6 d           0.321  26.445  25.643  0.00  0.00     0.278 HD
ATOM     30  H14 ZX6 d           0.201  27.709  26.692  0.00  0.00     0.278 HD
ATOM     31  CAV ZX6 d          -0.393  27.795  23.376  0.00  0.00     0.089 C 
ATOM     32  H15 ZX6 d          -0.303  29.228  24.972  0.00  0.00     0.087 H 
ATOM     33  CAX ZX6 d          -1.874  27.434  23.513  0.00  0.00     0.089 C 
ATOM     34  H19 ZX6 d          -0.287  28.613  22.648  0.00  0.00     0.090 H 
ATOM     35  CAW ZX6 d          -2.015  26.413  24.642  0.00  0.00     0.091 C 
ATOM     36  H21 ZX6 d          -2.447  28.340  23.759  0.00  0.00     0.091 H 
ATOM     37  H23 ZX6 d          -1.351  25.557  24.450  0.00  0.00     0.090 H 
ATOM     38  H12 ZX6 d          -2.129  28.024  26.097  0.00  0.00     0.091 H 
BRANCH  28  39
ATOM     39  CAA ZX6 d           1.675  28.454  24.634  0.00  0.00    -0.047 C 
ATOM     40  H16 ZX6 d           2.181  27.710  25.266  0.00  0.00     0.030 H 
ATOM     41  H17 ZX6 d           1.937  29.465  24.979  0.00  0.00     0.030 H 
ATOM     42  H18 ZX6 d           1.995  28.327  23.589  0.00  0.00     0.030 H 
ENDBRANCH  28  39
BRANCH  31  43
ATOM     43  OAC ZX6 d           0.331  26.654  22.905  0.00  0.00    -0.391 OA
ATOM     44  H20 ZX6 d           0.132  25.905  23.455  0.00  0.00     0.210 HD
ENDBRANCH  31  43
BRANCH  33  45
ATOM     45  OAE ZX6 d          -2.392  26.868  22.307  0.00  0.00    -0.390 OA
ATOM     46  H22 ZX6 d          -3.186  26.384  22.501  0.00  0.00     0.210 HD
ENDBRANCH  33  45
BRANCH  35  47
ATOM     47  OAD ZX6 d          -3.366  25.949  24.656  0.00  0.00    -0.391 OA
ATOM     48  H24 ZX6 d          -3.894  26.534  25.185  0.00  0.00     0.210 HD
ENDBRANCH  35  47
ENDBRANCH   1  26
TORSDOF 8
ENDMDL
MODEL 2
REMARK VINA RESULT:      -6.6      2.352      7.870
REMARK  8 active torsions:
REMARK  status: ('A' for Active; 'I' for Inactive)
REMARK    1  A    between atoms: CAQ_9  and  CAL_10 
REMARK    2  A    between atoms: CAL_10  and  CAP_11 
REMARK       I    between atoms: CAP_11  and  NAM_13 
REMARK    3  A    between atoms: NAM_13  and  CAK_14 
REMARK    4  A    between atoms: CAK_14  and  CAU_15 
REMARK    5  A    between atoms: CAT_17  and  CAA_18 
REMARK    6  A    between atoms: CAV_19  and  OAC_20 
REMARK    7  A    between atoms: CAX_21  and  OAE_22 
REMARK    8  A    between atoms: CAW_23  and  OAD_24 
ROOT
ATOM      1  CAK ZX6 d          -2.715  27.178  29.909  0.00  0.00     0.024 C 
ATOM      2  H10 ZX6 d          -3.806  27.274  30.009  0.00  0.00     0.067 H 
ATOM      3  H11 ZX6 d          -2.270  28.175  29.771  0.00  0.00     0.067 H 
ENDROOT
BRANCH   1   4
ATOM      4  NAM ZX6 d          -2.443  26.394  28.691  0.00  0.00    -0.359 N 
ATOM      5  CAP ZX6 d          -2.988  26.687  27.510  0.00  0.00     0.222 C 
ATOM      6  OAB ZX6 d          -3.878  27.525  27.383  0.00  0.00    -0.273 OA
ATOM      7  H9  ZX6 d          -1.826  25.610  28.753  0.00  0.00     0.162 HD
BRANCH   5   8
ATOM      8  CAL ZX6 d          -2.596  25.849  26.287  0.00  0.00     0.035 C 
ATOM      9  H7  ZX6 d          -1.799  25.155  26.592  0.00  0.00     0.054 H 
ATOM     10  H8  ZX6 d          -3.480  25.276  25.971  0.00  0.00     0.054 H 
BRANCH   8  11
ATOM     11  CAQ ZX6 d          -2.094  26.644  25.080  0.00  0.00    -0.022 A 
ATOM     12  CAS ZX6 d          -0.876  27.294  24.914  0.00  0.00    -0.001 A 
ATOM     13  CAI ZX6 d           0.269  27.408  25.694  0.00  0.00    -0.070 A 
ATOM     14  CAR ZX6 d          -0.908  27.873  23.650  0.00  0.00     0.042 A 
ATOM     15  CAG ZX6 d           1.376  28.099  25.207  0.00  0.00    -0.082 A 
ATOM     16  H1  ZX6 d           0.300  26.961  26.681  0.00  0.00     0.084 H 
ATOM     17  CAF ZX6 d           1.341  28.681  23.945  0.00  0.00    -0.081 A 
ATOM     18  H2  ZX6 d           2.269  28.183  25.815  0.00  0.00     0.083 H 
ATOM     19  CAH ZX6 d           0.193  28.569  23.164  0.00  0.00    -0.056 A 
ATOM     20  H3  ZX6 d           2.203  29.219  23.569  0.00  0.00     0.083 H 
ATOM     21  H4  ZX6 d           0.159  29.023  22.181  0.00  0.00     0.086 H 
ATOM     22  NAO ZX6 d          -2.086  27.577  23.109  0.00  0.00    -0.365 N 
ATOM     23  CAJ ZX6 d          -2.794  26.842  23.966  0.00  0.00    -0.015 A 
ATOM     24  H5  ZX6 d          -2.402  27.869  22.174  0.00  0.00     0.165 HD
ATOM     25  H6  ZX6 d          -3.797  26.461  23.781  0.00  0.00     0.112 H 
ENDBRANCH   8  11
ENDBRANCH   5   8
ENDBRANCH   1   4
BRANCH   1  26
ATOM     26  CAU ZX6 d          -2.174  26.602  31.221  0.00  0.00     0.144 C 
ATOM     27  NAN ZX6 d          -2.185  25.128  31.181  0.00  0.00    -0.060 N 
ATOM     28  CAT ZX6 d          -1.736  24.537  32.456  0.00  0.00     0.126 C 
ATOM     29  H13 ZX6 d          -1.570  24.818  30.445  0.00  0.00     0.278 HD
ATOM     30  H14 ZX6 d          -3.124  24.814  30.990  0.00  0.00     0.278 HD
ATOM     31  CAV ZX6 d          -0.340  25.015  32.877  0.00  0.00     0.089 C 
ATOM     32  H15 ZX6 d          -2.448  24.836  33.240  0.00  0.00     0.087 H 
ATOM     33  CAX ZX6 d          -0.273  26.544  32.826  0.00  0.00     0.089 C 
ATOM     34  H19 ZX6 d          -0.143  24.680  33.907  0.00  0.00     0.090 H 
ATOM     35  CAW ZX6 d          -0.706  26.995  31.431  0.00  0.00     0.091 C 
ATOM     36  H21 ZX6 d          -0.957  26.962  33.579  0.00  0.00     0.091 H 
ATOM     37  H23 ZX6 d          -0.095  26.485  30.672  0.00  0.00     0.090 H 
ATOM     38  H12 ZX6 d          -2.788  26.966  32.058  0.00  0.00     0.091 H 
BRANCH  28  39
ATOM     39  CAA ZX6 d          -1.750  23.012  32.341  0.00  0.00    -0.047 C 
ATOM     40  H16 ZX6 d          -2.637  22.695  31.772  0.00  0.00     0.030 H 
ATOM     41  H17 ZX6 d          -1.782  22.568  33.347  0.00  0.00     0.030 H 
ATOM     42  H18 ZX6 d          -0.841  22.676  31.819  0.00  0.00     0.030 H 
ENDBRANCH  28  39
BRANCH  31  43
ATOM     43  OAC ZX6 d           0.659  24.469  32.010  0.00  0.00    -0.391 OA
ATOM     44  H20 ZX6 d           0.237  23.988  31.308  0.00  0.00     0.210 HD
ENDBRANCH  31  43
BRANCH  33  45
ATOM     45  OAE ZX6 d           1.049  27.023  33.079  0.00  0.00    -0.390 OA
ATOM     46  H22 ZX6 d           1.539  27.042  32.266  0.00  0.00     0.210 HD
ENDBRANCH  33  45
BRANCH  35  47
ATOM     47  OAD ZX6 d          -0.481  28.402  31.329  0.00  0.00    -0.391 OA
ATOM     48  H24 ZX6 d          -0.833  28.834  32.098  0.00  0.00     0.210 HD
ENDBRANCH  35  47
ENDBRANCH   1  26
TORSDOF 8
ENDMDL
