REMARK  5 active torsions:
REMARK  status: ('A' for Active; 'I' for Inactive)
REMARK    1  A    between atoms: C2_3  and  O1_2 
REMARK    2  A    between atoms: C4_7  and  O2_4 
REMARK    3  A    between atoms: C12_18  and  O5_10 
REMARK    4  A    between atoms: C13_19  and  O6_12 
REMARK    5  A    between atoms: C10_16  and  C9_15 
ROOT
ATOM      1  C1  LU2 d          19.468  41.143  36.104  0.00  0.00    -0.017 A 
ATOM      2  C2  LU2 d          19.342  41.179  34.737  0.00  0.00     0.071 A 
ATOM      3  C3  LU2 d          20.317  41.801  33.952  0.00  0.00    -0.018 A 
ATOM      4  O3  LU2 d          23.484  43.564  35.995  0.00  0.00    -0.287 OA
ATOM      5  C4  LU2 d          21.419  42.377  34.557  0.00  0.00     0.085 A 
ATOM      6  O4  LU2 d          20.627  41.662  38.021  0.00  0.00    -0.309 OA
ATOM      7  C5  LU2 d          21.551  42.345  35.948  0.00  0.00     0.081 A 
ATOM      8  C6  LU2 d          20.570  41.738  36.691  0.00  0.00     0.095 A 
ATOM      9  C7  LU2 d          22.617  42.927  36.593  0.00  0.00     0.190 A 
ATOM     10  C8  LU2 d          22.626  42.924  37.967  0.00  0.00    -0.000 A 
ATOM     11  C9  LU2 d          21.646  42.244  38.652  0.00  0.00     0.090 A 
ATOM     12  H1  LU2 d          18.715  40.656  36.714  0.00  0.00     0.092 H 
ATOM     13  H4  LU2 d          20.210  41.832  32.874  0.00  0.00     0.092 H 
ATOM     14  H7  LU2 d          23.405  43.457  38.511  0.00  0.00     0.094 H 
ENDROOT
BRANCH  11  15
ATOM     15  C10 LU2 d          21.622  42.192  40.007  0.00  0.00     0.001 A 
ATOM     16  C11 LU2 d          21.507  40.971  40.721  0.00  0.00    -0.036 A 
ATOM     17  C12 LU2 d          21.460  40.943  42.106  0.00  0.00     0.099 A 
ATOM     18  H8  LU2 d          21.455  40.039  40.170  0.00  0.00     0.089 H 
ATOM     19  C13 LU2 d          21.546  42.213  42.666  0.00  0.00     0.098 A 
ATOM     20  C14 LU2 d          21.658  43.416  41.989  0.00  0.00    -0.047 A 
ATOM     21  C15 LU2 d          21.694  43.417  40.637  0.00  0.00    -0.068 A 
ATOM     22  H9  LU2 d          21.716  44.349  42.538  0.00  0.00     0.087 H 
ATOM     23  H10 LU2 d          21.776  44.339  40.074  0.00  0.00     0.085 H 
BRANCH  17  24
ATOM     24  O5  LU2 d          21.315  39.778  42.940  0.00  0.00    -0.358 OA
ATOM     25  H5  LU2 d          21.313  40.042  43.853  0.00  0.00     0.217 HD
ENDBRANCH  17  24
BRANCH  19  26
ATOM     26  O6  LU2 d          21.516  42.299  43.981  0.00  0.00    -0.358 OA
ATOM     27  H6  LU2 d          21.582  43.211  44.239  0.00  0.00     0.217 HD
ENDBRANCH  19  26
ENDBRANCH  11  15
BRANCH   2  28
ATOM     28  O1  LU2 d          18.264  40.647  34.180  0.00  0.00    -0.361 OA
ATOM     29  H2  LU2 d          18.315  40.745  33.236  0.00  0.00     0.217 HD
ENDBRANCH   2  28
BRANCH   5  30
ATOM     30  O2  LU2 d          22.341  42.958  33.782  0.00  0.00    -0.360 OA
ATOM     31  H3  LU2 d          23.036  43.309  34.327  0.00  0.00     0.217 HD
ENDBRANCH   5  30
TORSDOF 5
